# generated using pymatgen
data_AgH13C23SN3O4F3
_symmetry_space_group_name_H-M   'P 1'
_cell_length_a   9.70033358
_cell_length_b   12.09948327
_cell_length_c   25.74915206
_cell_angle_alpha   89.99959020
_cell_angle_beta   91.15167314
_cell_angle_gamma   89.99957966
_symmetry_Int_Tables_number   1
_chemical_formula_structural   AgH13C23SN3O4F3
_chemical_formula_sum   'Ag4 H52 C92 S4 N12 O16 F12'
_cell_volume   3021.54234189
_cell_formula_units_Z   4
loop_
 _symmetry_equiv_pos_site_id
 _symmetry_equiv_pos_as_xyz
  1  'x, y, z'
loop_
 _atom_site_type_symbol
 _atom_site_label
 _atom_site_symmetry_multiplicity
 _atom_site_fract_x
 _atom_site_fract_y
 _atom_site_fract_z
 _atom_site_occupancy
 _atom_site_pbe_bader_charge
 _atom_site_pbe_bader_spin_density
 _atom_site_pbe_cm5_charge
 _atom_site_pbe_ddec_charge
 _atom_site_pbe_ddec_spin_density
 _atom_site_pbe_ddec_sum_bond_order
 _atom_site_pbe_magmom
Ag  Ag0  1  0.83452903  0.95716091  0.95384766  1  0.742903  0  0.557941  0.575459  0  2.126853  0
Ag  Ag1  1  0.33454243  0.54283692  0.45384570  1  0.743029  0  0.557972  0.575491  0  2.127056  0
Ag  Ag2  1  0.66546714  0.45716878  0.54616048  1  0.743043  0  0.557991  0.575513  0  2.127164  0
Ag  Ag3  1  0.16545479  0.04282661  0.04616108  1  0.742975  0  0.557986  0.575557  0  2.12704  0
H  H4  1  0.54851189  0.23951690  0.32222240  1  0.665285  0  0.294098  0.35757  0  0.977119  0
H  H5  1  0.83047954  0.96292129  0.32957399  1  0.097061  0  0.108122  0.109208  0  0.995541  0
H  H6  1  0.74809241  0.79362637  0.37267973  1  0.099974  0  0.107829  0.111352  0  1.010865  0
H  H7  1  0.32704757  0.90005631  0.34764011  1  0.098152  0  0.11656  0.11958  0  0.969452  0
H  H8  1  0.41141635  0.07158051  0.30551819  1  0.140203  0  0.113261  0.122911  0  0.990988  0
H  H9  1  0.85748705  0.27057248  0.24073296  1  0.109767  0  0.097306  0.095276  0  1.050332  0
H  H10  1  0.03804752  0.38649772  0.28241107  1  0.075982  0  0.105518  0.107168  0  1.007622  0
H  H11  1  0.94569819  0.24230510  0.43129664  1  0.130732  0  0.11745  0.125051  0  0.966407  0
H  H12  1  0.76524341  0.12711095  0.38930705  1  0.08734  0  0.098664  0.103356  0  1.046203  0
H  H13  1  0.51245187  0.17977984  0.20137970  1  0.118599  0  0.110447  0.125104  0  0.992727  0
H  H14  1  0.54561240  0.11885222  0.10970399  1  0.091642  0  0.112038  0.117876  0  0.988893  0
H  H15  1  0.92226147  0.95379881  0.15648882  1  0.146198  0  0.113091  0.130931  0  1.009131  0
H  H16  1  0.88969287  0.01643339  0.24719527  1  0.051603  0  0.107301  0.11046  0  0.993872  0
H  H17  1  0.04851277  0.26048489  0.82221711  1  0.665253  0  0.294163  0.357655  0  0.977113  0
H  H18  1  0.33047111  0.53708342  0.82956552  1  0.097143  0  0.108081  0.109164  0  0.995531  0
H  H19  1  0.24808348  0.70637238  0.87267534  1  0.100079  0  0.107826  0.111361  0  1.01083  0
H  H20  1  0.82703747  0.59993078  0.84764019  1  0.098162  0  0.116561  0.119622  0  0.96948  0
H  H21  1  0.91141245  0.42841692  0.80551564  1  0.140374  0  0.113262  0.122917  0  0.990989  0
H  H22  1  0.35747990  0.22943451  0.74072229  1  0.109571  0  0.097433  0.095531  0  1.050302  0
H  H23  1  0.53804023  0.11350722  0.78239831  1  0.075699  0  0.105475  0.107122  0  1.007625  0
H  H24  1  0.44571553  0.25769930  0.93128602  1  0.131074  0  0.117256  0.124854  0  0.966626  0
H  H25  1  0.26525866  0.37289350  0.88929758  1  0.087137  0  0.098663  0.103354  0  1.046388  0
H  H26  1  0.01243771  0.32023144  0.70137024  1  0.118559  0  0.110428  0.125052  0  0.992606  0
H  H27  1  0.04560696  0.38116357  0.60969593  1  0.091488  0  0.112057  0.117811  0  0.989127  0
H  H28  1  0.42225921  0.54619973  0.65648579  1  0.146131  0  0.113116  0.130936  0  1.009069  0
H  H29  1  0.38968552  0.48356010  0.74719190  1  0.051948  0  0.107287  0.110408  0  0.993777  0
H  H30  1  0.95149258  0.73951916  0.17778128  1  0.665208  0  0.294107  0.3576  0  0.977144  0
H  H31  1  0.66952708  0.46292394  0.17043826  1  0.097134  0  0.108117  0.109262  0  0.995602  0
H  H32  1  0.75189714  0.29363828  0.12732523  1  0.100317  0  0.107804  0.111295  0  1.010962  0
H  H33  1  0.17295021  0.40007327  0.15234606  1  0.098195  0  0.116588  0.119604  0  0.969452  0
H  H34  1  0.08859178  0.57158630  0.19447574  1  0.140481  0  0.113254  0.122919  0  0.990854  0
H  H35  1  0.64251508  0.77057202  0.25927176  1  0.109607  0  0.097323  0.095291  0  1.050412  0
H  H36  1  0.46195674  0.88649104  0.21758915  1  0.076124  0  0.105521  0.107205  0  1.007636  0
H  H37  1  0.55431346  0.74228078  0.06870629  1  0.130837  0  0.117365  0.124924  0  0.966424  0
H  H38  1  0.73475912  0.62709319  0.11070593  1  0.087217  0  0.098696  0.103365  0  1.046244  0
H  H39  1  0.98757387  0.67977261  0.29863207  1  0.118294  0  0.110412  0.125043  0  0.992688  0
H  H40  1  0.95440769  0.61883387  0.39030484  1  0.091362  0  0.112027  0.117823  0  0.989079  0
H  H41  1  0.57775754  0.45379771  0.34351771  1  0.146114  0  0.11309  0.130919  0  1.009237  0
H  H42  1  0.61032710  0.51643817  0.25281081  1  0.052087  0  0.107283  0.11046  0  0.993755  0
H  H43  1  0.45148633  0.76048136  0.67778410  1  0.66528  0  0.294219  0.357721  0  0.977021  0
H  H44  1  0.16953115  0.03708689  0.67043996  1  0.097191  0  0.108142  0.109257  0  0.995593  0
H  H45  1  0.25191306  0.20638181  0.62732876  1  0.100021  0  0.10784  0.111408  0  1.01068  0
H  H46  1  0.67295856  0.09990310  0.65233809  1  0.098122  0  0.116516  0.119501  0  0.969646  0
H  H47  1  0.58858367  0.92838965  0.69446579  1  0.14014  0  0.113235  0.122943  0  0.990839  0
H  H48  1  0.14250905  0.72941751  0.75926809  1  0.109776  0  0.097316  0.095273  0  1.050619  0
H  H49  1  0.96194749  0.61350220  0.71758492  1  0.076064  0  0.105502  0.107099  0  1.007655  0
H  H50  1  0.05430307  0.75773118  0.56870561  1  0.130868  0  0.117295  0.124917  0  0.96655  0
H  H51  1  0.23475800  0.87290549  0.61070685  1  0.087158  0  0.098747  0.103479  0  1.046341  0
H  H52  1  0.48755569  0.82022834  0.79863113  1  0.118602  0  0.110427  0.125084  0  0.992683  0
H  H53  1  0.45439102  0.88116505  0.89030525  1  0.091147  0  0.112009  0.117773  0  0.988869  0
H  H54  1  0.07774494  0.04621020  0.84351229  1  0.146118  0  0.113107  0.130878  0  1.00922  0
H  H55  1  0.11031870  0.98357149  0.75280665  1  0.052103  0  0.107284  0.110432  0  0.993802  0
C  C56  1  0.67237598  0.13490325  0.28661354  1  0.514665  0  0.087843  0.212108  0  3.868931  0
C  C57  1  0.62580312  0.02872013  0.31421404  1  0.063253  0  0.004578  0.042496  0  3.888634  0
C  C58  1  0.71998199  0.94949870  0.33303353  1  -0.099083  0  -0.081943  -0.116801  0  3.977209  0
C  C59  1  0.67472408  0.85410615  0.35743186  1  0.001029  0  -0.071126  -0.08877  0  3.937861  0
C  C60  1  0.53242463  0.83566855  0.36249437  1  0.071691  0  0.001939  0.037132  0  4.102896  0
C  C61  1  0.43713029  0.91373099  0.34304217  1  -0.043076  0  -0.065876  -0.087159  0  3.935573  0
C  C62  1  0.48437924  0.00925687  0.31929605  1  -0.074154  0  -0.080339  -0.106017  0  3.959929  0
C  C63  1  0.48474320  0.73958505  0.38811973  1  0.870335  0  0.215249  0.294276  0  3.970585  0
C  C64  1  0.79927630  0.18998355  0.31201201  1  -0.01472  0  -0.001953  0.035989  0  3.901524  0
C  C65  1  0.87812552  0.26278004  0.28229796  1  -0.021685  0  -0.086835  -0.110871  0  3.978082  0
C  C66  1  0.97949234  0.32815426  0.30545282  1  -0.072729  0  -0.074762  -0.098323  0  3.953088  0
C  C67  1  0.00329413  0.32132751  0.35946499  1  0.09522  0  0.003616  0.040668  0  4.100531  0
C  C68  1  0.92740442  0.24699080  0.38948867  1  -0.063845  0  -0.063589  -0.075558  0  3.913645  0
C  C69  1  0.82621682  0.18213975  0.36555074  1  0.070449  0  -0.085947  -0.113724  0  3.97054  0
C  C70  1  0.09649645  0.39666993  0.38357246  1  0.833136  0  0.213538  0.300246  0  3.975884  0
C  C71  1  0.69768960  0.10179558  0.23017103  1  -0.046772  0  0.004706  0.053313  0  3.902501  0
C  C72  1  0.60178432  0.13061061  0.19112925  1  -0.058566  0  -0.086982  -0.120047  0  3.967403  0
C  C73  1  0.62081561  0.09736655  0.14002999  1  -0.003676  0  -0.075141  -0.111552  0  3.984966  0
C  C74  1  0.73667059  0.03337679  0.12769633  1  0.092046  0  0.001621  0.032864  0  4.104032  0
C  C75  1  0.83394997  0.00430555  0.16663237  1  -0.08896  0  -0.067505  -0.079672  0  3.914932  0
C  C76  1  0.81366690  0.03899761  0.21729554  1  0.057228  0  -0.084035  -0.123455  0  3.975909  0
C  C77  1  0.75463026  0.99721995  0.07583763  1  0.861488  0  0.217463  0.299799  0  3.954812  0
C  C78  1  0.04006370  0.33977564  0.96497019  1  1.643127  0  0.283507  0.511212  0  4.046417  0
C  C79  1  0.17236661  0.36510166  0.78660822  1  0.515143  0  0.087811  0.211768  0  3.869211  0
C  C80  1  0.12579174  0.47127637  0.81420952  1  0.062796  0  0.004562  0.042436  0  3.888794  0
C  C81  1  0.21996936  0.55049503  0.83302887  1  -0.098891  0  -0.081864  -0.116763  0  3.977074  0
C  C82  1  0.17470955  0.64588914  0.85742920  1  0.000985  0  -0.071085  -0.088725  0  3.937705  0
C  C83  1  0.03240585  0.66432832  0.86249512  1  0.072071  0  0.001881  0.037062  0  4.10317  0
C  C84  1  0.93711616  0.58625635  0.84304033  1  -0.043366  0  -0.065904  -0.087279  0  3.935981  0
C  C85  1  0.98436962  0.49073744  0.81929442  1  -0.074313  0  -0.080261  -0.105848  0  3.960278  0
C  C86  1  0.98472851  0.76040628  0.88811963  1  0.870809  0  0.215176  0.294272  0  3.971128  0
C  C87  1  0.29927463  0.31002601  0.81200421  1  -0.015131  0  -0.001896  0.036354  0  3.900902  0
C  C88  1  0.37812657  0.23722372  0.78228886  1  -0.024451  0  -0.087047  -0.111432  0  3.978066  0
C  C89  1  0.47950015  0.17184856  0.80544165  1  -0.070132  0  -0.074719  -0.098058  0  3.953214  0
C  C90  1  0.50330274  0.17867729  0.85945327  1  0.095729  0  0.003462  0.040088  0  4.101396  0
C  C91  1  0.42741561  0.25302013  0.88947725  1  -0.064709  0  -0.063391  -0.075212  0  3.914144  0
C  C92  1  0.32622331  0.31786966  0.86554219  1  0.071235  0  -0.085886  -0.113699  0  3.970669  0
C  C93  1  0.59650372  0.10332899  0.88356214  1  0.833757  0  0.213502  0.300494  0  3.976284  0
C  C94  1  0.19767475  0.39820839  0.73016441  1  -0.04658  0  0.004662  0.053372  0  3.902489  0
C  C95  1  0.10177076  0.36939782  0.69112273  1  -0.058666  0  -0.086768  -0.11978  0  3.967016  0
C  C96  1  0.12081001  0.40264668  0.64002457  1  -0.003687  0  -0.075291  -0.111653  0  3.985084  0
C  C97  1  0.23666854  0.46663263  0.62769227  1  0.091953  0  0.00161  0.032805  0  4.103959  0
C  C98  1  0.33394352  0.49569941  0.66662741  1  -0.089014  0  -0.067497  -0.079547  0  3.914651  0
C  C99  1  0.31365559  0.46100339  0.71728911  1  0.057109  0  -0.084122  -0.123575  0  3.975867  0
C  C100  1  0.25463044  0.50279155  0.57583320  1  0.861792  0  0.217684  0.300112  0  3.954984  0
C  C101  1  0.54007184  0.16021824  0.46497813  1  1.642593  0  0.283854  0.511836  0  4.046443  0
C  C102  1  0.82763981  0.63490322  0.21339405  1  0.515451  0  0.087958  0.211889  0  3.86914  0
C  C103  1  0.87420124  0.52871941  0.18578957  1  0.062899  0  0.004517  0.042479  0  3.888806  0
C  C104  1  0.78001955  0.44950406  0.16697408  1  -0.099115  0  -0.081922  -0.116823  0  3.977486  0
C  C105  1  0.82527521  0.35411739  0.14257218  1  0.000609  0  -0.071038  -0.088648  0  3.938087  0
C  C106  1  0.96757786  0.33567655  0.13750470  1  0.072155  0  0.001872  0.03701  0  4.102956  0
C  C107  1  0.06287262  0.41374439  0.15695252  1  -0.04337  0  -0.06587  -0.087132  0  3.935886  0
C  C108  1  0.01562023  0.50926248  0.18070193  1  -0.074333  0  -0.080379  -0.106068  0  3.960247  0
C  C109  1  0.01524587  0.23959198  0.11187624  1  0.870453  0  0.215239  0.294257  0  3.97064  0
C  C110  1  0.70072866  0.68997886  0.18799494  1  -0.015255  0  -0.001886  0.036282  0  3.90115  0
C  C111  1  0.62186738  0.76277950  0.21770518  1  -0.021993  0  -0.086885  -0.111041  0  3.978023  0
C  C112  1  0.52050200  0.82815136  0.19454817  1  -0.0726  0  -0.074799  -0.098419  0  3.953148  0
C  C113  1  0.49670970  0.82132097  0.14053545  1  0.095306  0  0.00353  0.040666  0  4.100582  0
C  C114  1  0.57259999  0.74697400  0.11051615  1  -0.064  0  -0.063423  -0.075311  0  3.913397  0
C  C115  1  0.67378721  0.68212529  0.13445778  1  0.070913  0  -0.086033  -0.113818  0  3.970584  0
C  C116  1  0.40351492  0.89666018  0.11642661  1  0.83258  0  0.213536  0.300246  0  3.97548  0
C  C117  1  0.80233169  0.60179153  0.26983942  1  -0.046673  0  0.00475  0.053351  0  3.902781  0
C  C118  1  0.89823564  0.63060210  0.30887799  1  -0.058508  0  -0.086866  -0.11981  0  3.967262  0
C  C119  1  0.87920258  0.59735324  0.35997619  1  -0.003806  0  -0.075184  -0.111641  0  3.985009  0
C  C120  1  0.76334406  0.53336563  0.37230926  1  0.092606  0  0.001692  0.032997  0  4.10377  0
C  C121  1  0.66607218  0.50429968  0.33337453  1  -0.08942  0  -0.067585  -0.079759  0  3.9149  0
C  C122  1  0.68635804  0.53899570  0.28271243  1  0.057152  0  -0.08418  -0.123588  0  3.976013  0
C  C123  1  0.74537805  0.49720920  0.42416986  1  0.861429  0  0.217545  0.299881  0  3.95498  0
C  C124  1  0.45989746  0.83977506  0.53502393  1  1.641522  0  0.283958  0.511873  0  4.04578  0
C  C125  1  0.32762635  0.86509666  0.71339182  1  0.515514  0  0.087915  0.211793  0  3.86931  0
C  C126  1  0.37420022  0.97127648  0.68578861  1  0.062446  0  0.004625  0.042626  0  3.888944  0
C  C127  1  0.28002863  0.05049873  0.66697499  1  -0.098862  0  -0.082006  -0.116981  0  3.977478  0
C  C128  1  0.32528960  0.14588964  0.64257318  1  0.000951  0  -0.071109  -0.088789  0  3.937629  0
C  C129  1  0.46759514  0.16432062  0.63750293  1  0.072385  0  0.001814  0.036941  0  4.10312  0
C  C130  1  0.56288422  0.08623917  0.65694656  1  -0.043266  0  -0.065768  -0.086949  0  3.936123  0
C  C131  1  0.51562395  0.99072569  0.68069495  1  -0.07433  0  -0.080349  -0.106086  0  3.960216  0
C  C132  1  0.51526728  0.26040577  0.61187752  1  0.870672  0  0.215165  0.294238  0  3.970951  0
C  C133  1  0.20072398  0.81002546  0.68799450  1  -0.015245  0  -0.001859  0.036308  0  3.900902  0
C  C134  1  0.12186340  0.73721822  0.71770655  1  -0.022073  0  -0.086868  -0.110947  0  3.977759  0
C  C135  1  0.02049754  0.67185062  0.69454509  1  -0.072682  0  -0.074799  -0.098363  0  3.953116  0
C  C136  1  0.99670193  0.67868646  0.64053256  1  0.095316  0  0.003559  0.040604  0  4.100279  0
C  C137  1  0.07259376  0.75303556  0.61051473  1  -0.06405  0  -0.063438  -0.075377  0  3.913644  0
C  C138  1  0.17378347  0.81788165  0.63445538  1  0.071013  0  -0.086092  -0.113985  0  3.970872  0
C  C139  1  0.90350059  0.60334651  0.61642122  1  0.83334  0  0.213532  0.300537  0  3.975467  0
C  C140  1  0.30231893  0.89821177  0.76983475  1  -0.04666  0  0.004739  0.053469  0  3.902528  0
C  C141  1  0.39822213  0.86939674  0.80887536  1  -0.058637  0  -0.086838  -0.119931  0  3.967346  0
C  C142  1  0.37918257  0.90264659  0.85997340  1  -0.003301  0  -0.07523  -0.111629  0  3.984801  0
C  C143  1  0.26332448  0.96663965  0.87230510  1  0.092262  0  0.001618  0.032931  0  4.103868  0
C  C144  1  0.16605129  0.99570759  0.83336987  1  -0.089258  0  -0.06747  -0.079497  0  3.915126  0
C  C145  1  0.18634162  0.96101139  0.78270947  1  0.056818  0  -0.084174  -0.12362  0  3.975935  0
C  C146  1  0.24536692  0.00279154  0.92416731  1  0.861838  0  0.217613  0.29997  0  3.954766  0
C  C147  1  0.95991592  0.66020444  0.03503271  1  1.641585  0  0.283845  0.511749  0  4.046325  0
S  S148  1  0.93637640  0.23986491  0.92496285  1  3.269983  0  0.482198  1.010916  0  6.373932  0
S  S149  1  0.43638580  0.26013469  0.42496751  1  3.27009  0  0.482166  1.010558  0  6.374396  0
S  S150  1  0.56360922  0.73986936  0.57503004  1  3.270109  0  0.482231  1.010691  0  6.373783  0
S  S151  1  0.06362482  0.76012261  0.07503551  1  3.270155  0  0.482148  1.010565  0  6.374126  0
N  N152  1  0.76720404  0.96755616  0.03315839  1  -1.177241  0  -0.33719  -0.361429  0  3.235899  0
N  N153  1  0.16574919  0.46506590  0.40246917  1  -1.1883  0  -0.334192  -0.393037  0  3.131907  0
N  N154  1  0.44459774  0.66119241  0.40934046  1  -1.190561  0  -0.344192  -0.38063  0  3.304988  0
N  N155  1  0.26721014  0.53245508  0.53315468  1  -1.177797  0  -0.337332  -0.361636  0  3.236207  0
N  N156  1  0.66574372  0.03493729  0.90246173  1  -1.188742  0  -0.333981  -0.392973  0  3.132141  0
N  N157  1  0.94457821  0.83879471  0.90934084  1  -1.190987  0  -0.344158  -0.38062  0  3.305118  0
N  N158  1  0.73279216  0.46754318  0.46684796  1  -1.177509  0  -0.337205  -0.361425  0  3.236072  0
N  N159  1  0.33425736  0.96506345  0.09752498  1  -1.187674  0  -0.334187  -0.393125  0  3.131632  0
N  N160  1  0.05539105  0.16119777  0.09065772  1  -1.190657  0  -0.344217  -0.380614  0  3.304979  0
N  N161  1  0.23278799  0.03244871  0.96684691  1  -1.177848  0  -0.337266  -0.361568  0  3.236022  0
N  N162  1  0.83425298  0.53495468  0.59752259  1  -1.188508  0  -0.334091  -0.393215  0  3.132037  0
N  N163  1  0.55541385  0.33880172  0.59066262  1  -1.190873  0  -0.344115  -0.380578  0  3.305132  0
O  O164  1  0.56486441  0.21529957  0.28577371  1  -1.142619  0  -0.389375  -0.520841  0  2.220085  0
O  O165  1  0.03065041  0.20934097  0.88315407  1  -1.3326  0  -0.336824  -0.58095  0  2.302808  0
O  O166  1  0.91448113  0.15129727  0.96247564  1  -1.308359  0  -0.350397  -0.586029  0  2.395294  0
O  O167  1  0.81590012  0.30235566  0.90820139  1  -1.310408  0  -0.354351  -0.556006  0  2.151967  0
O  O168  1  0.06486713  0.28469772  0.78576873  1  -1.142643  0  -0.38943  -0.520831  0  2.220096  0
O  O169  1  0.53065008  0.29066992  0.38315803  1  -1.332565  0  -0.336767  -0.580802  0  2.302909  0
O  O170  1  0.41448456  0.34869941  0.46248113  1  -1.308162  0  -0.350467  -0.586017  0  2.395353  0
O  O171  1  0.31591528  0.19763911  0.40820785  1  -1.310647  0  -0.354353  -0.55592  0  2.152113  0
O  O172  1  0.93514132  0.71530385  0.21423045  1  -1.142745  0  -0.389389  -0.5208  0  2.220098  0
O  O173  1  0.46935534  0.70935066  0.61684618  1  -1.332557  0  -0.336767  -0.580847  0  2.302935  0
O  O174  1  0.58549609  0.65129555  0.53752139  1  -1.307997  0  -0.350416  -0.585999  0  2.395321  0
O  O175  1  0.68409304  0.80236576  0.59178084  1  -1.310549  0  -0.354456  -0.556052  0  2.151759  0
O  O176  1  0.43512764  0.78469621  0.71423315  1  -1.142675  0  -0.38951  -0.520871  0  2.22012  0
O  O177  1  0.96936218  0.79065564  0.11684630  1  -1.332566  0  -0.33676  -0.580781  0  2.30285  0
O  O178  1  0.08551181  0.84868777  0.03751957  1  -1.308179  0  -0.350399  -0.586035  0  2.395353  0
O  O179  1  0.18410002  0.69763516  0.09179347  1  -1.310518  0  -0.354356  -0.555851  0  2.151979  0
F  F180  1  0.16102618  0.29452611  0.98238381  1  -0.621168  0  -0.10516  -0.198263  0  1.358328  0
F  F181  1  0.07199737  0.43137306  0.93695543  1  -0.620614  0  -0.096824  -0.188751  0  1.411534  0
F  F182  1  0.96823113  0.37240556  0.00687873  1  -0.619844  0  -0.101398  -0.184483  0  1.386849  0
F  F183  1  0.66104423  0.20548001  0.48239360  1  -0.621141  0  -0.105382  -0.198576  0  1.358163  0
F  F184  1  0.57203513  0.06863098  0.43695531  1  -0.620297  0  -0.096866  -0.188885  0  1.411374  0
F  F185  1  0.46825494  0.12757707  0.50687790  1  -0.619904  0  -0.101408  -0.184524  0  1.387394  0
F  F186  1  0.33891196  0.79452651  0.51763246  1  -0.621315  0  -0.105329  -0.198477  0  1.358552  0
F  F187  1  0.42799899  0.93138795  0.56303509  1  -0.620043  0  -0.096818  -0.188807  0  1.411279  0
F  F188  1  0.53169659  0.87237739  0.49310347  1  -0.619027  0  -0.101617  -0.184717  0  1.386464  0
F  F189  1  0.83894223  0.70544983  0.01762950  1  -0.621229  0  -0.105185  -0.198228  0  1.358694  0
F  F190  1  0.92800398  0.56860619  0.06305342  1  -0.619443  0  -0.096878  -0.188976  0  1.411523  0
F  F191  1  0.03172677  0.62757369  0.99311822  1  -0.61972  0  -0.101612  -0.184751  0  1.386692  0
