# generated using pymatgen
data_Zn5H22C36(N3O7)2
_symmetry_space_group_name_H-M   'P 1'
_cell_length_a   9.32155116
_cell_length_b   11.14041585
_cell_length_c   11.46072610
_cell_angle_alpha   70.68348404
_cell_angle_beta   67.14737261
_cell_angle_gamma   67.45742399
_symmetry_Int_Tables_number   1
_chemical_formula_structural   Zn5H22C36(N3O7)2
_chemical_formula_sum   'Zn5 H22 C36 N6 O14'
_cell_volume   989.53078476
_cell_formula_units_Z   1
loop_
 _symmetry_equiv_pos_site_id
 _symmetry_equiv_pos_as_xyz
  1  'x, y, z'
loop_
 _atom_site_type_symbol
 _atom_site_label
 _atom_site_symmetry_multiplicity
 _atom_site_fract_x
 _atom_site_fract_y
 _atom_site_fract_z
 _atom_site_occupancy
 _atom_site_hle17_bader_spin_density
 _atom_site_hle17_ddec_charge
 _atom_site_hle17_ddec_spin_density
 _atom_site_hle17_ddec_sum_bond_order
 _atom_site_hle17_magmom
 _atom_site_hse06_10hf_bader_spin_density
 _atom_site_hse06_10hf_ddec_charge
 _atom_site_hse06_10hf_ddec_spin_density
 _atom_site_hse06_10hf_ddec_sum_bond_order
 _atom_site_hse06_10hf_magmom
 _atom_site_hse06_bader_spin_density
 _atom_site_hse06_ddec_charge
 _atom_site_hse06_ddec_spin_density
 _atom_site_hse06_ddec_sum_bond_order
 _atom_site_hse06_magmom
 _atom_site_pbe_bader_spin_density
 _atom_site_pbe_cm5_charge
 _atom_site_pbe_ddec_charge
 _atom_site_pbe_ddec_spin_density
 _atom_site_pbe_ddec_sum_bond_order
 _atom_site_pbe_magmom
Zn  Zn0  1  0.99999985  0.00000017  0.50000099  1  0  1.186805  0  1.817715  0  0  1.040432  0  2.270592  0  0  1.087478  0  2.206129  0  0  0.658071  1.00716  0  2.315426  0
Zn  Zn1  1  0.85402958  0.75860391  0.52366334  1  0  1.109641  0  1.791996  0  0  0.930672  0  2.270174  0  0  0.976639  0  2.210187  0  0  0.710073  0.898225  0  2.311875  0
Zn  Zn2  1  0.14596905  0.24139656  0.47633590  1  0  1.109637  0  1.792016  0  0  0.930657  0  2.270201  0  0  0.976628  0  2.210214  0  0  0.710082  0.898214  0  2.311907  0
Zn  Zn3  1  0.63843005  0.98183495  0.72103235  1  0  1.105203  0  1.826069  0  0  0.926764  0  2.309819  0  0  0.972229  0  2.249229  0  0  0.708856  0.894782  0  2.351804  0
Zn  Zn4  1  0.36157091  0.01816553  0.27896790  1  0  1.105181  0  1.826104  0  0  0.926732  0  2.309877  0  0  0.972196  0  2.249285  0  0  0.708825  0.894753  0  2.351861  0
H  H5  1  0.73547712  0.00388739  0.48322247  1  0  0.430333  0  0.826878  0  0  0.405277  0  0.890955  0  0  0.414178  0  0.88152  0  0  0.31172  0.398625  0  0.898203  0
H  H6  1  0.26452303  0.99611209  0.51677749  1  0  0.43034  0  0.826876  0  0  0.40528  0  0.890961  0  0  0.414182  0  0.881523  0  0  0.311726  0.398628  0  0.898208  0
H  H7  1  0.00600656  0.54072033  0.31559464  1  0  0.115374  0  0.963287  0  0  0.123238  0  1.028006  0  0  0.126836  0  1.025087  0  0  0.104856  0.120629  0  1.03021  0
H  H8  1  0.99399119  0.45927615  0.68440617  1  0  0.115357  0  0.963285  0  0  0.123244  0  1.02798  0  0  0.12684  0  1.025063  0  0  0.104858  0.120634  0  1.030185  0
H  H9  1  0.99701843  0.45568076  0.14385959  1  0  0.087895  0  0.954177  0  0  0.100437  0  1.011052  0  0  0.102908  0  1.010572  0  0  0.099587  0.098644  0  1.011484  0
H  H10  1  0.00297744  0.54431770  0.85614030  1  0  0.087894  0  0.954197  0  0  0.100463  0  1.011029  0  0  0.102934  0  1.010548  0  0  0.099604  0.09867  0  1.01146  0
H  H11  1  0.77738545  0.56710150  0.04036251  1  0  0.081071  0  0.975279  0  0  0.090791  0  1.038746  0  0  0.092653  0  1.039287  0  0  0.095591  0.089427  0  1.03849  0
H  H12  1  0.22261167  0.43289996  0.95963601  1  0  0.081066  0  0.975257  0  0  0.090808  0  1.0387  0  0  0.092671  0  1.03924  0  0  0.0956  0.089445  0  1.038444  0
H  H13  1  0.55882225  0.77231850  0.10041398  1  0  0.113398  0  0.950969  0  0  0.122904  0  1.011965  0  0  0.125955  0  1.010365  0  0  0.106653  0.120624  0  1.013397  0
H  H14  1  0.44117684  0.22768395  0.89958360  1  0  0.113412  0  0.950988  0  0  0.122916  0  1.011982  0  0  0.125968  0  1.010381  0  0  0.10666  0.120636  0  1.013412  0
H  H15  1  0.40178683  0.68738628  0.61048552  1  0  0.101301  0  0.935033  0  0  0.11139  0  0.993146  0  0  0.114823  0  0.991083  0  0  0.102858  0.108856  0  0.994811  0
H  H16  1  0.59821252  0.31261221  0.38951589  1  0  0.101314  0  0.935023  0  0  0.111382  0  0.993166  0  0  0.114817  0  0.991101  0  0  0.102849  0.108848  0  0.99483  0
H  H17  1  0.32760551  0.48085002  0.39100161  1  0  0.097408  0  0.970897  0  0  0.10353  0  1.041132  0  0  0.106585  0  1.039319  0  0  0.099857  0.101092  0  1.043013  0
H  H18  1  0.67239313  0.51915044  0.60899675  1  0  0.097428  0  0.970922  0  0  0.103551  0  1.041146  0  0  0.106605  0  1.039334  0  0  0.099871  0.101113  0  1.043027  0
H  H19  1  0.70685191  0.02890993  0.04517898  1  0  0.101406  0  0.95801  0  0  0.108509  0  1.025824  0  0  0.112129  0  1.022796  0  0  0.104207  0.105907  0  1.028103  0
H  H20  1  0.29314940  0.97108956  0.95482148  1  0  0.101443  0  0.957944  0  0  0.108524  0  1.025802  0  0  0.112145  0  1.022773  0  0  0.104205  0.105922  0  1.028081  0
H  H21  1  0.19307770  0.97010101  0.78221517  1  0  0.100943  0  0.953186  0  0  0.108174  0  1.017535  0  0  0.111398  0  1.01566  0  0  0.102803  0.105693  0  1.019224  0
H  H22  1  0.80692326  0.02989947  0.21778508  1  0  0.10093  0  0.953197  0  0  0.108165  0  1.017544  0  0  0.111389  0  1.015668  0  0  0.102801  0.105683  0  1.019233  0
H  H23  1  0.74733567  0.42855380  0.81996954  1  0  0.102617  0  0.956266  0  0  0.11143  0  1.018333  0  0  0.114641  0  1.01662  0  0  0.107102  0.109053  0  1.019833  0
H  H24  1  0.25266412  0.57144668  0.18003107  1  0  0.102651  0  0.956193  0  0  0.111446  0  1.01828  0  0  0.114657  0  1.016566  0  0  0.107121  0.109069  0  1.019779  0
H  H25  1  0.37062250  0.74025625  0.00233696  1  0  0.098565  0  0.973455  0  0  0.106298  0  1.038679  0  0  0.109154  0  1.03749  0  0  0.103561  0.104189  0  1.039635  0
H  H26  1  0.62937729  0.25974423  0.99766365  1  0  0.098568  0  0.973444  0  0  0.106295  0  1.038671  0  0  0.10915  0  1.037482  0  0  0.10356  0.104186  0  1.039628  0
C  C27  1  0.65995389  0.76898835  0.24455382  1  0  0.139082  0  3.824157  0  0  0.134387  0  4.066412  0  0  0.13651  0  4.091257  0  0  0.0946  0.132895  0  4.049652  0
C  C28  1  0.34004438  0.23101311  0.75544521  1  0  0.139105  0  3.824196  0  0  0.134415  0  4.066423  0  0  0.136545  0  4.09127  0  0  0.094611  0.132919  0  4.049663  0
C  C29  1  0.78517782  0.70462802  0.30437596  1  0  0.137508  0  3.826254  0  0  0.135691  0  4.06508  0  0  0.13766  0  4.089998  0  0  0.095528  0.1342  0  4.048359  0
C  C30  1  0.21482271  0.29537046  0.69562334  1  0  0.13742  0  3.826356  0  0  0.135629  0  4.065163  0  0  0.137576  0  4.090109  0  0  0.095502  0.134149  0  4.048428  0
C  C31  1  0.91065512  0.59136391  0.26868544  1  0  -0.134003  0  3.737846  0  0  -0.153387  0  3.989206  0  0  -0.156114  0  4.009652  0  0  -0.088016  -0.151428  0  3.975314  0
C  C32  1  0.08934307  0.40863458  0.73131633  1  0  -0.133967  0  3.737754  0  0  -0.153384  0  3.989121  0  0  -0.156104  0  4.009576  0  0  -0.088027  -0.151427  0  3.975226  0
C  C33  1  0.90397464  0.54501511  0.17313404  1  0  -0.066582  0  3.764737  0  0  -0.082484  0  4.017364  0  0  -0.085018  0  4.040275  0  0  -0.093552  -0.080631  0  4.001585  0
C  C34  1  0.09602285  0.45498534  0.82686382  1  0  -0.066679  0  3.764706  0  0  -0.082597  0  4.017344  0  0  -0.085131  0  4.040252  0  0  -0.093602  -0.080743  0  4.001566  0
C  C35  1  0.77804463  0.60916279  0.11349472  1  0  -0.065005  0  3.775396  0  0  -0.080296  0  4.027194  0  0  -0.082535  0  4.050511  0  0  -0.093088  -0.078656  0  4.011252  0
C  C36  1  0.22194899  0.39083866  0.88650664  1  0  -0.064906  0  3.775213  0  0  -0.080214  0  4.026996  0  0  -0.082453  0  4.050314  0  0  -0.093078  -0.078574  0  4.011054  0
C  C37  1  0.65482651  0.72231136  0.14688796  1  0  -0.134351  0  3.732194  0  0  -0.152091  0  3.98054  0  0  -0.155053  0  4.001469  0  0  -0.087908  -0.150018  0  3.966503  0
C  C38  1  0.34517293  0.27769010  0.85310983  1  0  -0.134406  0  3.732208  0  0  -0.152146  0  3.98055  0  0  -0.155109  0  4.001478  0  0  -0.087917  -0.150073  0  3.966514  0
C  C39  1  0.18611566  0.69513063  0.50375628  1  0  0.669689  0  3.878333  0  0  0.620909  0  4.163992  0  0  0.656556  0  4.15563  0  0  0.217947  0.596693  0  4.168809  0
C  C40  1  0.81388450  0.30486885  0.49624368  1  0  0.669784  0  3.878279  0  0  0.620993  0  4.163943  0  0  0.65664  0  4.155581  0  0  0.217983  0.596778  0  4.168762  0
C  C41  1  0.34872677  0.59468346  0.50050092  1  0  -0.060016  0  3.7453  0  0  -0.036908  0  3.975963  0  0  -0.044642  0  3.999439  0  0  -0.015109  -0.031766  0  3.959983  0
C  C42  1  0.65127303  0.40531700  0.49949708  1  0  -0.060089  0  3.745324  0  0  -0.036964  0  3.975978  0  0  -0.044699  0  3.999455  0  0  -0.015112  -0.031822  0  3.959999  0
C  C43  1  0.44601252  0.60502531  0.56218028  1  0  -0.06193  0  3.718708  0  0  -0.087256  0  3.972017  0  0  -0.08824  0  3.993106  0  0  -0.083075  -0.086423  0  3.95764  0
C  C44  1  0.55398611  0.39497516  0.43781983  1  0  -0.061899  0  3.718726  0  0  -0.087217  0  3.972039  0  0  -0.088206  0  3.993135  0  0  -0.083071  -0.086384  0  3.957662  0
C  C45  1  0.40367642  0.48898577  0.43831879  1  0  -0.071182  0  3.73089  0  0  -0.096271  0  3.984531  0  0  -0.097259  0  4.006134  0  0  -0.086728  -0.095596  0  3.970274  0
C  C46  1  0.59632258  0.51101370  0.56168154  1  0  -0.071182  0  3.730881  0  0  -0.096278  0  3.984534  0  0  -0.097265  0  4.006136  0  0  -0.086741  -0.095602  0  3.970278  0
C  C47  1  0.88416781  0.00168319  0.79891464  1  0  0.678616  0  3.877473  0  0  0.63113  0  4.158173  0  0  0.666843  0  4.149651  0  0  0.225371  0.606661  0  4.16324  0
C  C48  1  0.11583358  0.99831930  0.20108657  1  0  0.678599  0  3.877546  0  0  0.631165  0  4.158196  0  0  0.666877  0  4.149671  0  0  0.225371  0.606697  0  4.16326  0
C  C49  1  0.94374707  0.00042473  0.90313513  1  0  -0.062155  0  3.74656  0  0  -0.036568  0  3.971278  0  0  -0.044368  0  3.994516  0  0  -0.01478  -0.031179  0  3.955278  0
C  C50  1  0.05625540  0.99957476  0.09686584  1  0  -0.062162  0  3.746579  0  0  -0.036613  0  3.971345  0  0  -0.044413  0  3.994583  0  0  -0.014763  -0.031226  0  3.955341  0
C  C51  1  0.83498187  0.01648662  0.02610413  1  0  -0.069598  0  3.736661  0  0  -0.094704  0  3.989862  0  0  -0.095432  0  4.010547  0  0  -0.084204  -0.094136  0  3.975664  0
C  C52  1  0.16501988  0.98351486  0.97389555  1  0  -0.069631  0  3.73659  0  0  -0.094737  0  3.989813  0  0  -0.095467  0  4.0105  0  0  -0.084215  -0.094166  0  3.975612  0
C  C53  1  0.10928173  0.98344387  0.87771525  1  0  -0.063041  0  3.721827  0  0  -0.087705  0  3.972363  0  0  -0.088557  0  3.993434  0  0  -0.084844  -0.08683  0  3.957827  0
C  C54  1  0.89071842  0.01655562  0.12228558  1  0  -0.062989  0  3.721882  0  0  -0.087658  0  3.972449  0  0  -0.08851  0  3.993518  0  0  -0.084825  -0.08678  0  3.957909  0
C  C55  1  0.63680869  0.69786590  0.79604248  1  0  0.675339  0  3.871047  0  0  0.625237  0  4.154557  0  0  0.661047  0  4.146015  0  0  0.228248  0.600695  0  4.159834  0
C  C56  1  0.36319110  0.30213458  0.20395727  1  0  0.675331  0  3.871001  0  0  0.625205  0  4.154549  0  0  0.661016  0  4.146007  0  0  0.228251  0.600665  0  4.159825  0
C  C57  1  0.56619109  0.59499489  0.90049864  1  0  -0.064714  0  3.749004  0  0  -0.042339  0  3.980297  0  0  -0.050074  0  4.003176  0  0  -0.012424  -0.037086  0  3.964793  0
C  C58  1  0.43380835  0.40500658  0.09950002  1  0  -0.064786  0  3.748954  0  0  -0.042433  0  3.980305  0  0  -0.05017  0  4.003186  0  0  -0.012466  -0.03718  0  3.9648  0
C  C59  1  0.63887316  0.45943056  0.89866725  1  0  -0.06597  0  3.723782  0  0  -0.089469  0  3.972152  0  0  -0.090261  0  3.992449  0  0  -0.078541  -0.089084  0  3.958761  0
C  C60  1  0.36112743  0.54057092  0.10133192  1  0  -0.065927  0  3.723718  0  0  -0.0894  0  3.972096  0  0  -0.090191  0  3.992392  0  0  -0.078493  -0.089014  0  3.958702  0
C  C61  1  0.42687721  0.63478223  0.00230906  1  0  -0.061908  0  3.722239  0  0  -0.083799  0  3.967165  0  0  -0.084441  0  3.987642  0  0  -0.077892  -0.083115  0  3.953211  0
C  C62  1  0.57312456  0.36521925  0.99768975  1  0  -0.061854  0  3.722078  0  0  -0.083731  0  3.967012  0  0  -0.084373  0  3.987489  0  0  -0.077867  -0.083047  0  3.953059  0
N  N63  1  0.55903052  0.87383996  0.30296780  1  0  -0.335919  0  3.27878  0  0  -0.265803  0  3.593552  0  0  -0.283499  0  3.60483  0  0  -0.246199  -0.253632  0  3.585573  0
N  N64  1  0.44097044  0.12616052  0.69703158  1  0  -0.335856  0  3.278696  0  0  -0.265743  0  3.593466  0  0  -0.283437  0  3.604737  0  0  -0.246187  -0.25357  0  3.585484  0
N  N65  1  0.61537030  0.87484584  0.39316950  1  0  -0.066433  0  2.992248  0  0  -0.068244  0  3.284121  0  0  -0.06201  0  3.296219  0  0  -0.10508  -0.072032  0  3.275837  0
N  N66  1  0.38462987  0.12515363  0.60682871  1  0  -0.066542  0  2.992272  0  0  -0.068354  0  3.284153  0  0  -0.06212  0  3.296249  0  0  -0.105104  -0.072142  0  3.275869  0
N  N67  1  0.75082787  0.77407285  0.39571913  1  0  -0.334734  0  3.279984  0  0  -0.264692  0  3.59126  0  0  -0.282368  0  3.602985  0  0  -0.245624  -0.252559  0  3.583245  0
N  N68  1  0.24917149  0.22592562  0.60428054  1  0  -0.334569  0  3.280138  0  0  -0.264544  0  3.59141  0  0  -0.282212  0  3.603142  0  0  -0.245566  -0.252415  0  3.583393  0
O  O69  1  0.15668723  0.80362353  0.53355679  1  0  -0.648554  0  2.075519  0  0  -0.586557  0  2.331531  0  0  -0.613891  0  2.317403  0  0  -0.31298  -0.567698  0  2.340856  0
O  O70  1  0.84331176  0.19637595  0.46644441  1  0  -0.648627  0  2.075511  0  0  -0.586628  0  2.331532  0  0  -0.613961  0  2.3174  0  0  -0.313021  -0.567768  0  2.340856  0
O  O71  1  0.08503786  0.66250951  0.47745834  1  0  -0.643285  0  2.039725  0  0  -0.567808  0  2.310949  0  0  -0.596464  0  2.29369  0  0  -0.324143  -0.547618  0  2.321949  0
O  O72  1  0.91496078  0.33749096  0.52254177  1  0  -0.643293  0  2.039725  0  0  -0.567811  0  2.310951  0  0  -0.596466  0  2.293689  0  0  -0.324135  -0.547621  0  2.321953  0
O  O73  1  0.98405371  0.99908014  0.68677762  1  0  -0.647372  0  2.111773  0  0  -0.583474  0  2.372663  0  0  -0.61126  0  2.358113  0  0  -0.311115  -0.563555  0  2.381989  0
O  O74  1  0.01594957  0.00092035  0.31322190  1  0  -0.647339  0  2.111817  0  0  -0.583471  0  2.372707  0  0  -0.611254  0  2.358151  0  0  -0.311129  -0.563553  0  2.382032  0
O  O75  1  0.73398479  0.00540534  0.83224485  1  0  -0.643974  0  2.049062  0  0  -0.568917  0  2.318454  0  0  -0.597144  0  2.300209  0  0  -0.325656  -0.54921  0  2.330491  0
O  O76  1  0.26601813  0.99459614  0.16775446  1  0  -0.643971  0  2.049077  0  0  -0.568924  0  2.318454  0  0  -0.597151  0  2.300206  0  0  -0.325638  -0.549218  0  2.330492  0
O  O77  1  0.57510436  0.81643168  0.81387509  1  0  -0.633463  0  2.083727  0  0  -0.561033  0  2.355612  0  0  -0.588989  0  2.338899  0  0  -0.311762  -0.541753  0  2.366827  0
O  O78  1  0.42489696  0.18356781  0.18612537  1  0  -0.633444  0  2.083711  0  0  -0.561007  0  2.355611  0  0  -0.588962  0  2.338897  0  0  -0.311759  -0.541727  0  2.366826  0
O  O79  1  0.75334791  0.65895699  0.69844363  1  0  -0.642376  0  2.074903  0  0  -0.567483  0  2.347252  0  0  -0.595406  0  2.329952  0  0  -0.309861  -0.547813  0  2.358823  0
O  O80  1  0.24665376  0.34104151  0.30155791  1  0  -0.6424  0  2.074913  0  0  -0.567464  0  2.347241  0  0  -0.595389  0  2.329942  0  0  -0.309877  -0.547796  0  2.358814  0
O  O81  1  0.78734403  0.94406916  0.54927357  1  0  -0.962286  0  2.00609  0  0  -0.859735  0  2.336751  0  0  -0.889496  0  2.293786  0  0  -0.555901  -0.838698  0  2.366603  0
O  O82  1  0.21265613  0.05593032  0.45072552  1  0  -0.962286  0  2.006113  0  0  -0.859731  0  2.336782  0  0  -0.889495  0  2.293818  0  0  -0.555896  -0.838694  0  2.366637  0
