# generated using pymatgen
data_H14Pb(C2O)4
_symmetry_space_group_name_H-M   'P 1'
_cell_length_a   4.75289245
_cell_length_b   7.31696710
_cell_length_c   15.50930949
_cell_angle_alpha   89.99648348
_cell_angle_beta   97.35436421
_cell_angle_gamma   90.00373775
_symmetry_Int_Tables_number   1
_chemical_formula_structural   H14Pb(C2O)4
_chemical_formula_sum   'H28 Pb2 C16 O8'
_cell_volume   534.92638559
_cell_formula_units_Z   2
loop_
 _symmetry_equiv_pos_site_id
 _symmetry_equiv_pos_as_xyz
  1  'x, y, z'
loop_
 _atom_site_type_symbol
 _atom_site_label
 _atom_site_symmetry_multiplicity
 _atom_site_fract_x
 _atom_site_fract_y
 _atom_site_fract_z
 _atom_site_occupancy
 _atom_site_pbe_bader_spin_density
 _atom_site_pbe_cm5_charge
 _atom_site_pbe_ddec_charge
 _atom_site_pbe_ddec_spin_density
 _atom_site_pbe_ddec_sum_bond_order
 _atom_site_pbe_magmom
H  H0  1  0.62027862  0.87228371  0.18130125  1  0  0.098627  0.115145  0  0.994743  0
H  H1  1  0.37965541  0.37225339  0.81865934  1  0  0.098683  0.115161  0  0.994648  0
H  H2  1  0.37990938  0.12760823  0.81875548  1  0  0.098757  0.115082  0  0.994693  0
H  H3  1  0.62001886  0.62763457  0.18124465  1  0  0.098827  0.115231  0  0.994721  0
H  H4  1  0.73325510  0.12869162  0.46101182  1  0  0.0835  0.107774  0  1.022161  0
H  H5  1  0.26680401  0.62873238  0.53901000  1  0  0.08348  0.107734  0  1.022095  0
H  H6  1  0.26680733  0.87109647  0.53902151  1  0  0.083493  0.107826  0  1.022225  0
H  H7  1  0.73326415  0.37105435  0.46098872  1  0  0.083591  0.107934  0  1.022324  0
H  H8  1  0.02090405  0.24988962  0.51906363  1  0  0.084539  0.111996  0  1.03386  0
H  H9  1  0.97918751  0.74994631  0.48093855  1  0  0.084664  0.112114  0  1.033891  0
H  H10  1  0.66862079  0.13243054  0.29272894  1  0  0.103405  0.124328  0  1.003002  0
H  H11  1  0.33162143  0.63252662  0.70723468  1  0  0.103335  0.12438  0  1.003039  0
H  H12  1  0.33136802  0.86744915  0.70721780  1  0  0.103505  0.124423  0  1.002947  0
H  H13  1  0.66836534  0.36735169  0.29283127  1  0  0.103453  0.124587  0  1.002895  0
H  H14  1  0.66897713  0.87089667  0.35122171  1  0  0.084044  0.109298  0  1.039159  0
H  H15  1  0.33100077  0.37089610  0.64878243  1  0  0.084021  0.10923  0  1.039206  0
H  H16  1  0.33107641  0.12890920  0.64878871  1  0  0.084058  0.109248  0  1.038979  0
H  H17  1  0.66890840  0.62891116  0.35121613  1  0  0.084081  0.109306  0  1.038884  0
H  H18  1  0.41411950  0.74990783  0.40323234  1  0  0.085803  0.112713  0  1.047734  0
H  H19  1  0.58584902  0.24996093  0.59676393  1  0  0.085803  0.112612  0  1.0479  0
H  H20  1  0.18998253  0.62888432  0.25944820  1  0  0.089035  0.081842  0  0.991823  0
H  H21  1  0.80996652  0.12885541  0.74057401  1  0  0.089006  0.081805  0  0.991577  0
H  H22  1  0.81000472  0.37102271  0.74052815  1  0  0.089097  0.081935  0  0.991629  0
H  H23  1  0.18999217  0.87105160  0.25946252  1  0  0.089041  0.081882  0  0.99136  0
H  H24  1  0.16284869  0.13003920  0.37911346  1  0  0.08767  0.077727  0  0.987737  0
H  H25  1  0.83719010  0.62998152  0.62088182  1  0  0.087623  0.077639  0  0.987771  0
H  H26  1  0.83710467  0.86970246  0.62086934  1  0  0.087935  0.078058  0  0.987688  0
H  H27  1  0.16287381  0.36975875  0.37911803  1  0  0.08788  0.078043  0  0.98769  0
Pb  Pb28  1  0.23888808  0.25041739  0.05739774  1  0  0.659627  1.162517  0  1.796704  0
Pb  Pb29  1  0.76130188  0.75029594  0.94262683  1  0  0.659668  1.162575  0  1.796941  0
C  C30  1  0.48575122  0.75001494  0.18131130  1  0  -0.166874  -0.309948  0  3.914286  0
C  C31  1  0.51418973  0.24999323  0.81868072  1  0  -0.166771  -0.309516  0  3.913861  0
C  C32  1  0.86964491  0.24987519  0.45925723  1  0  -0.24785  -0.363808  0  3.969854  0
C  C33  1  0.13041071  0.74990881  0.54075134  1  0  -0.24791  -0.363852  0  3.969855  0
C  C34  1  0.81353000  0.24997248  0.29506209  1  0  -0.168127  -0.314723  0  3.93082  0
C  C35  1  0.18645350  0.74991541  0.70494120  1  0  -0.168118  -0.314647  0  3.930866  0
C  C36  1  0.94624082  0.25023287  0.21147831  1  0  0.213595  0.620498  0  4.147689  0
C  C37  1  0.05374701  0.74991332  0.78852256  1  0  0.213667  0.620372  0  4.147418  0
C  C38  1  0.27247462  0.75024573  0.10013653  1  0  0.215071  0.625354  0  4.206634  0
C  C39  1  0.72748557  0.25018063  0.89985235  1  0  0.214767  0.624941  0  4.207407  0
C  C40  1  0.53082632  0.74992763  0.34658103  1  0  -0.2482  -0.370208  0  3.971609  0
C  C41  1  0.46915494  0.24993429  0.65341637  1  0  -0.24809  -0.369935  0  3.971854  0
C  C42  1  0.32832850  0.74996845  0.26202708  1  0  -0.1623  -0.063751  0  3.929636  0
C  C43  1  0.67164859  0.24994813  0.73797273  1  0  -0.162486  -0.063936  0  3.92977  0
C  C44  1  0.02243633  0.24990744  0.37838600  1  0  -0.168766  -0.072984  0  3.973736  0
C  C45  1  0.97757462  0.74987384  0.62161444  1  0  -0.168736  -0.07285  0  3.973763  0
O  O46  1  0.17842228  0.59901222  0.06708971  1  0  -0.299411  -0.613559  0  2.287652  0
O  O47  1  0.82174778  0.09894315  0.93283720  1  0  -0.29935  -0.613534  0  2.287693  0
O  O48  1  0.82000417  0.40158796  0.93306729  1  0  -0.29957  -0.613697  0  2.287955  0
O  O49  1  0.17978653  0.90166064  0.06697797  1  0  -0.299657  -0.61378  0  2.287606  0
O  O50  1  0.21538528  0.25059607  0.21587564  1  0  -0.289284  -0.539022  0  2.211198  0
O  O51  1  0.78460493  0.75006262  0.78412468  1  0  -0.289474  -0.539283  0  2.21092  0
O  O52  1  0.78981246  0.25006165  0.13743871  1  0  -0.301167  -0.604319  0  2.213267  0
O  O53  1  0.21019008  0.74981940  0.86256271  1  0  -0.301208  -0.603957  0  2.212501  0
