# generated using pymatgen
data_AgH13C13S2N3(OF)3
_symmetry_space_group_name_H-M   'P 1'
_cell_length_a   8.14256193
_cell_length_b   8.59033988
_cell_length_c   12.89593208
_cell_angle_alpha   87.33659817
_cell_angle_beta   75.79108506
_cell_angle_gamma   70.54004229
_symmetry_Int_Tables_number   1
_chemical_formula_structural   AgH13C13S2N3(OF)3
_chemical_formula_sum   'Ag2 H26 C26 S4 N6 O6 F6'
_cell_volume   823.87262382
_cell_formula_units_Z   2
loop_
 _symmetry_equiv_pos_site_id
 _symmetry_equiv_pos_as_xyz
  1  'x, y, z'
loop_
 _atom_site_type_symbol
 _atom_site_label
 _atom_site_symmetry_multiplicity
 _atom_site_fract_x
 _atom_site_fract_y
 _atom_site_fract_z
 _atom_site_occupancy
 _atom_site_hle17_bader_spin_density
 _atom_site_hle17_ddec_charge
 _atom_site_hle17_ddec_spin_density
 _atom_site_hle17_ddec_sum_bond_order
 _atom_site_hle17_magmom
 _atom_site_hse06_10hf_bader_spin_density
 _atom_site_hse06_10hf_ddec_charge
 _atom_site_hse06_10hf_ddec_spin_density
 _atom_site_hse06_10hf_ddec_sum_bond_order
 _atom_site_hse06_10hf_magmom
 _atom_site_hse06_bader_spin_density
 _atom_site_hse06_ddec_charge
 _atom_site_hse06_ddec_spin_density
 _atom_site_hse06_ddec_sum_bond_order
 _atom_site_hse06_magmom
 _atom_site_pbe_bader_spin_density
 _atom_site_pbe_cm5_charge
 _atom_site_pbe_ddec_charge
 _atom_site_pbe_ddec_spin_density
 _atom_site_pbe_ddec_sum_bond_order
 _atom_site_pbe_magmom
Ag  Ag0  1  0.78645589  0.39040779  0.37166376  1  0  0.547069  0  1.474148  0  0  0.421049  0  1.912554  0  0  0.44334  0  1.870822  0  0  0.496877  0.406392  0  1.940982  0
Ag  Ag1  1  0.21354311  0.60959129  0.62833663  1  0  0.547075  0  1.47418  0  0  0.421041  0  1.912602  0  0  0.443334  0  1.870868  0  0  0.496881  0.406385  0  1.941032  0
H  H2  1  0.89777124  0.46114362  0.13942160  1  0  0.054552  0  0.981154  0  0  0.061472  0  1.05588  0  0  0.063153  0  1.054185  0  0  0.101296  0.060241  0  1.057153  0
H  H3  1  0.10222598  0.53886040  0.86057891  1  0  0.054593  0  0.98113  0  0  0.061457  0  1.055905  0  0  0.063136  0  1.054212  0  0  0.101261  0.060226  0  1.057178  0
H  H4  1  0.82968984  0.68438016  0.00845173  1  0  0.099185  0  0.960271  0  0  0.110026  0  1.021555  0  0  0.112691  0  1.020877  0  0  0.101218  0.10809  0  1.022234  0
H  H5  1  0.17030271  0.31562633  0.99155176  1  0  0.099171  0  0.960205  0  0  0.110013  0  1.021506  0  0  0.112674  0  1.020828  0  0  0.101225  0.108076  0  1.022186  0
H  H6  1  0.59278635  0.95519012  0.07470085  1  0  0.098484  0  0.941123  0  0  0.107147  0  1.005064  0  0  0.110272  0  1.001898  0  0  0.106402  0.104852  0  1.007357  0
H  H7  1  0.40720919  0.04481514  0.92530299  1  0  0.098568  0  0.941028  0  0  0.10723  0  1.004961  0  0  0.110353  0  1.001797  0  0  0.106427  0.104934  0  1.007256  0
H  H8  1  0.43119402  0.99123655  0.26935028  1  0  0.111621  0  0.972071  0  0  0.12022  0  1.036472  0  0  0.123117  0  1.036019  0  0  0.101244  0.118119  0  1.036996  0
H  H9  1  0.56880541  0.00876500  0.73065461  1  0  0.111672  0  0.972069  0  0  0.120246  0  1.036492  0  0  0.123147  0  1.036027  0  0  0.10127  0.118148  0  1.037013  0
H  H10  1  0.54185087  0.83358132  0.46540383  1  0  0.103801  0  0.912502  0  0  0.125866  0  0.961927  0  0  0.126307  0  0.96279  0  0  0.102399  0.125529  0  0.961416  0
H  H11  1  0.45814600  0.16642023  0.53459914  1  0  0.10379  0  0.912543  0  0  0.125872  0  0.961953  0  0  0.126313  0  0.962819  0  0  0.102417  0.125538  0  0.961439  0
H  H12  1  0.51627800  0.63976504  0.45754128  1  0  0.086682  0  0.986303  0  0  0.098896  0  1.064307  0  0  0.101838  0  1.059995  0  0  0.09036  0.096635  0  1.067607  0
H  H13  1  0.48372310  0.36023527  0.54246028  1  0  0.086714  0  0.986235  0  0  0.098907  0  1.064284  0  0  0.101852  0  1.059966  0  0  0.090363  0.096647  0  1.067584  0
H  H14  1  0.75280560  0.02803229  0.58330872  1  0  0.07099  0  0.973291  0  0  0.087857  0  1.039224  0  0  0.087888  0  1.039874  0  0  0.101623  0.087788  0  1.038799  0
H  H15  1  0.24719467  0.97196679  0.41669224  1  0  0.070974  0  0.973264  0  0  0.087809  0  1.039244  0  0  0.087842  0  1.039896  0  0  0.101602  0.08774  0  1.038818  0
H  H16  1  0.76983685  0.22824012  0.59889938  1  0  0.080156  0  0.941287  0  0  0.097675  0  1.003054  0  0  0.097456  0  1.003904  0  0  0.104711  0.09771  0  1.002559  0
H  H17  1  0.23016385  0.77175772  0.40109923  1  0  0.080211  0  0.941303  0  0  0.097707  0  1.003091  0  0  0.09749  0  1.003944  0  0  0.104723  0.097743  0  1.002596  0
H  H18  1  0.86806753  0.90123647  0.43276934  1  0  0.099466  0  0.910099  0  0  0.116959  0  0.963101  0  0  0.118753  0  0.960845  0  0  0.128156  0.115562  0  0.964903  0
H  H19  1  0.13192936  0.09876136  0.56722910  1  0  0.099476  0  0.910072  0  0  0.116978  0  0.96305  0  0  0.118774  0  0.960788  0  0  0.128146  0.11558  0  0.964854  0
H  H20  1  0.02861305  0.72924461  0.24942317  1  0  0.145907  0  0.963255  0  0  0.154418  0  1.025296  0  0  0.157941  0  1.023801  0  0  0.108372  0.151855  0  1.026498  0
H  H21  1  0.97139400  0.27075323  0.75057676  1  0  0.145932  0  0.963217  0  0  0.154412  0  1.025294  0  0  0.157936  0  1.023795  0  0  0.108365  0.151851  0  1.026493  0
H  H22  1  0.37496124  0.69378450  0.01828500  1  0  0.124336  0  0.938958  0  0  0.140425  0  1.005179  0  0  0.142923  0  1.003427  0  0  0.089477  0.138618  0  1.006458  0
H  H23  1  0.62504326  0.30621333  0.98171300  1  0  0.124427  0  0.938903  0  0  0.140513  0  1.005123  0  0  0.143013  0  1.003371  0  0  0.08954  0.138707  0  1.006403  0
H  H24  1  0.18378577  0.62898379  0.04603116  1  0  0.11286  0  0.949876  0  0  0.132851  0  1.011953  0  0  0.134015  0  1.012149  0  0  0.088394  0.131961  0  1.011868  0
H  H25  1  0.81622001  0.37101405  0.95396742  1  0  0.112848  0  0.94988  0  0  0.132852  0  1.011945  0  0  0.134014  0  1.01214  0  0  0.088402  0.131965  0  1.011856  0
H  H26  1  0.20258031  0.78328656  0.95030443  1  0  0.119124  0  0.966996  0  0  0.133075  0  1.038542  0  0  0.135045  0  1.038106  0  0  0.086444  0.131667  0  1.038882  0
H  H27  1  0.79742202  0.21671375  0.04969306  1  0  0.119123  0  0.967019  0  0  0.133085  0  1.038567  0  0  0.135055  0  1.03813  0  0  0.086447  0.131673  0  1.038909  0
C  C28  1  0.79444309  0.58072459  0.16446394  1  0  0.116225  0  3.745534  0  0  0.086218  0  3.993817  0  0  0.092799  0  4.014382  0  0  0.036165  0.08196  0  3.979789  0
C  C29  1  0.20555414  0.41927943  0.83553812  1  0  0.116227  0  3.745519  0  0  0.086278  0  3.993799  0  0  0.092859  0  4.014362  0  0  0.036205  0.082019  0  3.979775  0
C  C30  1  0.75625867  0.70431528  0.09211434  1  0  -0.127515  0  3.759374  0  0  -0.140439  0  4.009514  0  0  -0.148574  0  4.03306  0  0  -0.089647  -0.135161  0  3.993565  0
C  C31  1  0.24373767  0.29569121  0.90788700  1  0  -0.127575  0  3.759381  0  0  -0.140515  0  4.009545  0  0  -0.148645  0  4.033085  0  0  -0.089663  -0.135234  0  3.993597  0
C  C32  1  0.62339606  0.85500513  0.12931809  1  0  0.014791  0  3.720071  0  0  -0.00597  0  3.972029  0  0  -0.001568  0  3.990564  0  0  -0.065332  -0.008544  0  3.959243  0
C  C33  1  0.37660074  0.14500013  0.87068477  1  0  0.014799  0  3.720051  0  0  -0.005942  0  3.972012  0  0  -0.001538  0  3.990542  0  0  -0.065334  -0.008516  0  3.959229  0
C  C34  1  0.53447187  0.87483594  0.23714240  1  0  -0.162584  0  3.676321  0  0  -0.176935  0  3.914842  0  0  -0.186205  0  3.938535  0  0  -0.085452  -0.170925  0  3.898923  0
C  C35  1  0.46552754  0.12516561  0.76286095  1  0  -0.162703  0  3.676414  0  0  -0.177087  0  3.914945  0  0  -0.186356  0  3.938637  0  0  -0.085538  -0.171077  0  3.899034  0
C  C36  1  0.57857267  0.74476653  0.30610447  1  0  0.275734  0  3.672674  0  0  0.278818  0  3.907803  0  0  0.287377  0  3.929432  0  0  0.12661  0.273142  0  3.893037  0
C  C37  1  0.42142420  0.25523502  0.69389851  1  0  0.275722  0  3.672718  0  0  0.278923  0  3.907717  0  0  0.287482  0  3.929349  0  0  0.126652  0.273246  0  3.892959  0
C  C38  1  0.48603496  0.76237715  0.42301887  1  0  -0.204051  0  3.681979  0  0  -0.246237  0  3.920544  0  0  -0.249131  0  3.932153  0  0  -0.160748  -0.244142  0  3.91256  0
C  C39  1  0.51396315  0.23762440  0.57698158  1  0  -0.204037  0  3.681865  0  0  -0.246248  0  3.920399  0  0  -0.249151  0  3.932013  0  0  -0.160774  -0.244157  0  3.912417  0
C  C40  1  0.71769219  0.15518945  0.55604464  1  0  0.007534  0  3.671841  0  0  -0.051153  0  3.929502  0  0  -0.047805  0  3.944001  0  0  -0.075935  -0.053138  0  3.91944  0
C  C41  1  0.28230471  0.84480839  0.44395535  1  0  0.007526  0  3.671778  0  0  -0.051133  0  3.929451  0  0  -0.047797  0  3.943958  0  0  -0.075922  -0.053122  0  3.919392  0
C  C42  1  0.87498161  0.01414813  0.39058498  1  0  0.145586  0  3.68757  0  0  0.104546  0  3.935603  0  0  0.116826  0  3.947954  0  0  0.082527  0.095918  0  3.927424  0
C  C43  1  0.12502164  0.98584971  0.60941477  1  0  0.145544  0  3.687513  0  0  0.104529  0  3.935488  0  0  0.116808  0  3.94784  0  0  0.082536  0.095898  0  3.92731  0
C  C44  1  0.97093404  0.99261523  0.27961269  1  0  -0.036955  0  3.82466  0  0  -0.023605  0  4.096629  0  0  -0.02396  0  4.116204  0  0  -0.017151  -0.023038  0  4.083302  0
C  C45  1  0.02907182  0.00737890  0.72038755  1  0  -0.037024  0  3.824749  0  0  -0.023685  0  4.09673  0  0  -0.024038  0  4.1163  0  0  -0.017177  -0.023107  0  4.083394  0
C  C46  1  0.04180123  0.84590128  0.21863576  1  0  -0.198218  0  3.641977  0  0  -0.230217  0  3.891737  0  0  -0.235065  0  3.910517  0  0  -0.092242  -0.227078  0  3.87906  0
C  C47  1  0.95820626  0.15409532  0.78136336  1  0  -0.198214  0  3.641996  0  0  -0.230195  0  3.891761  0  0  -0.235042  0  3.910546  0  0  -0.09225  -0.22706  0  3.879084  0
C  C48  1  0.13576340  0.86803477  0.11375735  1  0  0.314419  0  3.724887  0  0  0.321655  0  3.983587  0  0  0.331389  0  4.000942  0  0  0.110363  0.315261  0  3.971506  0
C  C49  1  0.86424022  0.13196554  0.88624149  1  0  0.314503  0  3.724917  0  0  0.321763  0  3.983602  0  0  0.331487  0  4.000981  0  0  0.110452  0.315371  0  3.971526  0
C  C50  1  0.22893414  0.73606362  0.02712899  1  0  -0.360723  0  3.699423  0  0  -0.442943  0  3.942337  0  0  -0.445899  0  3.948057  0  0  -0.242455  -0.440661  0  3.938314  0
C  C51  1  0.77107245  0.26393545  0.97286942  1  0  -0.360789  0  3.69946  0  0  -0.443049  0  3.942369  0  0  -0.446005  0  3.948094  0  0  -0.242529  -0.440767  0  3.938343  0
C  C52  1  0.60020372  0.64154200  0.76759086  1  0  0.592717  0  3.655397  0  0  0.525556  0  4.019528  0  0  0.55265  0  3.994077  0  0  0.288875  0.505852  0  4.03847  0
C  C53  1  0.39979137  0.35846078  0.23240615  1  0  0.59256  0  3.655513  0  0  0.52538  0  4.019678  0  0  0.552478  0  3.994222  0  0  0.288798  0.505679  0  4.038611  0
S  S54  1  0.03000027  0.14374645  0.20266944  1  0  0.198577  0  2.87756  0  0  0.187743  0  3.275709  0  0  0.191871  0  3.273926  0  0  0.188916  0.183916  0  3.277424  0
S  S55  1  0.96999746  0.85625262  0.79733115  1  0  0.19865  0  2.877591  0  0  0.187831  0  3.275723  0  0  0.19196  0  3.273937  0  0  0.188932  0.183999  0  3.27744  0
S  S56  1  0.76938272  0.60397480  0.63560534  1  0  1.131289  0  5.833193  0  0  1.030271  0  6.368746  0  0  1.074463  0  6.347961  0  0  0.486896  0.999891  0  6.382361  0
S  S57  1  0.23061798  0.39602304  0.36439327  1  0  1.131426  0  5.833057  0  0  1.030368  0  6.368649  0  0  1.074566  0  6.347858  0  0  0.486889  0.999985  0  6.382262  0
N  N58  1  0.70785325  0.59913698  0.26901343  1  0  -0.337287  0  3.281087  0  0  -0.256345  0  3.548731  0  0  -0.276057  0  3.565527  0  0  -0.341398  -0.243018  0  3.537053  0
N  N59  1  0.29214659  0.40086333  0.73098833  1  0  -0.337287  0  3.281209  0  0  -0.256393  0  3.548823  0  0  -0.276106  0  3.565622  0  0  -0.341381  -0.243063  0  3.537146  0
N  N60  1  0.80213962  0.15550441  0.44208995  1  0  -0.277925  0  3.233284  0  0  -0.191263  0  3.524314  0  0  -0.209538  0  3.53848  0  0  -0.351232  -0.179093  0  3.514599  0
N  N61  1  0.19785855  0.84449343  0.55790983  1  0  -0.277918  0  3.233246  0  0  -0.191263  0  3.52426  0  0  -0.209536  0  3.53843  0  0  -0.351233  -0.179091  0  3.514548  0
N  N62  1  0.14003662  0.02131474  0.09499598  1  0  -0.382566  0  2.845693  0  0  -0.352086  0  3.130637  0  0  -0.365304  0  3.143941  0  0  -0.314521  -0.343051  0  3.121612  0
N  N63  1  0.85996446  0.97868557  0.90500403  1  0  -0.382675  0  2.845761  0  0  -0.352209  0  3.130703  0  0  -0.365426  0  3.144015  0  0  -0.314582  -0.343171  0  3.121681  0
O  O64  1  0.70197350  0.51157977  0.57400365  1  0  -0.613956  0  2.086657  0  0  -0.569633  0  2.366098  0  0  -0.588959  0  2.350956  0  0  -0.330222  -0.556079  0  2.376111  0
O  O65  1  0.29802973  0.48841807  0.42599378  1  0  -0.613993  0  2.086584  0  0  -0.569645  0  2.366035  0  0  -0.58897  0  2.350887  0  0  -0.330233  -0.556093  0  2.376049  0
O  O66  1  0.06363192  0.49234839  0.33553577  1  0  -0.622586  0  2.063725  0  0  -0.583686  0  2.338278  0  0  -0.60292  0  2.323513  0  0  -0.342794  -0.57006  0  2.347873  0
O  O67  1  0.93636708  0.50765069  0.66446462  1  0  -0.622566  0  2.063788  0  0  -0.583663  0  2.338319  0  0  -0.602909  0  2.323586  0  0  -0.3428  -0.570038  0  2.347915  0
O  O68  1  0.75975680  0.76953007  0.59994617  1  0  -0.609953  0  2.006993  0  0  -0.583624  0  2.269437  0  0  -0.601519  0  2.256734  0  0  -0.33785  -0.57093  0  2.277737  0
O  O69  1  0.24024516  0.23046777  0.40005146  1  0  -0.610004  0  2.006989  0  0  -0.583658  0  2.269439  0  0  -0.601554  0  2.256734  0  0  -0.337838  -0.570965  0  2.277741  0
F  F70  1  0.58241898  0.49755209  0.80794483  1  0  -0.229024  0  1.22303  0  0  -0.180882  0  1.388114  0  0  -0.192341  0  1.377028  0  0  -0.087265  -0.172614  0  1.395958  0
F  F71  1  0.41757783  0.50244946  0.19205272  1  0  -0.229001  0  1.223123  0  0  -0.180831  0  1.388196  0  0  -0.192322  0  1.377139  0  0  -0.087269  -0.172563  0  1.396039  0
F  F72  1  0.64913620  0.71441165  0.84139914  1  0  -0.245483  0  1.210172  0  0  -0.201047  0  1.379158  0  0  -0.211015  0  1.365306  0  0  -0.098576  -0.193738  0  1.38889  0
F  F73  1  0.35085294  0.28559360  0.15859951  1  0  -0.245423  0  1.210136  0  0  -0.200954  0  1.379102  0  0  -0.210917  0  1.365247  0  0  -0.098541  -0.193647  0  1.38883  0
F  F74  1  0.43624651  0.74276728  0.75839339  1  0  -0.242327  0  1.236483  0  0  -0.206718  0  1.421274  0  0  -0.216275  0  1.407111  0  0  -0.094513  -0.199728  0  1.431254  0
F  F75  1  0.56375122  0.25722808  0.24159956  1  0  -0.242274  0  1.236469  0  0  -0.206686  0  1.421276  0  0  -0.216238  0  1.407112  0  0  -0.094462  -0.199698  0  1.431253  0
