# generated using pymatgen
data_ZnH3C4N3O2
_symmetry_space_group_name_H-M   'P 1'
_cell_length_a   13.55196921
_cell_length_b   13.55196020
_cell_length_c   23.03181183
_cell_angle_alpha   89.99999807
_cell_angle_beta   89.99994226
_cell_angle_gamma   89.99996783
_symmetry_Int_Tables_number   1
_chemical_formula_structural   ZnH3C4N3O2
_chemical_formula_sum   'Zn16 H48 C64 N48 O32'
_cell_volume   4229.92461774
_cell_formula_units_Z   16
loop_
 _symmetry_equiv_pos_site_id
 _symmetry_equiv_pos_as_xyz
  1  'x, y, z'
loop_
 _atom_site_type_symbol
 _atom_site_label
 _atom_site_symmetry_multiplicity
 _atom_site_fract_x
 _atom_site_fract_y
 _atom_site_fract_z
 _atom_site_occupancy
 _atom_site_pbe_bader_charge
 _atom_site_pbe_bader_spin_density
 _atom_site_pbe_cm5_charge
 _atom_site_pbe_ddec_charge
 _atom_site_pbe_ddec_spin_density
 _atom_site_pbe_ddec_sum_bond_order
 _atom_site_pbe_magmom
Zn  Zn0  1  0.91164414  0.01988615  0.56300147  1  1.241138  0  0.706175  0.673429  0  2.504448  0
Zn  Zn1  1  0.58836037  0.48011339  0.56300199  1  1.241115  0  0.706189  0.673429  0  2.504509  0
Zn  Zn2  1  0.41164315  0.98011490  0.93699910  1  1.241049  0  0.706212  0.67349  0  2.504353  0
Zn  Zn3  1  0.08835890  0.51988563  0.93699920  1  1.241141  0  0.706153  0.673358  0  2.504455  0
Zn  Zn4  1  0.98011355  0.08835666  0.93699764  1  1.241088  0  0.70617  0.673403  0  2.504407  0
Zn  Zn5  1  0.51988588  0.41164286  0.93699777  1  1.241117  0  0.706175  0.673441  0  2.504378  0
Zn  Zn6  1  0.01988723  0.58835619  0.56300302  1  1.241106  0  0.706138  0.673323  0  2.504461  0
Zn  Zn7  1  0.48011398  0.91164287  0.56300332  1  1.241096  0  0.706145  0.673313  0  2.504472  0
Zn  Zn8  1  0.08835699  0.98011279  0.43699728  1  1.241084  0  0.706127  0.673341  0  2.5044  0
Zn  Zn9  1  0.41164297  0.51988629  0.43699806  1  1.241136  0  0.706167  0.673437  0  2.504366  0
Zn  Zn10  1  0.58835724  0.01988626  0.06300312  1  1.241083  0  0.70615  0.673371  0  2.504477  0
Zn  Zn11  1  0.91164075  0.48011257  0.06300128  1  1.241111  0  0.706175  0.673414  0  2.504428  0
Zn  Zn12  1  0.01988684  0.91164080  0.06300024  1  1.241179  0  0.706189  0.673438  0  2.504378  0
Zn  Zn13  1  0.48011451  0.58835829  0.06300098  1  1.241102  0  0.706167  0.673393  0  2.504438  0
Zn  Zn14  1  0.98011463  0.41164348  0.43699703  1  1.241088  0  0.706171  0.673425  0  2.504352  0
Zn  Zn15  1  0.51988640  0.08835901  0.43699934  1  1.241122  0  0.706186  0.673483  0  2.504388  0
H  H16  1  0.86370528  0.97906253  0.76505896  1  0.086893  0  0.113857  0.135596  0  0.977189  0
H  H17  1  0.63629565  0.52093477  0.76505859  1  0.086921  0  0.113825  0.135574  0  0.977147  0
H  H18  1  0.36370370  0.02093486  0.73494077  1  0.08694  0  0.11384  0.13556  0  0.977104  0
H  H19  1  0.13629381  0.47906053  0.73494083  1  0.086877  0  0.113849  0.135603  0  0.977221  0
H  H20  1  0.02093724  0.13629465  0.73494044  1  0.086883  0  0.113847  0.135568  0  0.977161  0
H  H21  1  0.47906101  0.36370664  0.73494117  1  0.086892  0  0.113836  0.135565  0  0.97717  0
H  H22  1  0.97906425  0.63629363  0.76505979  1  0.086854  0  0.113833  0.135569  0  0.977209  0
H  H23  1  0.52093741  0.86370367  0.76506036  1  0.086854  0  0.113841  0.135563  0  0.977117  0
H  H24  1  0.13629511  0.02093493  0.23493979  1  0.086833  0  0.113838  0.135595  0  0.977229  0
H  H25  1  0.36370548  0.47906490  0.23494146  1  0.08691  0  0.113829  0.135586  0  0.977144  0
H  H26  1  0.63629448  0.97906408  0.26505928  1  0.08688  0  0.11383  0.135544  0  0.977178  0
H  H27  1  0.86370362  0.52093620  0.26505922  1  0.086854  0  0.11386  0.135607  0  0.977218  0
H  H28  1  0.97906388  0.86370355  0.26505918  1  0.086891  0  0.113839  0.135578  0  0.977198  0
H  H29  1  0.52093643  0.63629599  0.26505932  1  0.086899  0  0.113842  0.13555  0  0.977187  0
H  H30  1  0.02093540  0.36370531  0.23493982  1  0.086881  0  0.113848  0.135602  0  0.977217  0
H  H31  1  0.47906224  0.13629527  0.23494012  1  0.086907  0  0.113829  0.135523  0  0.977144  0
H  H32  1  0.70499196  0.92438857  0.60754426  1  0.234365  0  0.14789  0.137914  0  0.99379  0
H  H33  1  0.79500924  0.57561243  0.60754337  1  0.234379  0  0.14789  0.137912  0  0.993818  0
H  H34  1  0.20499082  0.07560964  0.89245426  1  0.234342  0  0.147878  0.137907  0  0.993826  0
H  H35  1  0.29500863  0.42438794  0.89245597  1  0.234359  0  0.147884  0.137903  0  0.993785  0
H  H36  1  0.07561177  0.29500746  0.89245560  1  0.234353  0  0.147896  0.137929  0  0.993808  0
H  H37  1  0.42438842  0.20499013  0.89245680  1  0.234388  0  0.147888  0.137908  0  0.993763  0
H  H38  1  0.92439037  0.79500870  0.60754463  1  0.234364  0  0.147871  0.137848  0  0.993829  0
H  H39  1  0.57561156  0.70499156  0.60754473  1  0.234337  0  0.147894  0.137897  0  0.993823  0
H  H40  1  0.29500916  0.07561111  0.39245666  1  0.23439  0  0.147887  0.137922  0  0.993785  0
H  H41  1  0.20499263  0.42438872  0.39245582  1  0.23437  0  0.147882  0.137898  0  0.993794  0
H  H42  1  0.79500809  0.92438782  0.10754319  1  0.234376  0  0.147884  0.137917  0  0.993813  0
H  H43  1  0.70499175  0.57561099  0.10754408  1  0.234375  0  0.147882  0.137904  0  0.99378  0
H  H44  1  0.92438935  0.70499074  0.10754489  1  0.234344  0  0.147876  0.137885  0  0.993831  0
H  H45  1  0.57561271  0.79500807  0.10754369  1  0.234368  0  0.147893  0.137923  0  0.993771  0
H  H46  1  0.07561075  0.20499245  0.39245542  1  0.234359  0  0.14788  0.137896  0  0.993813  0
H  H47  1  0.42438882  0.29500885  0.39245662  1  0.234391  0  0.147888  0.137921  0  0.993791  0
H  H48  1  0.75655309  0.09916108  0.45939047  1  0.139725  0  0.14516  0.111272  0  0.967914  0
H  H49  1  0.74344716  0.40083773  0.45938960  1  0.139707  0  0.145151  0.111276  0  0.967894  0
H  H50  1  0.25655652  0.90084082  0.04060853  1  0.139754  0  0.145141  0.111286  0  0.967923  0
H  H51  1  0.24344486  0.59916049  0.04060984  1  0.139724  0  0.145148  0.111284  0  0.967893  0
H  H52  1  0.90083798  0.24344571  0.04060922  1  0.139662  0  0.145132  0.111252  0  0.967927  0
H  H53  1  0.59916079  0.25655460  0.04061061  1  0.139703  0  0.145152  0.111275  0  0.967875  0
H  H54  1  0.09915989  0.74344296  0.45939022  1  0.139721  0  0.145118  0.111241  0  0.967935  0
H  H55  1  0.40084003  0.75655463  0.45939100  1  0.139742  0  0.14513  0.111259  0  0.967934  0
H  H56  1  0.24344582  0.90083860  0.54061088  1  0.139693  0  0.145142  0.111254  0  0.967894  0
H  H57  1  0.25655544  0.59916121  0.54061001  1  0.139698  0  0.145139  0.111255  0  0.967926  0
H  H58  1  0.74344387  0.09916180  0.95939065  1  0.139641  0  0.145129  0.111243  0  0.967933  0
H  H59  1  0.75655479  0.40083845  0.95939064  1  0.139703  0  0.145148  0.11129  0  0.96792  0
H  H60  1  0.09916093  0.75655323  0.95939083  1  0.139742  0  0.145157  0.111284  0  0.967911  0
H  H61  1  0.40083812  0.74344655  0.95939031  1  0.139712  0  0.145155  0.111265  0  0.967896  0
H  H62  1  0.90083902  0.25655524  0.54060939  1  0.13966  0  0.145142  0.111266  0  0.967941  0
H  H63  1  0.59916183  0.24344578  0.54060992  1  0.139698  0  0.145154  0.111285  0  0.967904  0
C  C64  1  0.90076740  0.01221493  0.67439870  1  1.53461  0  0.190125  0.599512  0  4.208807  0
C  C65  1  0.59923396  0.48778534  0.67439704  1  1.534632  0  0.190202  0.599648  0  4.208796  0
C  C66  1  0.40076291  0.98778686  0.82560144  1  1.534599  0  0.190346  0.599819  0  4.208431  0
C  C67  1  0.09923490  0.51221220  0.82560197  1  1.534642  0  0.190329  0.599789  0  4.208719  0
C  C68  1  0.98778854  0.09923479  0.82559954  1  1.534519  0  0.190199  0.59959  0  4.208808  0
C  C69  1  0.51221108  0.40076695  0.82560055  1  1.534601  0  0.190216  0.599662  0  4.208726  0
C  C70  1  0.01221150  0.59923285  0.67440112  1  1.534509  0  0.190214  0.599616  0  4.208809  0
C  C71  1  0.48778805  0.90076621  0.67440142  1  1.534521  0  0.190243  0.599722  0  4.208589  0
C  C72  1  0.09923299  0.98778917  0.32559875  1  1.53454  0  0.190195  0.599686  0  4.208693  0
C  C73  1  0.40076716  0.51221286  0.32560084  1  1.534617  0  0.190251  0.599662  0  4.208679  0
C  C74  1  0.59923232  0.01221503  0.17439904  1  1.5346  0  0.190124  0.599538  0  4.208779  0
C  C75  1  0.90076032  0.48778600  0.17439852  1  1.534639  0  0.190303  0.599928  0  4.208234  0
C  C76  1  0.01221406  0.90076193  0.17439747  1  1.534598  0  0.190297  0.599832  0  4.208632  0
C  C77  1  0.48778931  0.59923863  0.17439777  1  1.534624  0  0.190345  0.599888  0  4.208403  0
C  C78  1  0.98778889  0.40076830  0.32559936  1  1.534569  0  0.190237  0.599669  0  4.208666  0
C  C79  1  0.51220865  0.09923641  0.32560081  1  1.534526  0  0.190308  0.599842  0  4.208536  0
C  C80  1  0.90929525  0.02690579  0.73798857  1  -0.05493  0  -0.078124  -0.165748  0  3.889979  0
C  C81  1  0.59070379  0.47309521  0.73798736  1  0.007113  0  -0.078129  -0.165779  0  3.890007  0
C  C82  1  0.40929752  0.97309083  0.76201243  1  0.007123  0  -0.078082  -0.165652  0  3.890237  0
C  C83  1  0.09070557  0.52690233  0.76201210  1  0.007125  0  -0.078101  -0.165741  0  3.889925  0
C  C84  1  0.97309701  0.09070540  0.76201228  1  0.033686  0  -0.078089  -0.165641  0  3.890001  0
C  C85  1  0.52690199  0.40929708  0.76201197  1  -0.028362  0  -0.078106  -0.165692  0  3.889972  0
C  C86  1  0.02690156  0.59070419  0.73798839  1  -0.028309  0  -0.078121  -0.165734  0  3.889959  0
C  C87  1  0.47309419  0.90929709  0.73798869  1  -0.028377  0  -0.078082  -0.16569  0  3.890327  0
C  C88  1  0.09070588  0.97309683  0.26201061  1  -0.028311  0  -0.078128  -0.165743  0  3.889986  0
C  C89  1  0.40929586  0.52690520  0.26201183  1  -0.028338  0  -0.078113  -0.16576  0  3.889965  0
C  C90  1  0.59070213  0.02690664  0.23798935  1  -0.054894  0  -0.078165  -0.165778  0  3.890093  0
C  C91  1  0.90929187  0.47309440  0.23798839  1  -0.054873  0  -0.078142  -0.165814  0  3.889893  0
C  C92  1  0.02690485  0.90929280  0.23798647  1  0.007126  0  -0.078142  -0.165837  0  3.889985  0
C  C93  1  0.47309545  0.59070481  0.23798721  1  0.007097  0  -0.078095  -0.165699  0  3.88993  0
C  C94  1  0.97309735  0.40929401  0.26201210  1  0.033692  0  -0.078082  -0.16571  0  3.889978  0
C  C95  1  0.52690325  0.09070259  0.26201353  1  0.033713  0  -0.078064  -0.165618  0  3.890128  0
C  C96  1  0.69479051  0.96611611  0.56774756  1  0.966276  0  0.160156  0.164416  0  3.894923  0
C  C97  1  0.80520928  0.53388562  0.56774667  1  0.966233  0  0.160165  0.164435  0  3.894847  0
C  C98  1  0.19479080  0.03388358  0.93225139  1  0.966165  0  0.160141  0.164395  0  3.894858  0
C  C99  1  0.30520932  0.46611548  0.93225266  1  0.966317  0  0.160171  0.164479  0  3.894895  0
C  C100  1  0.03388422  0.30520821  0.93225231  1  0.966542  0  0.160132  0.164348  0  3.894957  0
C  C101  1  0.46611590  0.19479085  0.93225305  1  0.966203  0  0.160175  0.164504  0  3.894824  0
C  C102  1  0.96611792  0.80520795  0.56774836  1  0.966099  0  0.160165  0.164474  0  3.894765  0
C  C103  1  0.53388556  0.69479157  0.56774761  1  0.966288  0  0.160112  0.164388  0  3.894893  0
C  C104  1  0.30520914  0.03388430  0.43225379  1  0.966217  0  0.160195  0.164478  0  3.894892  0
C  C105  1  0.19479185  0.46611627  0.43225251  1  0.966288  0  0.16015  0.164447  0  3.894902  0
C  C106  1  0.80520811  0.96611462  0.06774692  1  0.966181  0  0.160158  0.164413  0  3.894856  0
C  C107  1  0.69479107  0.53388345  0.06774739  1  0.966293  0  0.160171  0.164457  0  3.894907  0
C  C108  1  0.96611617  0.69478925  0.06774818  1  0.966278  0  0.160142  0.164413  0  3.894997  0
C  C109  1  0.53388523  0.80520882  0.06774657  1  0.96624  0  0.160165  0.164465  0  3.894869  0
C  C110  1  0.03388321  0.19479172  0.43225213  1  0.966544  0  0.160147  0.164349  0  3.895017  0
C  C111  1  0.46611556  0.30520884  0.43225330  1  0.966204  0  0.160175  0.164494  0  3.894894  0
C  C112  1  0.72091988  0.05548253  0.49285333  1  0.991662  0  0.149373  0.140437  0  3.974988  0
C  C113  1  0.77908106  0.44451775  0.49285287  1  0.99152  0  0.149317  0.140346  0  3.974959  0
C  C114  1  0.22091965  0.94451865  0.00714569  1  0.991611  0  0.149329  0.140317  0  3.975085  0
C  C115  1  0.27908179  0.55548119  0.00714698  1  0.991682  0  0.149349  0.140366  0  3.975041  0
C  C116  1  0.94451652  0.27907966  0.00714636  1  0.991639  0  0.149362  0.1404  0  3.974997  0
C  C117  1  0.55548304  0.22091918  0.00714691  1  0.991517  0  0.149323  0.140386  0  3.975014  0
C  C118  1  0.05548133  0.77907989  0.49285352  1  0.991602  0  0.149354  0.140357  0  3.975169  0
C  C119  1  0.44451853  0.72091992  0.49285384  1  0.99162  0  0.149353  0.140328  0  3.975086  0
C  C120  1  0.27908051  0.94451714  0.50714716  1  0.991647  0  0.14933  0.140378  0  3.975026  0
C  C121  1  0.22092080  0.55548340  0.50714674  1  0.991645  0  0.149369  0.140466  0  3.975026  0
C  C122  1  0.77907852  0.05548250  0.99285262  1  0.991631  0  0.149356  0.140424  0  3.975043  0
C  C123  1  0.72092081  0.44451628  0.99285307  1  0.991639  0  0.149324  0.140354  0  3.974985  0
C  C124  1  0.05548313  0.72091928  0.99285413  1  0.991677  0  0.149332  0.14038  0  3.974938  0
C  C125  1  0.44451661  0.77908050  0.99285315  1  0.991655  0  0.149349  0.140444  0  3.974978  0
C  C126  1  0.94451685  0.22092200  0.50714610  1  0.991629  0  0.149328  0.140368  0  3.975026  0
C  C127  1  0.55548259  0.27907975  0.50714752  1  0.991632  0  0.149368  0.140419  0  3.975072  0
N  N128  1  0.76742158  0.01401988  0.53875722  1  -1.252852  0  -0.354066  -0.31411  0  3.563495  0
N  N129  1  0.73258002  0.48597892  0.53875635  1  -1.252756  0  -0.354056  -0.314091  0  3.563643  0
N  N130  1  0.26742054  0.98598198  0.96124083  1  -1.252927  0  -0.35399  -0.313997  0  3.563459  0
N  N131  1  0.23257851  0.51401927  0.96124345  1  -1.252863  0  -0.35403  -0.314055  0  3.563519  0
N  N132  1  0.98597906  0.23257786  0.96124193  1  -1.252832  0  -0.354067  -0.314059  0  3.563436  0
N  N133  1  0.51402033  0.26742092  0.96124381  1  -1.252723  0  -0.354047  -0.314123  0  3.563559  0
N  N134  1  0.01401869  0.73258035  0.53875830  1  -1.252862  0  -0.353979  -0.313977  0  3.563504  0
N  N135  1  0.48598035  0.76742167  0.53875772  1  -1.252868  0  -0.354009  -0.313949  0  3.563371  0
N  N136  1  0.23257881  0.98597832  0.46124370  1  -1.252727  0  -0.354062  -0.314125  0  3.563612  0
N  N137  1  0.26742258  0.51402075  0.46124283  1  -1.252895  0  -0.354082  -0.314142  0  3.563485  0
N  N138  1  0.73257763  0.01401991  0.03875705  1  -1.252744  0  -0.354068  -0.314117  0  3.563512  0
N  N139  1  0.76742188  0.48597893  0.03875703  1  -1.252855  0  -0.354069  -0.314113  0  3.563549  0
N  N140  1  0.01402059  0.76742034  0.03875769  1  -1.252851  0  -0.354063  -0.314084  0  3.563557  0
N  N141  1  0.48598079  0.73257802  0.03875625  1  -1.252779  0  -0.35406  -0.314134  0  3.563572  0
N  N142  1  0.98597948  0.26742228  0.46124219  1  -1.25287  0  -0.354056  -0.314023  0  3.563467  0
N  N143  1  0.51402004  0.23257800  0.46124363  1  -1.252759  0  -0.354074  -0.314181  0  3.563591  0
N  N144  1  0.60821271  0.97782293  0.54122471  1  -0.798541  0  -0.252456  -0.18513  0  3.520186  0
N  N145  1  0.89178860  0.52217659  0.54122333  1  -0.798517  0  -0.252487  -0.18511  0  3.520226  0
N  N146  1  0.10820927  0.02217533  0.95877604  1  -0.798317  0  -0.252487  -0.185195  0  3.52014  0
N  N147  1  0.39178712  0.47782299  0.95877638  1  -0.798522  0  -0.252471  -0.185178  0  3.520227  0
N  N148  1  0.02217739  0.39178609  0.95877562  1  -0.798787  0  -0.252471  -0.185118  0  3.520261  0
N  N149  1  0.47782416  0.10821223  0.95877636  1  -0.79844  0  -0.252494  -0.185231  0  3.520202  0
N  N150  1  0.97782544  0.89179099  0.54122330  1  -0.798286  0  -0.252516  -0.185233  0  3.520182  0
N  N151  1  0.52217735  0.60821296  0.54122430  1  -0.798502  0  -0.252485  -0.18522  0  3.520146  0
N  N152  1  0.39178841  0.02217600  0.45877708  1  -0.79851  0  -0.252572  -0.185302  0  3.520383  0
N  N153  1  0.10821326  0.47782456  0.45877542  1  -0.798472  0  -0.252452  -0.185166  0  3.520084  0
N  N154  1  0.89178669  0.97782287  0.04122271  1  -0.798457  0  -0.252519  -0.185215  0  3.520298  0
N  N155  1  0.60821253  0.52217669  0.04122410  1  -0.798513  0  -0.252467  -0.185146  0  3.520217  0
N  N156  1  0.97782595  0.60821137  0.04122573  1  -0.798556  0  -0.252415  -0.185103  0  3.520209  0
N  N157  1  0.52217622  0.89178745  0.04122412  1  -0.79851  0  -0.252495  -0.185187  0  3.520182  0
N  N158  1  0.02217569  0.10821385  0.45877502  1  -0.798777  0  -0.252449  -0.185082  0  3.520221  0
N  N159  1  0.47782452  0.39178746  0.45877618  1  -0.798492  0  -0.25255  -0.185317  0  3.52035  0
N  N160  1  0.62478699  0.03530171  0.49309780  1  -0.79442  0  -0.251403  -0.188948  0  3.503604  0
N  N161  1  0.87521395  0.46469857  0.49309685  1  -0.794332  0  -0.251349  -0.188924  0  3.50365  0
N  N162  1  0.12478823  0.96469878  0.00690301  1  -0.794449  0  -0.251376  -0.188885  0  3.503811  0
N  N163  1  0.37521247  0.53530032  0.00690338  1  -0.794493  0  -0.251394  -0.188936  0  3.503708  0
N  N164  1  0.96469880  0.37521187  0.00690234  1  -0.794405  0  -0.251321  -0.188879  0  3.503677  0
N  N165  1  0.53530150  0.12478696  0.00690377  1  -0.794329  0  -0.251362  -0.188914  0  3.503639  0
N  N166  1  0.03530195  0.87521211  0.49309666  1  -0.794455  0  -0.251355  -0.188836  0  3.503875  0
N  N167  1  0.46469939  0.62478844  0.49309741  1  -0.79441  0  -0.251364  -0.188859  0  3.503666  0
N  N168  1  0.37521266  0.96469870  0.50690355  1  -0.794468  0  -0.251276  -0.188764  0  3.50371  0
N  N169  1  0.12478866  0.53530259  0.50690320  1  -0.794416  0  -0.25136  -0.188912  0  3.503575  0
N  N170  1  0.87521068  0.03530163  0.99309660  1  -0.794421  0  -0.251299  -0.188834  0  3.50379  0
N  N171  1  0.62478718  0.46469788  0.99309711  1  -0.794408  0  -0.251345  -0.188894  0  3.503573  0
N  N172  1  0.03530306  0.62478559  0.99309858  1  -0.794436  0  -0.251361  -0.188899  0  3.503528  0
N  N173  1  0.46469741  0.87521345  0.99309715  1  -0.794455  0  -0.251339  -0.188916  0  3.503622  0
N  N174  1  0.96469844  0.12478830  0.50690209  1  -0.794364  0  -0.251351  -0.188915  0  3.503603  0
N  N175  1  0.53530173  0.37521124  0.50690351  1  -0.794445  0  -0.251304  -0.18879  0  3.503772  0
O  O176  1  0.93933745  0.07812790  0.63995068  1  -1.162879  0  -0.354205  -0.558201  0  2.220457  0
O  O177  1  0.56066397  0.42187090  0.63995035  1  -1.162893  0  -0.354191  -0.558163  0  2.22055  0
O  O178  1  0.43933293  0.92187461  0.86004900  1  -1.162778  0  -0.354355  -0.558376  0  2.22037  0
O  O179  1  0.06066555  0.57812444  0.86004825  1  -1.162823  0  -0.354313  -0.558289  0  2.220474  0
O  O180  1  0.92187338  0.06066474  0.86004757  1  -1.162695  0  -0.354224  -0.558222  0  2.220373  0
O  O181  1  0.57812545  0.43933699  0.86004767  1  -1.162793  0  -0.354235  -0.558245  0  2.220376  0
O  O182  1  0.07812668  0.56066350  0.63995310  1  -1.162712  0  -0.354212  -0.558204  0  2.2204  0
O  O183  1  0.42187367  0.93933630  0.63995256  1  -1.162699  0  -0.354249  -0.558255  0  2.220372  0
O  O184  1  0.06066220  0.92187547  0.36004677  1  -1.162686  0  -0.354186  -0.558199  0  2.220371  0
O  O185  1  0.43933715  0.57812656  0.36004883  1  -1.162811  0  -0.354218  -0.558226  0  2.220439  0
O  O186  1  0.56066229  0.07812950  0.13995105  1  -1.16285  0  -0.354167  -0.55813  0  2.220538  0
O  O187  1  0.93933114  0.42187302  0.13995137  1  -1.162787  0  -0.354324  -0.558366  0  2.2203  0
O  O188  1  0.07812627  0.93933124  0.13995118  1  -1.162812  0  -0.354255  -0.558241  0  2.220482  0
O  O189  1  0.42187420  0.56066858  0.13995152  1  -1.16275  0  -0.354313  -0.558316  0  2.220289  0
O  O190  1  0.92187518  0.43933691  0.36004782  1  -1.162721  0  -0.354239  -0.558255  0  2.220346  0
O  O191  1  0.57812303  0.06066633  0.36004879  1  -1.16271  0  -0.354277  -0.558318  0  2.220302  0
O  O192  1  0.85781768  0.93647238  0.65515141  1  -1.175314  0  -0.322489  -0.550458  0  2.101646  0
O  O193  1  0.64218639  0.56352861  0.65514974  1  -1.175369  0  -0.322542  -0.550566  0  2.101539  0
O  O194  1  0.35781441  0.06353238  0.84484789  1  -1.175455  0  -0.322614  -0.550655  0  2.101497  0
O  O195  1  0.14218660  0.43646742  0.84484925  1  -1.17546  0  -0.322581  -0.550609  0  2.101557  0
O  O196  1  0.06353169  0.14218234  0.84484710  1  -1.175414  0  -0.322526  -0.550502  0  2.101597  0
O  O197  1  0.43646858  0.35781968  0.84484830  1  -1.175411  0  -0.322523  -0.55053  0  2.101614  0
O  O198  1  0.93646906  0.64218062  0.65515313  1  -1.175369  0  -0.322514  -0.550476  0  2.101641  0
O  O199  1  0.56353058  0.85781742  0.65515323  1  -1.175372  0  -0.322516  -0.55055  0  2.101579  0
O  O200  1  0.14218123  0.06353172  0.34484647  1  -1.175387  0  -0.322504  -0.550525  0  2.101588  0
O  O201  1  0.35781547  0.43646885  0.34484814  1  -1.175405  0  -0.322569  -0.550542  0  2.101524  0
O  O202  1  0.64218229  0.93647098  0.15515216  1  -1.175305  0  -0.322491  -0.550487  0  2.101599  0
O  O203  1  0.85781010  0.56353078  0.15515167  1  -1.175497  0  -0.322551  -0.55065  0  2.101432  0
O  O204  1  0.93646722  0.85781291  0.15515121  1  -1.175446  0  -0.322578  -0.550635  0  2.101516  0
O  O205  1  0.56353181  0.64218812  0.15515089  1  -1.175502  0  -0.322589  -0.550648  0  2.101572  0
O  O206  1  0.06353354  0.35781906  0.34484693  1  -1.175402  0  -0.322548  -0.550537  0  2.10153  0
O  O207  1  0.43646538  0.14218520  0.34484855  1  -1.175504  0  -0.322578  -0.550641  0  2.101553  0
