# generated using pymatgen
data_CdH10(C5O2)3
_symmetry_space_group_name_H-M   'P 1'
_cell_length_a   6.39833155
_cell_length_b   7.09854322
_cell_length_c   14.82193867
_cell_angle_alpha   102.94754243
_cell_angle_beta   89.92490360
_cell_angle_gamma   90.08258483
_symmetry_Int_Tables_number   1
_chemical_formula_structural   CdH10(C5O2)3
_chemical_formula_sum   'Cd2 H20 C30 O12'
_cell_volume   656.07856428
_cell_formula_units_Z   2
loop_
 _symmetry_equiv_pos_site_id
 _symmetry_equiv_pos_as_xyz
  1  'x, y, z'
loop_
 _atom_site_type_symbol
 _atom_site_label
 _atom_site_symmetry_multiplicity
 _atom_site_fract_x
 _atom_site_fract_y
 _atom_site_fract_z
 _atom_site_occupancy
 _atom_site_hle17_bader_spin_density
 _atom_site_hle17_ddec_charge
 _atom_site_hle17_ddec_spin_density
 _atom_site_hle17_ddec_sum_bond_order
 _atom_site_hle17_magmom
 _atom_site_hse06_10hf_bader_spin_density
 _atom_site_hse06_10hf_ddec_charge
 _atom_site_hse06_10hf_ddec_spin_density
 _atom_site_hse06_10hf_ddec_sum_bond_order
 _atom_site_hse06_10hf_magmom
 _atom_site_hse06_bader_spin_density
 _atom_site_hse06_ddec_charge
 _atom_site_hse06_ddec_spin_density
 _atom_site_hse06_ddec_sum_bond_order
 _atom_site_hse06_magmom
 _atom_site_pbe_bader_spin_density
 _atom_site_pbe_cm5_charge
 _atom_site_pbe_ddec_charge
 _atom_site_pbe_ddec_spin_density
 _atom_site_pbe_ddec_sum_bond_order
 _atom_site_pbe_magmom
Cd  Cd0  1  0.66991460  0.75056201  0.50003012  1  0  1.296623  0  1.558531  0  0  1.122079  0  2.002791  0  0  1.1793  0  1.942303  0  0  0.793449  1.080889  0  2.0447  0
Cd  Cd1  1  0.33011355  0.24947100  0.49996596  1  0  1.296695  0  1.558511  0  0  1.122191  0  2.002765  0  0  1.179398  0  1.942282  0  0  0.793507  1.081009  0  2.044674  0
H  H2  1  0.58598808  0.59504823  0.96704505  1  0  0.099753  0  0.967071  0  0  0.109902  0  1.029227  0  0  0.112686  0  1.027951  0  0  0.10569  0.107918  0  1.030223  0
H  H3  1  0.58647296  0.90451128  0.03278447  1  0  0.09979  0  0.966873  0  0  0.109757  0  1.029265  0  0  0.112535  0  1.027997  0  0  0.105608  0.107772  0  1.030224  0
H  H4  1  0.41400717  0.40490952  0.03295908  1  0  0.09994  0  0.96711  0  0  0.109977  0  1.029356  0  0  0.11276  0  1.028079  0  0  0.105756  0.107993  0  1.030357  0
H  H5  1  0.41353483  0.09547833  0.96721163  1  0  0.099684  0  0.967157  0  0  0.109712  0  1.029463  0  0  0.112491  0  1.028192  0  0  0.105597  0.107738  0  1.030413  0
H  H6  1  0.96425236  0.64405940  0.67970710  1  0  0.103012  0  0.942113  0  0  0.112472  0  1.003352  0  0  0.115883  0  1.001073  0  0  0.104926  0.109969  0  1.005138  0
H  H7  1  0.96289521  0.85631147  0.32026604  1  0  0.104131  0  0.941977  0  0  0.113148  0  1.004089  0  0  0.116595  0  1.0017  0  0  0.105014  0.110595  0  1.005947  0
H  H8  1  0.03577727  0.35593153  0.32031545  1  0  0.102951  0  0.94232  0  0  0.112463  0  1.003519  0  0  0.115867  0  1.00126  0  0  0.104962  0.109967  0  1.005292  0
H  H9  1  0.03705785  0.14368670  0.67974922  1  0  0.104177  0  0.941782  0  0  0.113222  0  1.003847  0  0  0.116649  0  1.0015  0  0  0.105078  0.110681  0  1.005675  0
H  H10  1  0.41710077  0.48248309  0.81439819  1  0  0.10906  0  0.950895  0  0  0.11663  0  1.015012  0  0  0.119553  0  1.014333  0  0  0.106813  0.114455  0  1.015771  0
H  H11  1  0.41700089  0.01740630  0.18541452  1  0  0.109083  0  0.950695  0  0  0.116766  0  1.014597  0  0  0.119701  0  1.013901  0  0  0.106943  0.114598  0  1.015298  0
H  H12  1  0.58290390  0.51750509  0.18559573  1  0  0.108955  0  0.951048  0  0  0.116578  0  1.015135  0  0  0.1195  0  1.014457  0  0  0.106815  0.114412  0  1.015864  0
H  H13  1  0.58298034  0.98258764  0.81458139  1  0  0.109078  0  0.950606  0  0  0.116771  0  1.014494  0  0  0.119693  0  1.013833  0  0  0.106931  0.114606  0  1.015187  0
H  H14  1  0.13494066  0.75772569  0.83355500  1  0  0.096856  0  0.973816  0  0  0.103717  0  1.04128  0  0  0.106333  0  1.041176  0  0  0.102224  0.101726  0  1.041712  0
H  H15  1  0.13409093  0.74221906  0.16642744  1  0  0.09695  0  0.973855  0  0  0.103515  0  1.041595  0  0  0.106059  0  1.041571  0  0  0.101846  0.101573  0  1.041975  0
H  H16  1  0.86507802  0.24225511  0.16646848  1  0  0.096773  0  0.973821  0  0  0.103613  0  1.041346  0  0  0.106238  0  1.04122  0  0  0.10217  0.101619  0  1.041769  0
H  H17  1  0.86589337  0.25775886  0.83359102  1  0  0.096979  0  0.973642  0  0  0.103514  0  1.041434  0  0  0.106058  0  1.041409  0  0  0.101803  0.101571  0  1.041813  0
H  H18  1  0.11235106  0.85253571  0.53398616  1  0  0.441787  0  0.858854  0  0  0.411073  0  0.921388  0  0  0.421968  0  0.905564  0  0  0.292466  0.403362  0  0.932564  0
H  H19  1  0.11220454  0.64927398  0.46437016  1  0  0.440826  0  0.86  0  0  0.410556  0  0.921783  0  0  0.421398  0  0.906021  0  0  0.29242  0.402881  0  0.932914  0
H  H20  1  0.88766626  0.14752214  0.46595932  1  0  0.441743  0  0.85893  0  0  0.411044  0  0.92145  0  0  0.421943  0  0.905622  0  0  0.292545  0.403332  0  0.932629  0
H  H21  1  0.88780026  0.35078383  0.53558071  1  0  0.441042  0  0.859732  0  0  0.410741  0  0.921573  0  0  0.421585  0  0.905815  0  0  0.292561  0.403059  0  0.932718  0
C  C22  1  0.67983710  0.55599877  0.73776409  1  0  -0.05977  0  3.74003  0  0  -0.036675  0  3.972363  0  0  -0.044692  0  3.995122  0  0  -0.013009  -0.031334  0  3.956867  0
C  C23  1  0.67907463  0.94411121  0.26208141  1  0  -0.057766  0  3.741016  0  0  -0.034556  0  3.972916  0  0  -0.042575  0  3.995682  0  0  -0.012135  -0.029223  0  3.957412  0
C  C24  1  0.32016286  0.44397350  0.26222879  1  0  -0.059601  0  3.73947  0  0  -0.036586  0  3.971824  0  0  -0.044603  0  3.994591  0  0  -0.012908  -0.031247  0  3.95633  0
C  C25  1  0.32090189  0.05591876  0.73793932  1  0  -0.057678  0  3.74038  0  0  -0.034668  0  3.972537  0  0  -0.042678  0  3.995293  0  0  -0.012262  -0.029341  0  3.957036  0
C  C26  1  0.57743105  0.48219549  0.64648785  1  0  0.66068  0  3.883124  0  0  0.607197  0  4.171942  0  0  0.642916  0  4.164794  0  0  0.211684  0.582881  0  4.175854  0
C  C27  1  0.57610625  0.01828771  0.35322195  1  0  0.659061  0  3.88602  0  0  0.605493  0  4.174578  0  0  0.641197  0  4.167524  0  0  0.210392  0.581198  0  4.178407  0
C  C28  1  0.42259394  0.51782155  0.35351865  1  0  0.660381  0  3.883052  0  0  0.607136  0  4.171632  0  0  0.642859  0  4.164484  0  0  0.211605  0.58282  0  4.17554  0
C  C29  1  0.42388281  0.98173082  0.64677325  1  0  0.659177  0  3.885433  0  0  0.605718  0  4.17393  0  0  0.641426  0  4.166867  0  0  0.210589  0.581421  0  4.177765  0
C  C30  1  0.88258646  0.63387750  0.74298941  1  0  -0.047475  0  3.694847  0  0  -0.07255  0  3.94586  0  0  -0.072581  0  3.965139  0  0  -0.075886  -0.072391  0  3.932787  0
C  C31  1  0.88161690  0.86630388  0.25695019  1  0  -0.048482  0  3.694735  0  0  -0.07352  0  3.94566  0  0  -0.073507  0  3.964851  0  0  -0.076658  -0.073349  0  3.93261  0
C  C32  1  0.11740411  0.36611204  0.25702019  1  0  -0.047665  0  3.69528  0  0  -0.072837  0  3.946409  0  0  -0.072874  0  3.965697  0  0  -0.076049  -0.07268  0  3.933337  0
C  C33  1  0.11832992  0.13370731  0.74306312  1  0  -0.048506  0  3.694678  0  0  -0.073498  0  3.945698  0  0  -0.073484  0  3.964877  0  0  -0.076572  -0.073318  0  3.932647  0
C  C34  1  0.66881086  0.60926903  0.90483720  1  0  -0.074454  0  3.715461  0  0  -0.097547  0  3.968231  0  0  -0.099114  0  3.988032  0  0  -0.076032  -0.096387  0  3.954722  0
C  C35  1  0.66885749  0.89047675  0.09501414  1  0  -0.074337  0  3.714784  0  0  -0.097495  0  3.96737  0  0  -0.099045  0  3.987233  0  0  -0.076073  -0.096333  0  3.95386  0
C  C36  1  0.33120159  0.39070608  0.09516745  1  0  -0.074697  0  3.715903  0  0  -0.097624  0  3.96868  0  0  -0.099194  0  3.988494  0  0  -0.076035  -0.096471  0  3.955173  0
C  C37  1  0.33115339  0.10948680  0.90498791  1  0  -0.074643  0  3.715461  0  0  -0.09781  0  3.968017  0  0  -0.09936  0  3.987874  0  0  -0.076153  -0.096652  0  3.9545  0
C  C38  1  0.87139738  0.68770202  0.91055107  1  0  -0.025295  0  3.736167  0  0  -0.009814  0  3.969489  0  0  -0.014783  0  3.992908  0  0  -0.011553  -0.006383  0  3.953652  0
C  C39  1  0.87119214  0.81198792  0.08935435  1  0  -0.025947  0  3.73686  0  0  -0.009874  0  3.969504  0  0  -0.014946  0  3.993078  0  0  -0.011377  -0.006343  0  3.9535  0
C  C40  1  0.12863066  0.31225998  0.08947375  1  0  -0.025169  0  3.735686  0  0  -0.009881  0  3.969266  0  0  -0.014878  0  3.99269  0  0  -0.011655  -0.006393  0  3.953378  0
C  C41  1  0.12882188  0.18798291  0.91063971  1  0  -0.02546  0  3.736656  0  0  -0.009375  0  3.96928  0  0  -0.014458  0  3.992825  0  0  -0.011261  -0.00585  0  3.953349  0
C  C42  1  0.97725079  0.69833861  0.82855169  1  0  -0.070498  0  3.707982  0  0  -0.091844  0  3.958221  0  0  -0.093538  0  3.979687  0  0  -0.076778  -0.090725  0  3.943888  0
C  C43  1  0.97655652  0.80157620  0.17138465  1  0  -0.069933  0  3.707894  0  0  -0.091246  0  3.958028  0  0  -0.092838  0  3.97951  0  0  -0.075905  -0.090202  0  3.943686  0
C  C44  1  0.02275384  0.30165090  0.17146464  1  0  -0.070191  0  3.707885  0  0  -0.091401  0  3.95805  0  0  -0.093093  0  3.97952  0  0  -0.076599  -0.090282  0  3.94373  0
C  C45  1  0.02344030  0.19840321  0.82862587  1  0  -0.070254  0  3.708712  0  0  -0.09154  0  3.958895  0  0  -0.093137  0  3.980382  0  0  -0.076104  -0.090483  0  3.94453  0
C  C46  1  0.57378028  0.54398547  0.81914537  1  0  -0.061461  0  3.703322  0  0  -0.085696  0  3.955362  0  0  -0.085686  0  3.974883  0  0  -0.076932  -0.08561  0  3.942264  0
C  C47  1  0.57352607  0.95593262  0.18068908  1  0  -0.062308  0  3.703333  0  0  -0.086576  0  3.955259  0  0  -0.086587  0  3.974795  0  0  -0.077423  -0.086463  0  3.942168  0
C  C48  1  0.42624001  0.45600126  0.18084907  1  0  -0.061398  0  3.703609  0  0  -0.08568  0  3.955572  0  0  -0.085671  0  3.975093  0  0  -0.077022  -0.085593  0  3.942485  0
C  C49  1  0.42645200  0.04405403  0.81931818  1  0  -0.06228  0  3.703895  0  0  -0.086531  0  3.955911  0  0  -0.086546  0  3.975442  0  0  -0.077462  -0.086408  0  3.942811  0
C  C50  1  0.98650230  0.74976099  0.99994697  1  0  0.380535  0  3.70975  0  0  0.362636  0  3.968083  0  0  0.384001  0  3.970947  0  0  0.161789  0.347895  0  3.966127  0
C  C51  1  0.01350543  0.25020104  0.00006841  1  0  0.380549  0  3.708857  0  0  0.362629  0  3.967372  0  0  0.384064  0  3.97013  0  0  0.161829  0.347808  0  3.965545  0
O  O52  1  0.67917334  0.48002870  0.57113422  1  0  -0.731697  0  2.118947  0  0  -0.655396  0  2.37258  0  0  -0.684996  0  2.356931  0  0  -0.334697  -0.634436  0  2.382604  0
O  O53  1  0.67725058  0.02167574  0.42872746  1  0  -0.730926  0  2.120165  0  0  -0.654131  0  2.373564  0  0  -0.683913  0  2.358144  0  0  -0.333487  -0.633045  0  2.383411  0
O  O54  1  0.32082666  0.52001723  0.42887811  1  0  -0.731678  0  2.118953  0  0  -0.655488  0  2.372515  0  0  -0.685092  0  2.356875  0  0  -0.334708  -0.634532  0  2.382531  0
O  O55  1  0.32269316  0.97835865  0.57127486  1  0  -0.731054  0  2.120037  0  0  -0.654308  0  2.373432  0  0  -0.684087  0  2.358008  0  0  -0.333574  -0.633216  0  2.383263  0
O  O56  1  0.39142967  0.41789319  0.64503740  1  0  -0.61398  0  1.989619  0  0  -0.544844  0  2.232859  0  0  -0.576217  0  2.225144  0  0  -0.306965  -0.522869  0  2.237389  0
O  O57  1  0.39001012  0.08185751  0.35450273  1  0  -0.614618  0  1.989978  0  0  -0.545223  0  2.232832  0  0  -0.576619  0  2.225175  0  0  -0.30707  -0.523234  0  2.237318  0
O  O58  1  0.60859221  0.58211238  0.35495031  1  0  -0.613717  0  1.989781  0  0  -0.544663  0  2.23291  0  0  -0.576042  0  2.225208  0  0  -0.306771  -0.522689  0  2.237433  0
O  O59  1  0.60997267  0.91815375  0.64550045  1  0  -0.614613  0  1.989982  0  0  -0.54519  0  2.232725  0  0  -0.576585  0  2.225064  0  0  -0.30699  -0.523206  0  2.237211  0
O  O60  1  0.18031214  0.74964689  0.99992200  1  0  -0.455678  0  1.92009  0  0  -0.414133  0  2.133529  0  0  -0.431267  0  2.132521  0  0  -0.255533  -0.402131  0  2.134183  0
O  O61  1  0.81969403  0.25030793  0.00008923  1  0  -0.455731  0  1.920211  0  0  -0.414186  0  2.133727  0  0  -0.431346  0  2.132689  0  0  -0.255483  -0.402155  0  2.134425  0
O  O62  1  0.01717466  0.75258360  0.49784625  1  0  -0.87358  0  1.835755  0  0  -0.803846  0  2.036778  0  0  -0.827226  0  2.000097  0  0  -0.603851  -0.787303  0  2.062324  0
O  O63  1  0.98283338  0.24752938  0.50206540  1  0  -0.873729  0  1.835463  0  0  -0.804016  0  2.036431  0  0  -0.827398  0  1.999738  0  0  -0.604041  -0.787472  0  2.061988  0
