# generated using pymatgen
data_AgH10C10(NO)3
_symmetry_space_group_name_H-M   'P 1'
_cell_length_a   5.87039714
_cell_length_b   10.20885070
_cell_length_c   10.20981137
_cell_angle_alpha   87.28765451
_cell_angle_beta   79.32882380
_cell_angle_gamma   79.32824686
_symmetry_Int_Tables_number   1
_chemical_formula_structural   AgH10C10(NO)3
_chemical_formula_sum   'Ag2 H20 C20 N6 O6'
_cell_volume   590.83874811
_cell_formula_units_Z   2
loop_
 _symmetry_equiv_pos_site_id
 _symmetry_equiv_pos_as_xyz
  1  'x, y, z'
loop_
 _atom_site_type_symbol
 _atom_site_label
 _atom_site_symmetry_multiplicity
 _atom_site_fract_x
 _atom_site_fract_y
 _atom_site_fract_z
 _atom_site_occupancy
 _atom_site_hle17_bader_spin_density
 _atom_site_hle17_ddec_charge
 _atom_site_hle17_ddec_spin_density
 _atom_site_hle17_ddec_sum_bond_order
 _atom_site_hle17_magmom
 _atom_site_hse06_10hf_bader_spin_density
 _atom_site_hse06_10hf_ddec_charge
 _atom_site_hse06_10hf_ddec_spin_density
 _atom_site_hse06_10hf_ddec_sum_bond_order
 _atom_site_hse06_10hf_magmom
 _atom_site_hse06_bader_spin_density
 _atom_site_hse06_ddec_charge
 _atom_site_hse06_ddec_spin_density
 _atom_site_hse06_ddec_sum_bond_order
 _atom_site_hse06_magmom
 _atom_site_pbe_bader_spin_density
 _atom_site_pbe_cm5_charge
 _atom_site_pbe_ddec_charge
 _atom_site_pbe_ddec_spin_density
 _atom_site_pbe_ddec_sum_bond_order
 _atom_site_pbe_magmom
Ag  Ag0  1  0.25002371  0.12278935  0.87722367  1  0  0.503496  0  1.370615  0  0  0.345539  0  1.792941  0  0  0.37728  0  1.748786  0  0  0.459134  0.323575  0  1.82334  0
Ag  Ag1  1  0.74995123  0.87721704  0.12278225  1  0  0.503511  0  1.370414  0  0  0.345553  0  1.792693  0  0  0.377303  0  1.748539  0  0  0.459153  0.323586  0  1.823092  0
H  H2  1  0.08448184  0.00457603  0.65469752  1  0  0.078235  0  0.963622  0  0  0.086561  0  1.030876  0  0  0.088723  0  1.029065  0  0  0.111804  0.084871  0  1.032341  0
H  H3  1  0.41557475  0.34529873  0.99539529  1  0  0.07846  0  0.963418  0  0  0.086702  0  1.030732  0  0  0.088876  0  1.028895  0  0  0.111878  0.085017  0  1.03218  0
H  H4  1  0.91552674  0.99540270  0.34530079  1  0  0.078157  0  0.963463  0  0  0.086487  0  1.030746  0  0  0.088656  0  1.028922  0  0  0.11176  0.084801  0  1.032199  0
H  H5  1  0.58443759  0.65468419  0.00459171  1  0  0.078332  0  0.96361  0  0  0.086613  0  1.030874  0  0  0.088786  0  1.029036  0  0  0.11188  0.08493  0  1.032322  0
H  H6  1  0.23656968  0.83421933  0.47436532  1  0  0.106932  0  0.977532  0  0  0.116055  0  1.040335  0  0  0.118426  0  1.040366  0  0  0.105416  0.114144  0  1.040796  0
H  H7  1  0.26348991  0.52565109  0.16576082  1  0  0.107163  0  0.977331  0  0  0.116084  0  1.040328  0  0  0.118456  0  1.040383  0  0  0.105491  0.114186  0  1.040757  0
H  H8  1  0.76341688  0.16577321  0.52563589  1  0  0.106918  0  0.977635  0  0  0.116071  0  1.040402  0  0  0.118443  0  1.040437  0  0  0.105467  0.114164  0  1.040854  0
H  H9  1  0.73654642  0.47434291  0.83422912  1  0  0.107195  0  0.977313  0  0  0.116148  0  1.040275  0  0  0.118522  0  1.04031  0  0  0.105518  0.114241  0  1.040726  0
H  H10  1  0.65316552  0.71276723  0.45237816  1  0  0.105584  0  0.936789  0  0  0.118462  0  0.992884  0  0  0.121025  0  0.990242  0  0  0.112375  0.116515  0  0.994802  0
H  H11  1  0.84690830  0.54761820  0.28719508  1  0  0.105621  0  0.937147  0  0  0.118491  0  0.993211  0  0  0.121043  0  0.990579  0  0  0.112472  0.116544  0  0.995133  0
H  H12  1  0.34682900  0.28723247  0.54761510  1  0  0.105578  0  0.936863  0  0  0.118449  0  0.99297  0  0  0.12101  0  0.990329  0  0  0.112381  0.116498  0  0.994887  0
H  H13  1  0.15312661  0.45237992  0.71278606  1  0  0.105621  0  0.936903  0  0  0.118485  0  0.99299  0  0  0.121038  0  0.990361  0  0  0.112431  0.116532  0  0.994911  0
H  H14  1  0.89494382  0.75736295  0.61968051  1  0  0.102053  0  0.96182  0  0  0.113268  0  1.019572  0  0  0.115301  0  1.020928  0  0  0.10623  0.111863  0  1.018703  0
H  H15  1  0.60511138  0.38031818  0.24262836  1  0  0.101799  0  0.961828  0  0  0.113127  0  1.019489  0  0  0.115166  0  1.020835  0  0  0.106188  0.111722  0  1.018621  0
H  H16  1  0.10504214  0.24264158  0.38032037  1  0  0.102065  0  0.96183  0  0  0.113288  0  1.019555  0  0  0.115317  0  1.020919  0  0  0.106287  0.111885  0  1.018687  0
H  H17  1  0.39487398  0.61969326  0.75737725  1  0  0.102024  0  0.961962  0  0  0.113282  0  1.019672  0  0  0.115319  0  1.021022  0  0  0.10626  0.111875  0  1.018807  0
H  H18  1  0.71173723  0.92631551  0.79697094  1  0  0.079249  0  0.971084  0  0  0.086757  0  1.042535  0  0  0.088857  0  1.040326  0  0  0.111239  0.085157  0  1.044274  0
H  H19  1  0.78832367  0.20300356  0.07367598  1  0  0.079269  0  0.971047  0  0  0.086628  0  1.042739  0  0  0.088724  0  1.040536  0  0  0.111241  0.085026  0  1.044479  0
H  H20  1  0.28823588  0.07368092  0.20303256  1  0  0.079122  0  0.970899  0  0  0.086717  0  1.042298  0  0  0.088813  0  1.040095  0  0  0.111199  0.085117  0  1.044036  0
H  H21  1  0.21167193  0.79699809  0.92632102  1  0  0.079203  0  0.971077  0  0  0.086575  0  1.042757  0  0  0.088672  0  1.040551  0  0  0.111216  0.084974  0  1.044499  0
C  C22  1  0.26136619  0.94543725  0.64373481  1  0  0.109532  0  3.708624  0  0  0.079368  0  3.949934  0  0  0.08559  0  3.971299  0  0  0.0408  0.075421  0  3.935339  0
C  C23  1  0.23866861  0.35628182  0.05456298  1  0  0.108807  0  3.708155  0  0  0.078713  0  3.949466  0  0  0.084931  0  3.970844  0  0  0.040473  0.074768  0  3.934865  0
C  C24  1  0.73860897  0.05455823  0.35626556  1  0  0.109359  0  3.708435  0  0  0.079199  0  3.949789  0  0  0.085418  0  3.971167  0  0  0.040823  0.075254  0  3.935189  0
C  C25  1  0.76133808  0.64371276  0.94544285  1  0  0.10909  0  3.708469  0  0  0.078964  0  3.94977  0  0  0.085182  0  3.971145  0  0  0.040498  0.075018  0  3.935176  0
C  C26  1  0.34834075  0.85237825  0.54323877  1  0  -0.123242  0  3.73166  0  0  -0.135553  0  3.980257  0  0  -0.143203  0  4.004006  0  0  -0.086826  -0.130582  0  3.964444  0
C  C27  1  0.15167365  0.45679720  0.14761914  1  0  -0.123172  0  3.731363  0  0  -0.135272  0  3.979889  0  0  -0.142932  0  4.003637  0  0  -0.08672  -0.130304  0  3.96409  0
C  C28  1  0.65164725  0.14762029  0.45676306  1  0  -0.12304  0  3.731817  0  0  -0.135404  0  3.980444  0  0  -0.143055  0  4.004198  0  0  -0.086823  -0.130434  0  3.964633  0
C  C29  1  0.84831453  0.54322125  0.85238594  1  0  -0.123365  0  3.731723  0  0  -0.135536  0  3.980331  0  0  -0.143193  0  4.004081  0  0  -0.086826  -0.130568  0  3.96452  0
C  C30  1  0.57939779  0.78348234  0.53241201  1  0  0.008132  0  3.693699  0  0  -0.009289  0  3.935892  0  0  -0.0049  0  3.953155  0  0  -0.058776  -0.011886  0  3.924101  0
C  C31  1  0.92063474  0.46760345  0.21651066  1  0  0.008015  0  3.695003  0  0  -0.009418  0  3.937192  0  0  -0.005018  0  3.954442  0  0  -0.058986  -0.012019  0  3.925412  0
C  C32  1  0.42060577  0.21652137  0.46758308  1  0  0.007988  0  3.693963  0  0  -0.009434  0  3.936187  0  0  -0.00504  0  3.953445  0  0  -0.0589  -0.012025  0  3.924394  0
C  C33  1  0.07935786  0.53240708  0.78349224  1  0  0.008193  0  3.693977  0  0  -0.009188  0  3.936144  0  0  -0.004789  0  3.953396  0  0  -0.058802  -0.011781  0  3.924347  0
C  C34  1  0.71387691  0.80879059  0.62443361  1  0  -0.120805  0  3.737864  0  0  -0.129846  0  3.981478  0  0  -0.137501  0  4.005001  0  0  -0.084445  -0.12489  0  3.965557  0
C  C35  1  0.78619413  0.37559310  0.19121134  1  0  -0.120419  0  3.738108  0  0  -0.129576  0  3.981726  0  0  -0.137231  0  4.005243  0  0  -0.084359  -0.124621  0  3.96581  0
C  C36  1  0.28611633  0.19121802  0.37556439  1  0  -0.120702  0  3.737765  0  0  -0.129734  0  3.981398  0  0  -0.137391  0  4.004926  0  0  -0.08438  -0.124778  0  3.96548  0
C  C37  1  0.21383047  0.62444061  0.80878933  1  0  -0.120906  0  3.73788  0  0  -0.130019  0  3.981539  0  0  -0.13767  0  4.005044  0  0  -0.084555  -0.125065  0  3.965624  0
C  C38  1  0.61391907  0.90219957  0.72333896  1  0  0.103068  0  3.702934  0  0  0.072403  0  3.942821  0  0  0.078362  0  3.964868  0  0  0.03642  0.068136  0  3.928751  0
C  C39  1  0.88614517  0.27665385  0.09780690  1  0  0.103017  0  3.702447  0  0  0.072423  0  3.942436  0  0  0.07838  0  3.964498  0  0  0.036465  0.068151  0  3.928367  0
C  C40  1  0.38608564  0.09780089  0.27667375  1  0  0.103025  0  3.702837  0  0  0.072253  0  3.942818  0  0  0.07822  0  3.964852  0  0  0.036328  0.067987  0  3.928747  0
C  C41  1  0.11384747  0.72335152  0.90220695  1  0  0.103146  0  3.703329  0  0  0.072541  0  3.943259  0  0  0.078484  0  3.965345  0  0  0.036534  0.068282  0  3.929169  0
N  N42  1  0.39132689  0.97027533  0.73266642  1  0  -0.295868  0  3.37084  0  0  -0.196568  0  3.636401  0  0  -0.218018  0  3.656711  0  0  -0.350933  -0.181946  0  3.622188  0
N  N43  1  0.10873549  0.26730971  0.02971698  1  0  -0.295734  0  3.370745  0  0  -0.196411  0  3.636302  0  0  -0.217857  0  3.656607  0  0  -0.350954  -0.18179  0  3.622091  0
N  N44  1  0.60866173  0.02971626  0.26733263  1  0  -0.295593  0  3.370893  0  0  -0.196276  0  3.636455  0  0  -0.217731  0  3.656777  0  0  -0.350907  -0.181653  0  3.62224  0
N  N45  1  0.89129486  0.73267125  0.97027403  1  0  -0.295698  0  3.3712  0  0  -0.196353  0  3.636688  0  0  -0.217801  0  3.656994  0  0  -0.350916  -0.181734  0  3.622484  0
N  N46  1  0.74999940  0.23210704  0.76789058  1  0  0.712964  0  4.123339  0  0  0.733463  0  4.427984  0  0  0.762112  0  4.433341  0  0  0.084314  0.714067  0  4.423972  0
N  N47  1  0.25000276  0.76789062  0.23210781  1  0  0.713067  0  4.123252  0  0  0.733571  0  4.42788  0  0  0.762217  0  4.433229  0  0  0.084366  0.714174  0  4.423875  0
O  O48  1  0.93894370  0.24083028  0.68692147  1  0  -0.496088  0  1.734558  0  0  -0.484824  0  1.966425  0  0  -0.498479  0  1.956617  0  0  -0.208462  -0.474784  0  1.972774  0
O  O49  1  0.56104970  0.31308189  0.75915723  1  0  -0.496145  0  1.734634  0  0  -0.484814  0  1.966438  0  0  -0.498505  0  1.95669  0  0  -0.208423  -0.474771  0  1.972781  0
O  O50  1  0.06105984  0.75916334  0.31308082  1  0  -0.496097  0  1.734524  0  0  -0.484806  0  1.966361  0  0  -0.498476  0  1.956577  0  0  -0.208438  -0.474767  0  1.972712  0
O  O51  1  0.43895484  0.68691383  0.24083900  1  0  -0.496161  0  1.734527  0  0  -0.484863  0  1.966374  0  0  -0.498546  0  1.95661  0  0  -0.208434  -0.474822  0  1.972723  0
O  O52  1  0.75001203  0.14156094  0.85845070  1  0  -0.529951  0  1.777036  0  0  -0.512488  0  2.035689  0  0  -0.527624  0  2.02162  0  0  -0.213063  -0.501591  0  2.045196  0
O  O53  1  0.24998637  0.85843761  0.14155393  1  0  -0.530004  0  1.77711  0  0  -0.512566  0  2.0358  0  0  -0.527693  0  2.021723  0  0  -0.213113  -0.501667  0  2.045313  0
