# generated using pymatgen
data_Al2H5C20(SO9)2
_symmetry_space_group_name_H-M   'P 1'
_cell_length_a   6.84904583
_cell_length_b   18.73545042
_cell_length_c   21.82829500
_cell_angle_alpha   86.89939522
_cell_angle_beta   86.41536221
_cell_angle_gamma   86.26990651
_symmetry_Int_Tables_number   1
_chemical_formula_structural   Al2H5C20(SO9)2
_chemical_formula_sum   'Al4 H10 C40 S4 O36'
_cell_volume   2786.08287948
_cell_formula_units_Z   2
loop_
 _symmetry_equiv_pos_site_id
 _symmetry_equiv_pos_as_xyz
  1  'x, y, z'
loop_
 _atom_site_type_symbol
 _atom_site_label
 _atom_site_symmetry_multiplicity
 _atom_site_fract_x
 _atom_site_fract_y
 _atom_site_fract_z
 _atom_site_occupancy
 _atom_site_pbe_bader_charge
 _atom_site_pbe_bader_spin_density
 _atom_site_pbe_cm5_charge
 _atom_site_pbe_ddec_charge
 _atom_site_pbe_ddec_spin_density
 _atom_site_pbe_ddec_sum_bond_order
 _atom_site_pbe_magmom
Al  Al0  1  0.78338376  0.26679321  0.25947713  1  2.504631  0  0.413723  1.642006  0  2.563874  0
Al  Al1  1  0.22565495  0.73723748  0.73981958  1  2.505987  0  0.410994  1.641621  0  2.558904  0
Al  Al2  1  0.28421695  0.26589862  0.25987115  1  2.498758  0  0.413365  1.639792  0  2.561382  0
Al  Al3  1  0.72500454  0.73612882  0.73889248  1  2.504543  0  0.412683  1.639798  0  2.564578  0
H  H4  1  0.01835238  0.15411976  0.86153534  1  0.680849  0  0.33186  0.398083  0  0.906227  0
H  H5  1  0.87306257  0.90174823  0.14893091  1  0.654015  0  0.322891  0.376791  0  0.924959  0
H  H6  1  0.66874544  0.06170908  0.82528947  1  0.643019  0  0.365305  0.402229  0  0.811793  0
H  H7  1  0.19407127  0.92606153  0.18119785  1  0.628648  0  0.366794  0.410404  0  0.811321  0
H  H8  1  0.27775862  0.90844752  0.84963638  1  0.653012  0  0.339834  0.397154  0  0.870764  0
H  H9  1  0.44034687  0.08537610  0.99860591  1  0.661491  0  0.313259  0.352903  0  0.998912  0
H  H10  1  0.55520559  0.17860966  0.23731123  1  0.630516  0  0.352868  0.436982  0  0.847017  0
H  H11  1  0.46764919  0.82365115  0.70804769  1  0.628864  0  0.34732  0.426085  0  0.862727  0
H  H12  1  0.02271801  0.35895160  0.24379170  1  0.608701  0  0.356012  0.438447  0  0.841081  0
H  H13  1  0.99599307  0.64422091  0.73089035  1  0.608952  0  0.357731  0.43977  0  0.838531  0
C  C14  1  0.53572702  0.35366479  0.17489040  1  1.681954  0  0.281311  0.713042  0  4.15817  0
C  C15  1  0.46978615  0.65502921  0.82656009  1  1.712236  0  0.284758  0.715608  0  4.153645  0
C  C16  1  0.50148881  0.34617442  0.34176920  1  1.709297  0  0.282483  0.704395  0  4.167641  0
C  C17  1  0.50696063  0.65209437  0.65973002  1  1.693779  0  0.277844  0.708915  0  4.168622  0
C  C18  1  0.02962272  0.17861874  0.34322416  1  1.73207  0  0.281151  0.700592  0  4.175997  0
C  C19  1  0.97977857  0.82487059  0.65477762  1  1.694725  0  0.27662  0.710187  0  4.167094  0
C  C20  1  0.06593949  0.18491561  0.17838535  1  1.690729  0  0.288522  0.726914  0  4.131696  0
C  C21  1  0.93920240  0.81849627  0.81989948  1  1.686483  0  0.284011  0.720299  0  4.151029  0
C  C22  1  0.88298438  0.03602679  0.95274069  1  0.044455  0  0.0233  -0.032208  0  3.54626  0
C  C23  1  0.10710881  0.97097682  0.04207441  1  0.037269  0  0.015252  -0.043102  0  3.640603  0
C  C24  1  0.09247829  0.05783450  0.96807960  1  -0.108904  0  0.009556  -0.130243  0  3.56777  0
C  C25  1  0.89778705  0.94899235  0.02793599  1  -0.065239  0  0.013862  -0.104555  0  3.518034  0
C  C26  1  0.07483975  0.13911836  0.12720766  1  0.296037  0  -0.008551  -0.123536  0  3.860268  0
C  C27  1  0.92614840  0.86387414  0.87125255  1  0.097398  0  -0.016193  -0.157424  0  3.894249  0
C  C28  1  0.82145731  0.03088089  0.02478255  1  -0.065785  0  0.019553  -0.096022  0  3.516914  0
C  C29  1  0.16826819  0.97580694  0.97189141  1  -0.093755  0  0.011537  -0.11239  0  3.58135  0
C  C30  1  0.03218801  0.05251201  0.03924194  1  0.105572  0  0.026202  0.121308  0  3.781551  0
C  C31  1  0.95726562  0.95454886  0.95692249  1  0.135222  0  0.025509  0.121337  0  3.78673  0
C  C32  1  0.06411250  0.10075934  0.08470499  1  -0.414786  0  -0.028274  -0.030014  0  4.07666  0
C  C33  1  0.92946678  0.90445172  0.91258989  1  -0.248583  0  -0.017188  -0.009229  0  4.07233  0
C  C34  1  0.98133453  0.87837793  0.60503245  1  0.166052  0  -0.007705  -0.152666  0  3.842646  0
C  C35  1  0.02682397  0.12514947  0.39330956  1  0.090425  0  0.0109  -0.116975  0  3.809562  0
C  C36  1  0.98888195  0.92586960  0.56416179  1  -0.314599  0  -0.006969  0.035862  0  4.263268  0
C  C37  1  0.01866316  0.07801137  0.43443036  1  -0.149651  0  -0.007485  0.020852  0  4.25448  0
C  C38  1  0.99833228  0.97793809  0.51970005  1  -0.061718  0  -0.002403  -0.01154  0  4.192147  0
C  C39  1  0.00862048  0.02608993  0.47901058  1  0.04195  0  0.006008  0.008829  0  4.187953  0
C  C40  1  0.53197422  0.40044423  0.12045589  1  0.339894  0  0.0051  -0.130971  0  3.811329  0
C  C41  1  0.47284179  0.60845439  0.88092849  1  0.182333  0  0.005118  -0.136948  0  3.814634  0
C  C42  1  0.52112732  0.44029543  0.07417869  1  -0.417181  0  0.002685  0.040553  0  4.234593  0
C  C43  1  0.48330004  0.56845487  0.92713034  1  -0.229997  0  0.006185  0.048037  0  4.232483  0
C  C44  1  0.50844839  0.48411166  0.02377159  1  -0.073616  0  0.012209  0.009972  0  4.166113  0
C  C45  1  0.49546416  0.52464833  0.97754817  1  0.042273  0  0.010451  0.004641  0  4.165862  0
C  C46  1  0.48952497  0.39344322  0.39197471  1  0.090011  0  0.007598  -0.125466  0  3.813294  0
C  C47  1  0.51616335  0.60494791  0.60965396  1  0.222773  0  -0.002517  -0.142725  0  3.831453  0
C  C48  1  0.49230115  0.43434149  0.43387496  1  -0.141843  0  -0.003765  0.028719  0  4.246904  0
C  C49  1  0.51190108  0.56449976  0.56745894  1  -0.359607  0  -0.004071  0.036268  0  4.252552  0
C  C50  1  0.49781357  0.47901230  0.47960230  1  -0.118221  0  0.006786  0.006609  0  4.177644  0
C  C51  1  0.50579911  0.52014913  0.52151875  1  0.110144  0  0.002298  -0.004127  0  4.180913  0
C  C52  1  0.78875610  0.07412642  0.89853966  1  1.530567  0  0.247396  0.596843  0  4.079718  0
C  C53  1  0.22092917  0.93960225  0.09422092  1  1.54893  0  0.238308  0.576569  0  4.100803  0
S  S54  1  0.20106437  0.13687695  0.93446316  1  3.118197  0  0.554048  1.149819  0  5.960659  0
S  S55  1  0.83463908  0.86239520  0.06223163  1  3.162939  0  0.543234  1.138357  0  6.008669  0
S  S56  1  0.37545719  0.92699976  0.93778076  1  3.130946  0  0.554333  1.16018  0  5.971412  0
S  S57  1  0.63378471  0.07909450  0.06915865  1  3.198695  0  0.540592  1.159874  0  6.070055  0
O  O58  1  0.34116150  0.32587504  0.32439268  1  -1.229534  0  -0.218674  -0.565418  0  2.278478  0
O  O59  1  0.66922249  0.67267851  0.67591434  1  -1.23029  0  -0.228307  -0.586063  0  2.27438  0
O  O60  1  0.70392850  0.33448241  0.19432099  1  -1.237183  0  -0.225638  -0.584218  0  2.27249  0
O  O61  1  0.30223872  0.67702004  0.80822864  1  -1.231346  0  -0.221641  -0.575019  0  2.27751  0
O  O62  1  0.89321426  0.20089015  0.20063402  1  -1.22804  0  -0.219898  -0.580956  0  2.29064  0
O  O63  1  0.11322296  0.80608172  0.79650036  1  -1.236606  0  -0.22659  -0.588571  0  2.277144  0
O  O64  1  0.67433673  0.33038175  0.31966202  1  -1.221474  0  -0.218368  -0.56817  0  2.29034  0
O  O65  1  0.33479531  0.66793182  0.68295975  1  -1.231228  0  -0.227154  -0.589456  0  2.286046  0
O  O66  1  0.86260668  0.20109035  0.32526871  1  -1.223294  0  -0.216888  -0.560656  0  2.28682  0
O  O67  1  0.14767333  0.80227260  0.67258880  1  -1.232492  0  -0.226934  -0.58413  0  2.282208  0
O  O68  1  0.36832836  0.33706333  0.19846118  1  -1.225591  0  -0.226824  -0.589881  0  2.282011  0
O  O69  1  0.63654023  0.66929901  0.80124123  1  -1.235677  0  -0.222596  -0.580129  0  2.288777  0
O  O70  1  0.54203807  0.22316651  0.25844601  1  -1.430375  0  -0.446613  -0.987428  0  2.122868  0
O  O71  1  0.46881863  0.78090006  0.73527209  1  -1.433283  0  -0.449185  -0.985421  0  2.128315  0
O  O72  1  0.19762233  0.19641035  0.32193537  1  -1.217829  0  -0.218991  -0.566049  0  2.282363  0
O  O73  1  0.81194863  0.80666225  0.67651316  1  -1.23487  0  -0.227508  -0.587318  0  2.281397  0
O  O74  1  0.22754194  0.20340146  0.19646406  1  -1.229219  0  -0.224174  -0.585087  0  2.27722  0
O  O75  1  0.78073417  0.79755772  0.80223742  1  -1.227362  0  -0.216106  -0.556972  0  2.283326  0
O  O76  1  0.02709657  0.30909148  0.25842208  1  -1.409781  0  -0.447302  -0.990727  0  2.135003  0
O  O77  1  0.98329762  0.69449876  0.73986629  1  -1.409918  0  -0.445578  -0.987491  0  2.13507  0
O  O78  1  0.10716622  0.19701290  0.96418414  1  -1.243947  0  -0.267412  -0.454346  0  2.116175  0
O  O79  1  0.41176166  0.12260703  0.93508574  1  -1.302482  0  -0.292397  -0.5098  0  2.31684  0
O  O80  1  0.16160617  0.13895721  0.86391416  1  -1.237953  0  -0.345814  -0.503596  0  2.162577  0
O  O81  1  0.67804536  0.83364429  0.03378668  1  -1.252372  0  -0.272542  -0.452963  0  2.207211  0
O  O82  1  0.02528099  0.82472445  0.06255080  1  -1.272424  0  -0.300598  -0.509703  0  2.13292  0
O  O83  1  0.76171701  0.88122608  0.13021630  1  -1.218425  0  -0.349837  -0.499344  0  2.231177  0
O  O84  1  0.78919267  0.13950337  0.88914752  1  -1.093127  0  -0.275783  -0.48609  0  2.17853  0
O  O85  1  0.72496513  0.03100929  0.85845952  1  -1.111115  0  -0.29614  -0.427622  0  2.319653  0
O  O86  1  0.38916996  0.91683690  0.09193113  1  -1.076356  0  -0.230884  -0.391951  0  2.249833  0
O  O87  1  0.10708795  0.94366638  0.14889094  1  -1.104974  0  -0.324147  -0.497731  0  2.238047  0
O  O88  1  0.54767928  0.95949135  0.95283368  1  -1.298327  0  -0.27673  -0.499947  0  2.387097  0
O  O89  1  0.34538416  0.85273119  0.94978998  1  -1.237484  0  -0.265676  -0.455569  0  2.143362  0
O  O90  1  0.34704265  0.94729624  0.86597110  1  -1.204363  0  -0.359592  -0.532877  0  2.149587  0
O  O91  1  0.63437377  0.04851375  0.13077424  1  -1.278724  0  -0.301408  -0.499541  0  2.117404  0
O  O92  1  0.66397942  0.15339143  0.05482564  1  -1.271459  0  -0.294356  -0.494322  0  2.11667  0
O  O93  1  0.44269418  0.05894069  0.04068285  1  -1.282929  0  -0.345951  -0.531943  0  2.455288  0
