# generated using pymatgen
data_H31PbC29N5O7
_symmetry_space_group_name_H-M   'P 1'
_cell_length_a   4.62638379
_cell_length_b   12.03730340
_cell_length_c   15.20081641
_cell_angle_alpha   71.80420470
_cell_angle_beta   86.88200764
_cell_angle_gamma   88.81723620
_symmetry_Int_Tables_number   1
_chemical_formula_structural   H31PbC29N5O7
_chemical_formula_sum   'H31 Pb1 C29 N5 O7'
_cell_volume   802.99431032
_cell_formula_units_Z   1
loop_
 _symmetry_equiv_pos_site_id
 _symmetry_equiv_pos_as_xyz
  1  'x, y, z'
loop_
 _atom_site_type_symbol
 _atom_site_label
 _atom_site_symmetry_multiplicity
 _atom_site_fract_x
 _atom_site_fract_y
 _atom_site_fract_z
 _atom_site_occupancy
 _atom_site_hle17_bader_spin_density
 _atom_site_hle17_ddec_charge
 _atom_site_hle17_ddec_spin_density
 _atom_site_hle17_ddec_sum_bond_order
 _atom_site_hle17_magmom
 _atom_site_hse06_10hf_bader_spin_density
 _atom_site_hse06_10hf_ddec_charge
 _atom_site_hse06_10hf_ddec_spin_density
 _atom_site_hse06_10hf_ddec_sum_bond_order
 _atom_site_hse06_10hf_magmom
 _atom_site_hse06_bader_spin_density
 _atom_site_hse06_ddec_charge
 _atom_site_hse06_ddec_spin_density
 _atom_site_hse06_ddec_sum_bond_order
 _atom_site_hse06_magmom
 _atom_site_pbe_bader_spin_density
 _atom_site_pbe_cm5_charge
 _atom_site_pbe_ddec_charge
 _atom_site_pbe_ddec_spin_density
 _atom_site_pbe_ddec_sum_bond_order
 _atom_site_pbe_magmom
H  H0  1  0.92959031  0.39990108  0.32097388  1  0  0.306731  0  0.920948  0  0  0.284759  0  0.992574  0  0  0.292894  0  0.985822  0  0  0.307214  0.279026  0  0.997403  0
H  H1  1  0.91798122  0.22469653  0.40854516  1  0  0.312654  0  0.914812  0  0  0.291898  0  0.983759  0  0  0.300442  0  0.976168  0  0  0.307944  0.285957  0  0.988968  0
H  H2  1  0.78204346  0.78636724  0.66208691  1  0  0.313234  0  0.923709  0  0  0.29198  0  0.993381  0  0  0.300571  0  0.985775  0  0  0.305492  0.28601  0  0.998644  0
H  H3  1  0.75841651  0.60554004  0.74464472  1  0  0.307837  0  0.910584  0  0  0.287142  0  0.980878  0  0  0.295613  0  0.973338  0  0  0.307347  0.281194  0  0.986231  0
H  H4  1  0.26310979  0.51372483  0.47477337  1  0  0.086098  0  0.955467  0  0  0.098345  0  1.016905  0  0  0.10101  0  1.015852  0  0  0.096088  0.096397  0  1.017813  0
H  H5  1  0.88879675  0.60490155  0.55471310  1  0  0.082595  0  0.964468  0  0  0.091727  0  1.029513  0  0  0.09455  0  1.028193  0  0  0.093655  0.089643  0  1.030585  0
H  H6  1  0.64025731  0.78811195  0.46606996  1  0  0.08419  0  0.979608  0  0  0.094731  0  1.043095  0  0  0.096615  0  1.043721  0  0  0.095444  0.093367  0  1.042771  0
H  H7  1  0.77457959  0.88182663  0.29923661  1  0  0.078475  0  0.945459  0  0  0.092159  0  0.998172  0  0  0.095123  0  0.997064  0  0  0.097193  0.090052  0  0.999031  0
H  H8  1  0.15201953  0.79093483  0.22010186  1  0  0.07466  0  0.957631  0  0  0.086495  0  1.017354  0  0  0.089725  0  1.015842  0  0  0.090713  0.084186  0  1.018482  0
H  H9  1  0.60922257  0.53944987  0.34033025  1  0  0.094074  0  0.939011  0  0  0.108798  0  1.0029  0  0  0.109961  0  1.003184  0  0  0.096584  0.107916  0  1.002781  0
H  H10  1  0.56345435  0.65351797  0.23575591  1  0  0.084802  0  0.944959  0  0  0.09757  0  1.012725  0  0  0.098968  0  1.012261  0  0  0.092819  0.096567  0  1.013054  0
H  H11  1  0.12304103  0.55301419  0.20786585  1  0  0.092837  0  0.926275  0  0  0.104254  0  0.985268  0  0  0.106759  0  0.983775  0  0  0.123948  0.102438  0  0.986489  0
H  H12  1  0.98073925  0.00818388  0.42457330  1  0  0.104744  0  0.940395  0  0  0.117461  0  0.995081  0  0  0.120571  0  0.994012  0  0  0.104959  0.115191  0  0.995996  0
H  H13  1  0.16335229  0.82090523  0.52702662  1  0  0.100842  0  0.9845  0  0  0.10958  0  1.048716  0  0  0.111989  0  1.048526  0  0  0.100827  0.107829  0  1.04898  0
H  H14  1  0.72221818  0.00825152  0.64899065  1  0  0.095184  0  0.962953  0  0  0.104722  0  1.027096  0  0  0.107637  0  1.026284  0  0  0.097554  0.102626  0  1.02778  0
H  H15  1  0.53827276  0.19534856  0.54690303  1  0  0.103454  0  0.970102  0  0  0.111919  0  1.034339  0  0  0.114564  0  1.033867  0  0  0.10171  0.109983  0  1.03485  0
H  H16  1  0.18067104  0.53996397  0.83002014  1  0  0.077129  0  0.975614  0  0  0.083193  0  1.046476  0  0  0.08563  0  1.044563  0  0  0.118828  0.081401  0  1.048045  0
H  H17  1  0.12624022  0.35451227  0.81839743  1  0  0.090214  0  0.94503  0  0  0.103584  0  1.011837  0  0  0.104513  0  1.01247  0  0  0.095586  0.102935  0  1.011394  0
H  H18  1  0.17150331  0.45442379  0.70564127  1  0  0.087555  0  0.935629  0  0  0.103689  0  0.998292  0  0  0.104695  0  0.998569  0  0  0.094975  0.102956  0  0.998113  0
H  H19  1  0.59253871  0.43871483  0.60356148  1  0  0.086071  0  0.965603  0  0  0.096886  0  1.030208  0  0  0.099659  0  1.029003  0  0  0.096869  0.094864  0  1.031171  0
H  H20  1  0.97836357  0.31033340  0.56769512  1  0  0.087903  0  0.953879  0  0  0.098844  0  1.013484  0  0  0.101441  0  1.012733  0  0  0.098887  0.096852  0  1.014241  0
H  H21  1  0.12630166  0.12998127  0.68946732  1  0  0.082148  0  0.971337  0  0  0.093287  0  1.033472  0  0  0.095318  0  1.034186  0  0  0.094191  0.091836  0  1.033059  0
H  H22  1  0.88140082  0.07810347  0.84793371  1  0  0.061176  0  0.983596  0  0  0.072  0  1.046524  0  0  0.074995  0  1.044887  0  0  0.085888  0.069862  0  1.047739  0
H  H23  1  0.49886618  0.20788079  0.88322127  1  0  0.096278  0  0.953834  0  0  0.108357  0  1.010975  0  0  0.112075  0  1.008607  0  0  0.09636  0.10568  0  1.012781  0
H  H24  1  0.05423606  0.67933405  0.88840613  1  0  0.054537  0  0.940946  0  0  0.061404  0  1.014127  0  0  0.063689  0  1.008606  0  0  0.12572  0.059497  0  1.018337  0
H  H25  1  0.16827391  0.85612883  0.80620860  1  0  0.111592  0  0.940808  0  0  0.129908  0  1.00655  0  0  0.131059  0  1.0061  0  0  0.111233  0.128926  0  1.007041  0
H  H26  1  0.52406041  0.90025877  0.81933082  1  0  0.099192  0  0.935076  0  0  0.119222  0  0.999445  0  0  0.119675  0  0.999943  0  0  0.104025  0.118818  0  0.999161  0
H  H27  1  0.22349522  0.95307998  0.87269780  1  0  0.089783  0  0.948219  0  0  0.110774  0  1.011745  0  0  0.111307  0  1.011643  0  0  0.10089  0.110325  0  1.011863  0
H  H28  1  0.40151981  0.83982169  0.04898652  1  0  0.087599  0  0.923872  0  0  0.110952  0  0.982094  0  0  0.110947  0  0.982269  0  0  0.102652  0.11089  0  0.982026  0
H  H29  1  0.71531126  0.83022014  0.97816821  1  0  0.089234  0  0.94131  0  0  0.11224  0  1.000693  0  0  0.112126  0  1.001472  0  0  0.102897  0.11223  0  1.000214  0
H  H30  1  0.55838472  0.69946655  0.05696665  1  0  0.132853  0  0.954484  0  0  0.145604  0  1.02202  0  0  0.14825  0  1.020226  0  0  0.115452  0.143625  0  1.023375  0
Pb  Pb31  1  0.94142858  0.39317450  0.06101844  1  0  1.33196  0  1.351857  0  0  1.159152  0  1.711417  0  0  1.217326  0  1.671115  0  0  0.672313  1.11688  0  1.740057  0
C  C32  1  0.15465708  0.59430764  0.43630041  1  0  -0.120135  0  3.740414  0  0  -0.142038  0  3.987796  0  0  -0.145038  0  4.009707  0  0  -0.095311  -0.140009  0  3.972971  0
C  C33  1  0.94409661  0.64522357  0.48099487  1  0  -0.077789  0  3.785384  0  0  -0.08878  0  4.035395  0  0  -0.090609  0  4.056753  0  0  -0.09771  -0.087368  0  4.020902  0
C  C34  1  0.80595738  0.74849112  0.43169167  1  0  -0.073637  0  3.777654  0  0  -0.087258  0  4.024019  0  0  -0.089778  0  4.046998  0  0  -0.097008  -0.085516  0  4.008389  0
C  C35  1  0.88219377  0.80117364  0.33789768  1  0  -0.072783  0  3.811488  0  0  -0.083529  0  4.056718  0  0  -0.085289  0  4.078962  0  0  -0.09541  -0.082249  0  4.041498  0
C  C36  1  0.09332359  0.74996485  0.29366728  1  0  -0.134601  0  3.769879  0  0  -0.151206  0  4.012109  0  0  -0.154854  0  4.034279  0  0  -0.098394  -0.148584  0  3.99697  0
C  C37  1  0.23159247  0.64575023  0.34196244  1  0  0.104075  0  3.756664  0  0  0.126733  0  3.991801  0  0  0.12721  0  4.017013  0  0  -0.011009  0.12642  0  3.97461  0
C  C38  1  0.44706537  0.58784357  0.29264698  1  0  -0.194823  0  3.700204  0  0  -0.248155  0  3.951822  0  0  -0.249368  0  3.964202  0  0  -0.163505  -0.247141  0  3.943315  0
C  C39  1  0.29473521  0.50404835  0.25160377  1  0  0.051165  0  3.627046  0  0  0.030311  0  3.870667  0  0  0.029813  0  3.882138  0  0  0.014364  0.030493  0  3.862999  0
C  C40  1  0.30179031  0.31392105  0.37079786  1  0  0.735509  0  3.870924  0  0  0.66337  0  4.178282  0  0  0.698479  0  4.171923  0  0  0.32972  0.639649  0  4.181713  0
C  C41  1  0.24755891  0.11466748  0.47848804  1  0  0.246491  0  3.818592  0  0  0.237647  0  4.069705  0  0  0.244501  0  4.091023  0  0  0.086603  0.232881  0  4.055302  0
C  C42  1  0.14189005  0.00825044  0.47431323  1  0  -0.148414  0  3.758813  0  0  -0.165535  0  4.007141  0  0  -0.169061  0  4.027327  0  0  -0.095113  -0.163071  0  3.993552  0
C  C43  1  0.24303429  0.90279991  0.53247828  1  0  -0.153864  0  3.769968  0  0  -0.17403  0  4.022429  0  0  -0.17628  0  4.041733  0  0  -0.101627  -0.172492  0  4.009487  0
C  C44  1  0.45187602  0.90145959  0.59621794  1  0  0.230779  0  3.834808  0  0  0.222868  0  4.086556  0  0  0.228943  0  4.108262  0  0  0.079463  0.218644  0  4.071954  0
C  C45  1  0.55870937  0.00773603  0.60010501  1  0  -0.159989  0  3.779189  0  0  -0.177642  0  4.032076  0  0  -0.181091  0  4.05289  0  0  -0.10107  -0.175244  0  4.018104  0
C  C46  1  0.45760609  0.11340746  0.54185257  1  0  -0.149038  0  3.751427  0  0  -0.169141  0  4.005  0  0  -0.171695  0  4.024219  0  0  -0.098473  -0.167433  0  3.992161  0
C  C47  1  0.39265207  0.70061300  0.69994877  1  0  0.721092  0  3.888501  0  0  0.651392  0  4.193795  0  0  0.685866  0  4.188969  0  0  0.327235  0.628201  0  4.196175  0
C  C48  1  0.38418747  0.50407331  0.80890947  1  0  0.040262  0  3.639918  0  0  0.023818  0  3.878668  0  0  0.022839  0  3.890972  0  0  0.00713  0.024306  0  3.870551  0
C  C49  1  0.28613871  0.40902552  0.76833416  1  0  -0.186373  0  3.681992  0  0  -0.237348  0  3.926786  0  0  -0.238344  0  3.939528  0  0  -0.160276  -0.236514  0  3.918055  0
C  C50  1  0.52120465  0.33251587  0.74615091  1  0  0.103  0  3.746188  0  0  0.126792  0  3.979461  0  0  0.126826  0  4.00481  0  0  -0.012684  0.12679  0  3.962133  0
C  C51  1  0.65831269  0.36005852  0.65751234  1  0  -0.130267  0  3.73613  0  0  -0.151505  0  3.983405  0  0  -0.154531  0  4.004542  0  0  -0.094289  -0.14933  0  3.968934  0
C  C52  1  0.87447196  0.28767483  0.63716092  1  0  -0.062389  0  3.769761  0  0  -0.071974  0  4.016273  0  0  -0.073594  0  4.037658  0  0  -0.091053  -0.070707  0  4.001723  0
C  C53  1  0.95628574  0.18582428  0.70542615  1  0  -0.079292  0  3.787432  0  0  -0.093096  0  4.033547  0  0  -0.095582  0  4.056748  0  0  -0.097498  -0.091381  0  4.017735  0
C  C54  1  0.81971234  0.15731851  0.79383460  1  0  -0.087738  0  3.8378  0  0  -0.096944  0  4.084941  0  0  -0.099364  0  4.107624  0  0  -0.102555  -0.09512  0  4.069437  0
C  C55  1  0.60462369  0.22979202  0.81409703  1  0  -0.131258  0  3.753081  0  0  -0.149486  0  3.993451  0  0  -0.152584  0  4.014991  0  0  -0.098554  -0.147344  0  3.978779  0
C  C56  1  0.49082567  0.45823784  0.18550124  1  0  0.644086  0  3.853856  0  0  0.58624  0  4.164359  0  0  0.621347  0  4.156794  0  0  0.212518  0.562309  0  4.168688  0
C  C57  1  0.54372591  0.45511367  0.89829530  1  0  0.640246  0  3.872571  0  0  0.585259  0  4.17849  0  0  0.618982  0  4.173373  0  0  0.210097  0.56236  0  4.181004  0
C  C58  1  0.18644552  0.67704789  0.94728990  1  0  0.397152  0  3.785804  0  0  0.3179  0  4.0762  0  0  0.346883  0  4.076737  0  0  0.180663  0.2985  0  4.075228  0
C  C59  1  0.30978107  0.87675162  0.85455854  1  0  -0.175215  0  3.679277  0  0  -0.279086  0  3.931691  0  0  -0.276047  0  3.94344  0  0  -0.130128  -0.280824  0  3.923646  0
C  C60  1  0.51167483  0.78671976  0.00979645  1  0  -0.166157  0  3.649352  0  0  -0.261945  0  3.888914  0  0  -0.258209  0  3.898497  0  0  -0.129889  -0.264241  0  3.882437  0
N  N61  1  0.14912845  0.40836703  0.32128336  1  0  -0.500249  0  3.293308  0  0  -0.449036  0  3.551735  0  0  -0.469512  0  3.557804  0  0  -0.43389  -0.434833  0  3.547118  0
N  N62  1  0.13483344  0.22009512  0.42098396  1  0  -0.516342  0  3.315974  0  0  -0.459001  0  3.561912  0  0  -0.480197  0  3.566067  0  0  -0.415483  -0.444366  0  3.558577  0
N  N63  1  0.56250778  0.79497123  0.65375347  1  0  -0.522239  0  3.328224  0  0  -0.464029  0  3.574317  0  0  -0.485343  0  3.57975  0  0  -0.419681  -0.449478  0  3.570295  0
N  N64  1  0.53854834  0.60031889  0.74233395  1  0  -0.490676  0  3.268413  0  0  -0.440226  0  3.524006  0  0  -0.460371  0  3.5297  0  0  -0.434704  -0.426437  0  3.519826  0
N  N65  1  0.33160736  0.77615518  0.93720628  1  0  -0.100341  0  3.504723  0  0  0.004839  0  3.741736  0  0  -0.015843  0  3.766864  0  0  -0.285208  0.018733  0  3.724217  0
O  O66  1  0.57351818  0.31343261  0.37017035  1  0  -0.641732  0  1.958962  0  0  -0.584901  0  2.186454  0  0  -0.607092  0  2.176597  0  0  -0.315051  -0.569352  0  2.192602  0
O  O67  1  0.12006874  0.70574522  0.70486024  1  0  -0.654977  0  1.969655  0  0  -0.603189  0  2.210165  0  0  -0.624396  0  2.198977  0  0  -0.322364  -0.588284  0  2.217119  0
O  O68  1  0.40898314  0.37053761  0.16381649  1  0  -0.696976  0  2.00245  0  0  -0.628489  0  2.23669  0  0  -0.659567  0  2.229318  0  0  -0.31244  -0.606552  0  2.241139  0
O  O69  1  0.72542101  0.51337094  0.15184183  1  0  -0.625571  0  2.005143  0  0  -0.554942  0  2.244734  0  0  -0.584514  0  2.237047  0  0  -0.293132  -0.534446  0  2.249458  0
O  O70  1  0.76809554  0.50989695  0.90819616  1  0  -0.637436  0  2.00158  0  0  -0.567273  0  2.241469  0  0  -0.597213  0  2.234531  0  0  -0.299178  -0.546326  0  2.245522  0
O  O71  1  0.44219479  0.36513372  0.95957951  1  0  -0.695771  0  1.992646  0  0  -0.631785  0  2.22766  0  0  -0.661053  0  2.220568  0  0  -0.312804  -0.611041  0  2.231868  0
O  O72  1  0.19817404  0.58868597  0.01723022  1  0  -0.515419  0  2.089009  0  0  -0.448239  0  2.338216  0  0  -0.474972  0  2.334196  0  0  -0.268562  -0.429565  0  2.340138  0
