# generated using pymatgen
data_CdH12C18(NO)4
_symmetry_space_group_name_H-M   'P 1'
_cell_length_a   11.08651323
_cell_length_b   14.01894417
_cell_length_c   14.08431448
_cell_angle_alpha   105.52928068
_cell_angle_beta   113.18665999
_cell_angle_gamma   90.01649941
_symmetry_Int_Tables_number   1
_chemical_formula_structural   CdH12C18(NO)4
_chemical_formula_sum   'Cd4 H48 C72 N16 O16'
_cell_volume   1924.87498386
_cell_formula_units_Z   4
loop_
 _symmetry_equiv_pos_site_id
 _symmetry_equiv_pos_as_xyz
  1  'x, y, z'
loop_
 _atom_site_type_symbol
 _atom_site_label
 _atom_site_symmetry_multiplicity
 _atom_site_fract_x
 _atom_site_fract_y
 _atom_site_fract_z
 _atom_site_occupancy
 _atom_site_pbe_bader_charge
 _atom_site_pbe_bader_spin_density
 _atom_site_pbe_cm5_charge
 _atom_site_pbe_ddec_charge
 _atom_site_pbe_ddec_spin_density
 _atom_site_pbe_ddec_sum_bond_order
 _atom_site_pbe_magmom
Cd  Cd0  1  0.90176375  0.36612356  0.44912506  1  1.273967  0  0.782083  0.871755  0  2.163884  0
Cd  Cd1  1  0.54730002  0.86602548  0.44918792  1  1.274807  0  0.78175  0.871351  0  2.161284  0
Cd  Cd2  1  0.09823132  0.63388265  0.55087737  1  1.274075  0  0.782044  0.871654  0  2.16393  0
Cd  Cd3  1  0.45270523  0.13397551  0.55081306  1  1.274802  0  0.781712  0.871269  0  2.161376  0
H  H4  1  0.79489180  0.77056500  0.37167614  1  0.190385  0  0.120538  0.110242  0  1.047757  0
H  H5  1  0.57712666  0.27044272  0.37178585  1  0.187359  0  0.120564  0.109914  0  1.04844  0
H  H6  1  0.20511024  0.22943372  0.62832133  1  0.190187  0  0.120529  0.110177  0  1.047838  0
H  H7  1  0.42286950  0.72956126  0.62821733  1  0.187527  0  0.120538  0.109875  0  1.048417  0
H  H8  1  0.96483336  0.82920985  0.31416142  1  0.117218  0  0.111073  0.083645  0  1.003508  0
H  H9  1  0.34959779  0.32902457  0.31488703  1  0.095901  0  0.111773  0.084174  0  1.003447  0
H  H10  1  0.03516251  0.17078656  0.68582764  1  0.117302  0  0.111081  0.083659  0  1.003546  0
H  H11  1  0.65039567  0.67097336  0.68510474  1  0.095958  0  0.111834  0.084271  0  1.003433  0
H  H12  1  0.09627237  0.38300126  0.33409738  1  0.098243  0  0.11825  0.094711  0  0.996627  0
H  H13  1  0.23831883  0.88326973  0.33393128  1  0.09716  0  0.118108  0.094465  0  0.996753  0
H  H14  1  0.90372235  0.61699679  0.66590735  1  0.098211  0  0.118273  0.094714  0  0.996616  0
H  H15  1  0.76167986  0.11673349  0.66606941  1  0.097187  0  0.118112  0.094478  0  0.996765  0
H  H16  1  0.09791574  0.38524602  0.15944570  1  0.059402  0  0.108548  0.115762  0  1.000148  0
H  H17  1  0.06210992  0.88526974  0.15912592  1  0.07464  0  0.10844  0.115925  0  1.00085  0
H  H18  1  0.90208276  0.61474981  0.84055853  1  0.058928  0  0.10854  0.115755  0  1.000155  0
H  H19  1  0.93789281  0.11473793  0.84087458  1  0.07449  0  0.1084  0.115895  0  1.000865  0
H  H20  1  0.67057460  0.36128152  0.03026305  1  0.094119  0  0.11377  0.126031  0  0.981257  0
H  H21  1  0.36047380  0.86120162  0.03024939  1  0.082198  0  0.113596  0.126273  0  0.980714  0
H  H22  1  0.32942374  0.63871499  0.96973529  1  0.094139  0  0.11374  0.125984  0  0.981167  0
H  H23  1  0.63952969  0.13879641  0.96975233  1  0.082211  0  0.113597  0.126265  0  0.98074  0
H  H24  1  0.68799526  0.35537511  0.21112301  1  0.09303  0  0.11622  0.08499  0  0.997559  0
H  H25  1  0.52382836  0.85543618  0.21122867  1  0.089892  0  0.116274  0.085112  0  0.99798  0
H  H26  1  0.31199880  0.64462064  0.78887389  1  0.093712  0  0.116224  0.084976  0  0.997522  0
H  H27  1  0.47617094  0.14455663  0.78877199  1  0.089954  0  0.116263  0.085118  0  0.997947  0
H  H28  1  0.16386233  0.38269611  0.86806592  1  0.076304  0  0.10918  0.118056  0  0.986235  0
H  H29  1  0.70494389  0.88285842  0.86830157  1  0.079651  0  0.10902  0.117459  0  0.984872  0
H  H30  1  0.83613936  0.61729894  0.13193551  1  0.07634  0  0.109182  0.118062  0  0.986285  0
H  H31  1  0.29506734  0.11713662  0.13169858  1  0.079482  0  0.109039  0.117522  0  0.984944  0
H  H32  1  0.13034461  0.38181353  0.68217269  1  0.12685  0  0.118151  0.090692  0  1.020126  0
H  H33  1  0.55207462  0.88150866  0.68236301  1  0.127053  0  0.118187  0.089913  0  1.019482  0
H  H34  1  0.86965485  0.61818971  0.31782972  1  0.126803  0  0.118158  0.090707  0  1.020136  0
H  H35  1  0.44793579  0.11849011  0.31763787  1  0.127106  0  0.118125  0.089877  0  1.019493  0
H  H36  1  0.72274272  0.35937731  0.58073568  1  0.160932  0  0.116085  0.092835  0  1.030599  0
H  H37  1  0.85789089  0.85942210  0.58059801  1  0.154033  0  0.116117  0.093104  0  1.030509  0
H  H38  1  0.27725606  0.64062593  0.41926704  1  0.160941  0  0.116096  0.092849  0  1.030625  0
H  H39  1  0.14211768  0.14058334  0.41940207  1  0.1541  0  0.116149  0.09314  0  1.030428  0
H  H40  1  0.73783380  0.36030532  0.75909626  1  0.101527  0  0.10901  0.123749  0  1.035241  0
H  H41  1  0.02158993  0.86072541  0.75898528  1  0.110351  0  0.109738  0.124536  0  1.034996  0
H  H42  1  0.26216659  0.63969494  0.24090565  1  0.101542  0  0.109031  0.12381  0  1.035189  0
H  H43  1  0.97841901  0.13927780  0.24101484  1  0.110473  0  0.109778  0.12456  0  1.034974  0
H  H44  1  0.76856630  0.36857765  0.91247446  1  0.100266  0  0.109569  0.117608  0  0.999327  0
H  H45  1  0.14453071  0.86842987  0.91223995  1  0.086531  0  0.109502  0.11738  0  0.998539  0
H  H46  1  0.23143303  0.63142036  0.08752606  1  0.100247  0  0.109561  0.117588  0  0.999365  0
H  H47  1  0.85547944  0.13157187  0.08776113  1  0.086377  0  0.109494  0.117418  0  0.998507  0
H  H48  1  0.07229625  0.37858899  0.99786206  1  0.075458  0  0.104062  0.101973  0  0.995881  0
H  H49  1  0.92649357  0.87899915  0.99797801  1  0.038138  0  0.103755  0.101706  0  0.997466  0
H  H50  1  0.92770349  0.62140233  0.00213783  1  0.07548  0  0.1041  0.101979  0  0.995928  0
H  H51  1  0.07351376  0.12100257  0.00202125  1  0.037937  0  0.103785  0.101665  0  0.997453  0
C  C52  1  0.83224424  0.03581888  0.36019852  1  0.52715  0  0.131597  0.094991  0  3.893801  0
C  C53  1  0.52796937  0.53569514  0.36039456  1  0.532779  0  0.131071  0.0939  0  3.893341  0
C  C54  1  0.16775831  0.96417909  0.63979738  1  0.5271  0  0.131541  0.094848  0  3.893981  0
C  C55  1  0.47202488  0.46430887  0.63961158  1  0.532823  0  0.131251  0.094335  0  3.893048  0
C  C56  1  0.74518949  0.00529385  0.40024942  1  0.474128  0  0.11048  0.031664  0  3.920916  0
C  C57  1  0.65512569  0.50524087  0.40023410  1  0.474936  0  0.111091  0.032676  0  3.919718  0
C  C58  1  0.25481463  0.99470560  0.59974631  1  0.474439  0  0.11039  0.031581  0  3.920861  0
C  C59  1  0.34486730  0.49476461  0.59977006  1  0.47524  0  0.111047  0.032393  0  3.91969  0
C  C60  1  0.80656845  0.84663432  0.36830642  1  0.46623  0  0.046338  0.035097  0  3.919076  0
C  C61  1  0.56195665  0.34651775  0.36847557  1  0.462125  0  0.046559  0.035439  0  3.918262  0
C  C62  1  0.19343184  0.15336288  0.63168712  1  0.466434  0  0.046396  0.035264  0  3.919112  0
C  C63  1  0.43803822  0.65348626  0.63152924  1  0.461822  0  0.046554  0.035448  0  3.91817  0
C  C64  1  0.89875180  0.87982089  0.33575029  1  0.483791  0  0.047999  0.058076  0  3.972139  0
C  C65  1  0.43718346  0.37966097  0.33623247  1  0.502693  0  0.048487  0.058687  0  3.972537  0
C  C66  1  0.10124788  0.12017704  0.66424278  1  0.483744  0  0.047965  0.057943  0  3.972374  0
C  C67  1  0.56280966  0.62034151  0.66376843  1  0.502733  0  0.048431  0.058541  0  3.972487  0
C  C68  1  0.83977495  0.13915016  0.34640790  1  1.670341  0  0.190855  0.555542  0  4.309601  0
C  C69  1  0.50644845  0.63898389  0.34648465  1  1.663801  0  0.192039  0.557274  0  4.309478  0
C  C70  1  0.16022371  0.86084929  0.65358828  1  1.670042  0  0.190805  0.55547  0  4.309945  0
C  C71  1  0.49354514  0.36102085  0.65351999  1  1.663529  0  0.191956  0.557151  0  4.30963  0
C  C72  1  0.66697059  0.07850533  0.44491310  1  1.619757  0  0.199408  0.53119  0  4.273503  0
C  C73  1  0.77801509  0.57848117  0.44476539  1  1.614459  0  0.199407  0.529584  0  4.275847  0
C  C74  1  0.33302852  0.92149264  0.55508232  1  1.619889  0  0.199472  0.531298  0  4.273491  0
C  C75  1  0.22197555  0.42152353  0.55523437  1  1.614199  0  0.199538  0.530031  0  4.275622  0
C  C76  1  0.00407805  0.37711926  0.26408086  1  0.481866  0  0.04596  0.09746  0  3.952506  0
C  C77  1  0.26056705  0.87728172  0.26394439  1  0.493874  0  0.04512  0.096064  0  3.954469  0
C  C78  1  0.99591575  0.62287802  0.73592089  1  0.481906  0  0.045906  0.097342  0  3.952754  0
C  C79  1  0.73943347  0.12272001  0.73605593  1  0.493844  0  0.045105  0.095999  0  3.9545  0
C  C80  1  0.00376966  0.37846636  0.16592988  1  0.006639  0  -0.079164  -0.169633  0  3.932088  0
C  C81  1  0.16278599  0.87849748  0.16572211  1  -0.015165  0  -0.07863  -0.169664  0  3.934498  0
C  C82  1  0.99622604  0.62153017  0.83407072  1  0.006941  0  -0.079139  -0.169576  0  3.932139  0
C  C83  1  0.83721416  0.12150648  0.83427818  1  -0.015027  0  -0.078619  -0.169671  0  3.934551  0
C  C84  1  0.88265276  0.37271632  0.07794661  1  -0.011554  0  0.004792  0.139726  0  4.043458  0
C  C85  1  0.19600593  0.87271213  0.07779854  1  -0.059979  0  0.004594  0.139204  0  4.044617  0
C  C86  1  0.11734639  0.62728021  0.92205448  1  -0.011359  0  0.00481  0.139771  0  4.043363  0
C  C87  1  0.80399730  0.12728887  0.92220338  1  -0.060145  0  0.004628  0.139316  0  4.044675  0
C  C88  1  0.76700772  0.36553876  0.09560586  1  -0.03863  0  -0.082351  -0.184046  0  3.938724  0
C  C89  1  0.32932172  0.86554950  0.09555162  1  0.026575  0  -0.08214  -0.184198  0  3.938971  0
C  C90  1  0.23298932  0.63445776  0.90439411  1  -0.038755  0  -0.082318  -0.183991  0  3.938503  0
C  C91  1  0.67068200  0.13445002  0.90445055  1  0.026461  0  -0.082108  -0.184199  0  3.939152  0
C  C92  1  0.77620652  0.36307299  0.19608468  1  0.504806  0  0.049243  0.101631  0  3.975946  0
C  C93  1  0.42054619  0.86313241  0.19608450  1  0.453207  0  0.048829  0.100564  0  3.977679  0
C  C94  1  0.22378632  0.63692351  0.80391307  1  0.504333  0  0.049258  0.101623  0  3.975993  0
C  C95  1  0.57945502  0.13686412  0.80391667  1  0.453233  0  0.048846  0.100577  0  3.977556  0
C  C96  1  0.95343681  0.37232323  0.83131283  1  -0.022613  0  0.00299  0.132995  0  4.042438  0
C  C97  1  0.87841979  0.87257749  0.83133115  1  -0.04642  0  0.002999  0.133333  0  4.042683  0
C  C98  1  0.04656435  0.62767329  0.16868732  1  -0.022572  0  0.003025  0.133061  0  4.042342  0
C  C99  1  0.12158944  0.12742347  0.16866695  1  -0.046956  0  0.003073  0.133412  0  4.042434  0
C  C100  1  0.06415627  0.37760257  0.80665667  1  -0.044068  0  -0.087485  -0.191044  0  3.965527  0
C  C101  1  0.74306868  0.87770834  0.80678223  1  -0.118149  0  -0.087284  -0.19017  0  3.964483  0
C  C102  1  0.93584568  0.62239470  0.19334340  1  -0.044259  0  -0.08752  -0.191111  0  3.965586  0
C  C103  1  0.25694169  0.12229041  0.19321763  1  -0.118048  0  -0.087363  -0.190381  0  3.96451  0
C  C104  1  0.04634385  0.37771407  0.70338018  1  0.446833  0  0.043735  0.090407  0  3.965032  0
C  C105  1  0.65729805  0.87756997  0.70349701  1  0.488038  0  0.043278  0.090784  0  3.96523  0
C  C106  1  0.95365593  0.62228693  0.29662124  1  0.446975  0  0.043712  0.090366  0  3.965058  0
C  C107  1  0.34271108  0.12242954  0.29650370  1  0.487854  0  0.043402  0.090954  0  3.965097  0
C  C108  1  0.81928417  0.36556702  0.64614250  1  0.476773  0  0.050149  0.104332  0  3.943824  0
C  C109  1  0.82691900  0.86558395  0.64607658  1  0.480478  0  0.050125  0.103893  0  3.944233  0
C  C110  1  0.18071573  0.63443473  0.35385915  1  0.476686  0  0.050082  0.104233  0  3.943816  0
C  C111  1  0.17308717  0.13441926  0.35392273  1  0.479697  0  0.050123  0.103938  0  3.944134  0
C  C112  1  0.82856507  0.36550674  0.74722100  1  -0.024102  0  -0.079606  -0.167677  0  3.905411  0
C  C113  1  0.91897952  0.86573397  0.74715787  1  0.023476  0  -0.080365  -0.169006  0  3.90792  0
C  C114  1  0.17143580  0.63449203  0.25278117  1  -0.024111  0  -0.07963  -0.167759  0  3.905421  0
C  C115  1  0.08102931  0.13426850  0.25284202  1  0.024866  0  -0.080418  -0.169097  0  3.907937  0
C  C116  1  0.87008447  0.37233061  0.97121621  1  -0.041719  0  -0.078317  -0.119027  0  3.947368  0
C  C117  1  0.10181494  0.87235390  0.97104267  1  0.036376  0  -0.078408  -0.118416  0  3.944529  0
C  C118  1  0.12991679  0.62766594  0.02878598  1  -0.042044  0  -0.078336  -0.119069  0  3.947482  0
C  C119  1  0.89819304  0.12764709  0.02895809  1  0.036791  0  -0.078488  -0.118609  0  3.94462  0
C  C120  1  0.97038699  0.37458513  0.93980857  1  -0.07785  0  -0.079152  -0.113926  0  3.960923  0
C  C121  1  0.97017459  0.87486783  0.93981996  1  -0.060793  0  -0.078663  -0.113904  0  3.960582  0
C  C122  1  0.02961399  0.62540991  0.06019214  1  -0.077519  0  -0.079162  -0.113875  0  3.960986  0
C  C123  1  0.02983082  0.12513536  0.06017762  1  -0.060705  0  -0.078645  -0.113734  0  3.96049  0
N  N124  1  0.91036008  0.97256707  0.32919035  1  -1.167374  0  -0.30176  -0.253817  0  3.276444  0
N  N125  1  0.41891775  0.47238486  0.32965435  1  -1.169679  0  -0.30293  -0.254648  0  3.276592  0
N  N126  1  0.08963954  0.02743014  0.67080351  1  -1.16728  0  -0.3017  -0.253659  0  3.276556  0
N  N127  1  0.58107580  0.52761844  0.67035392  1  -1.169571  0  -0.303015  -0.254746  0  3.276505  0
N  N128  1  0.73056440  0.91009303  0.40079382  1  -1.218753  0  -0.295765  -0.22096  0  3.463721  0
N  N129  1  0.67035837  0.41004055  0.40073463  1  -1.208044  0  -0.296279  -0.221048  0  3.463454  0
N  N130  1  0.26943970  0.08990570  0.59920373  1  -1.219246  0  -0.295797  -0.220976  0  3.463641  0
N  N131  1  0.32963655  0.58996347  0.59927120  1  -1.208256  0  -0.296281  -0.220987  0  3.463637  0
N  N132  1  0.89248739  0.36926465  0.27952736  1  -1.20973  0  -0.324908  -0.236824  0  3.499864  0
N  N133  1  0.38759946  0.86941205  0.27945583  1  -1.207041  0  -0.324076  -0.234086  0  3.50156  0
N  N134  1  0.10750577  0.63073336  0.72047289  1  -1.209715  0  -0.324945  -0.236781  0  3.499985  0
N  N135  1  0.61239920  0.13058597  0.72054500  1  -1.207037  0  -0.324096  -0.234076  0  3.501377  0
N  N136  1  0.92611618  0.37217676  0.62406191  1  -1.209291  0  -0.324838  -0.232195  0  3.479787  0
N  N137  1  0.69803457  0.87203496  0.62411886  1  -1.21082  0  -0.324607  -0.23202  0  3.481271  0
N  N138  1  0.07388254  0.62782575  0.37594161  1  -1.209387  0  -0.324763  -0.232047  0  3.47957  0
N  N139  1  0.30197146  0.12796677  0.37588204  1  -1.210823  0  -0.324661  -0.232083  0  3.481109  0
O  O140  1  0.93010649  0.20283566  0.42662845  1  -1.155758  0  -0.337868  -0.563047  0  2.280286  0
O  O141  1  0.49652084  0.70270890  0.42673455  1  -1.15514  0  -0.337391  -0.562706  0  2.281214  0
O  O142  1  0.06988860  0.79716823  0.57336586  1  -1.155758  0  -0.33781  -0.562988  0  2.280396  0
O  O143  1  0.50346577  0.29729581  0.57326707  1  -1.154913  0  -0.337344  -0.56268  0  2.281084  0
O  O144  1  0.76379244  0.14997921  0.25774340  1  -1.174928  0  -0.355471  -0.576937  0  2.059525  0
O  O145  1  0.49344536  0.64975650  0.25774614  1  -1.169909  0  -0.355914  -0.577377  0  2.05953  0
O  O146  1  0.23620524  0.85001498  0.74224711  1  -1.174636  0  -0.355414  -0.576856  0  2.059745  0
O  O147  1  0.50655394  0.35024454  0.74225968  1  -1.169999  0  -0.355898  -0.577372  0  2.059747  0
O  O148  1  0.67990997  0.16692481  0.44533227  1  -1.15735  0  -0.298571  -0.507817  0  2.204803  0
O  O149  1  0.76549592  0.66682865  0.44489710  1  -1.155454  0  -0.298479  -0.507241  0  2.205696  0
O  O150  1  0.32009302  0.83307542  0.55466636  1  -1.157348  0  -0.298565  -0.507804  0  2.204823  0
O  O151  1  0.23448888  0.33317828  0.55510308  1  -1.155193  0  -0.298523  -0.507463  0  2.205879  0
O  O152  1  0.59209651  0.04270211  0.48066596  1  -1.173691  0  -0.335083  -0.568716  0  2.442687  0
O  O153  1  0.88862355  0.54273571  0.48074170  1  -1.172479  0  -0.335013  -0.567702  0  2.444027  0
O  O154  1  0.40790470  0.95729586  0.51933057  1  -1.17381  0  -0.335069  -0.568723  0  2.44269  0
O  O155  1  0.11136701  0.45727488  0.51925305  1  -1.17268  0  -0.335057  -0.567867  0  2.443949  0
