# generated using pymatgen
data_ZnH11C14NO5
_symmetry_space_group_name_H-M   'P 1'
_cell_length_a   8.05159972
_cell_length_b   9.66367860
_cell_length_c   10.57242006
_cell_angle_alpha   107.62313093
_cell_angle_beta   100.47264177
_cell_angle_gamma   112.59293201
_symmetry_Int_Tables_number   1
_chemical_formula_structural   ZnH11C14NO5
_chemical_formula_sum   'Zn2 H22 C28 N2 O10'
_cell_volume   681.04854171
_cell_formula_units_Z   2
loop_
 _symmetry_equiv_pos_site_id
 _symmetry_equiv_pos_as_xyz
  1  'x, y, z'
loop_
 _atom_site_type_symbol
 _atom_site_label
 _atom_site_symmetry_multiplicity
 _atom_site_fract_x
 _atom_site_fract_y
 _atom_site_fract_z
 _atom_site_occupancy
 _atom_site_hle17_bader_spin_density
 _atom_site_hle17_ddec_charge
 _atom_site_hle17_ddec_spin_density
 _atom_site_hle17_ddec_sum_bond_order
 _atom_site_hle17_magmom
 _atom_site_hse06_10hf_bader_spin_density
 _atom_site_hse06_10hf_ddec_charge
 _atom_site_hse06_10hf_ddec_spin_density
 _atom_site_hse06_10hf_ddec_sum_bond_order
 _atom_site_hse06_10hf_magmom
 _atom_site_hse06_bader_spin_density
 _atom_site_hse06_ddec_charge
 _atom_site_hse06_ddec_spin_density
 _atom_site_hse06_ddec_sum_bond_order
 _atom_site_hse06_magmom
 _atom_site_pbe_bader_spin_density
 _atom_site_pbe_cm5_charge
 _atom_site_pbe_ddec_charge
 _atom_site_pbe_ddec_spin_density
 _atom_site_pbe_ddec_sum_bond_order
 _atom_site_pbe_magmom
Zn  Zn0  1  0.71170968  0.65847338  0.52178002  1  0  1.110533  0  1.747144  0  0  0.934085  0  2.206346  0  0  0.981206  0  2.150021  0  0  0.693512  0.90002  0  2.245574  0
Zn  Zn1  1  0.28829541  0.34152597  0.47821783  1  0  1.110535  0  1.747118  0  0  0.934091  0  2.206339  0  0  0.981211  0  2.15001  0  0  0.693481  0.900024  0  2.24557  0
H  H2  1  0.83074282  0.62683729  0.31587326  1  0  0.426302  0  0.822422  0  0  0.40681  0  0.87827  0  0  0.415783  0  0.868125  0  0  0.3159  0.400005  0  0.886306  0
H  H3  1  0.16926245  0.37316941  0.68412476  1  0  0.426354  0  0.822441  0  0  0.406865  0  0.878277  0  0  0.415837  0  0.868134  0  0  0.315919  0.40006  0  0.886317  0
H  H4  1  0.01343795  0.65124224  0.43356395  1  0  0.439568  0  0.862546  0  0  0.405341  0  0.93029  0  0  0.417211  0  0.913207  0  0  0.29055  0.396849  0  0.942504  0
H  H5  1  0.98657052  0.34876571  0.56643487  1  0  0.439694  0  0.862421  0  0  0.405481  0  0.930134  0  0  0.417347  0  0.91306  0  0  0.290605  0.396993  0  0.942344  0
H  H6  1  0.71380777  0.08300588  0.47409966  1  0  0.111736  0  0.944076  0  0  0.120686  0  1.008241  0  0  0.124489  0  1.005313  0  0  0.111593  0.117807  0  1.010867  0
H  H7  1  0.28619997  0.91699838  0.52589994  1  0  0.111726  0  0.944102  0  0  0.120711  0  1.008225  0  0  0.124505  0  1.005307  0  0  0.11161  0.11783  0  1.010855  0
H  H8  1  0.30841091  0.69230791  0.07932351  1  0  0.101124  0  0.946796  0  0  0.110037  0  1.009997  0  0  0.114019  0  1.006602  0  0  0.104754  0.107219  0  1.012381  0
H  H9  1  0.69159157  0.30769138  0.92067963  1  0  0.101144  0  0.946806  0  0  0.11007  0  1.009989  0  0  0.114052  0  1.006593  0  0  0.10476  0.107246  0  1.012377  0
H  H10  1  0.39300678  0.18908642  0.18043635  1  0  0.106434  0  0.955473  0  0  0.115119  0  1.019682  0  0  0.118528  0  1.017351  0  0  0.107217  0.112749  0  1.021218  0
H  H11  1  0.60698932  0.81091038  0.81956423  1  0  0.106442  0  0.955479  0  0  0.115125  0  1.019688  0  0  0.118533  0  1.017358  0  0  0.107202  0.112755  0  1.021224  0
H  H12  1  0.00062284  0.63495679  0.97546241  1  0  0.104605  0  0.94682  0  0  0.117504  0  1.002392  0  0  0.120474  0  1.001943  0  0  0.107601  0.114947  0  1.003858  0
H  H13  1  0.99936876  0.36503873  0.02454000  1  0  0.104626  0  0.946818  0  0  0.117509  0  1.002386  0  0  0.120478  0  1.001938  0  0  0.107621  0.114953  0  1.003853  0
H  H14  1  0.29128755  0.10111957  0.95040953  1  0  0.117394  0  0.947766  0  0  0.130042  0  1.00374  0  0  0.132783  0  1.003874  0  0  0.110759  0.128112  0  1.003766  0
H  H15  1  0.70870594  0.89887719  0.04959539  1  0  0.117359  0  0.947741  0  0  0.130017  0  1.003713  0  0  0.132757  0  1.003847  0  0  0.110742  0.128088  0  1.003739  0
H  H16  1  0.03460262  0.98195034  0.60499973  1  0  0.137195  0  0.948867  0  0  0.158197  0  1.010461  0  0  0.159605  0  1.010273  0  0  0.101748  0.157158  0  1.010732  0
H  H17  1  0.96539983  0.01804895  0.39500529  1  0  0.137206  0  0.948864  0  0  0.158201  0  1.010457  0  0  0.159609  0  1.010271  0  0  0.101745  0.157163  0  1.010729  0
H  H18  1  0.14147496  0.15312158  0.77168627  1  0  0.125317  0  0.959005  0  0  0.146105  0  1.016688  0  0  0.147777  0  1.016311  0  0  0.095185  0.144686  0  1.017348  0
H  H19  1  0.85852557  0.84687646  0.22831812  1  0  0.125296  0  0.959002  0  0  0.146097  0  1.016673  0  0  0.147776  0  1.016287  0  0  0.095199  0.144677  0  1.01733  0
H  H20  1  0.88757793  0.03201589  0.69420434  1  0  0.132677  0  0.946922  0  0  0.15336  0  1.008478  0  0  0.154915  0  1.008387  0  0  0.098742  0.152185  0  1.008746  0
H  H21  1  0.11242269  0.96798462  0.30579792  1  0  0.13267  0  0.946914  0  0  0.153347  0  1.008479  0  0  0.154904  0  1.008391  0  0  0.098738  0.152175  0  1.008742  0
H  H22  1  0.75461596  0.54421357  0.74796209  1  0  0.092474  0  0.950441  0  0  0.100095  0  1.014279  0  0  0.10233  0  1.01188  0  0  0.119246  0.098331  0  1.016066  0
H  H23  1  0.24537760  0.45578321  0.25203811  1  0  0.092417  0  0.950462  0  0  0.100042  0  1.014303  0  0  0.102276  0  1.011904  0  0  0.119254  0.09828  0  1.01609  0
C  C24  1  0.56442484  0.75540585  0.31911081  1  0  0.63923  0  3.931517  0  0  0.589432  0  4.22746  0  0  0.623041  0  4.221398  0  0  0.201084  0.567063  0  4.229691  0
C  C25  1  0.43558288  0.24459598  0.68088527  1  0  0.639413  0  3.931412  0  0  0.589579  0  4.227401  0  0  0.623188  0  4.221337  0  0  0.201075  0.567202  0  4.229643  0
C  C26  1  0.51453629  0.87576043  0.28020623  1  0  -0.056015  0  3.747926  0  0  -0.029039  0  3.983166  0  0  -0.037877  0  4.006612  0  0  -0.013209  -0.022944  0  3.966991  0
C  C27  1  0.48546885  0.12424137  0.71979231  1  0  -0.05604  0  3.747874  0  0  -0.029054  0  3.983123  0  0  -0.037891  0  4.006566  0  0  -0.013208  -0.022955  0  3.966942  0
C  C28  1  0.60889975  0.04209936  0.37233738  1  0  -0.043043  0  3.65394  0  0  -0.084061  0  3.90538  0  0  -0.080723  0  3.92315  0  0  -0.067567  -0.086465  0  3.89497  0
C  C29  1  0.39110607  0.95790367  0.62766065  1  0  -0.042996  0  3.653995  0  0  -0.084031  0  3.905427  0  0  -0.080685  0  3.923201  0  0  -0.06755  -0.086436  0  3.895017  0
C  C30  1  0.66276207  0.33164785  0.43519392  1  0  0.672283  0  3.866854  0  0  0.616707  0  4.15954  0  0  0.651845  0  4.150948  0  0  0.218472  0.593237  0  4.163974  0
C  C31  1  0.33723994  0.66835272  0.56480004  1  0  0.672218  0  3.866932  0  0  0.616672  0  4.159585  0  0  0.651812  0  4.150995  0  0  0.218523  0.593206  0  4.164015  0
C  C32  1  0.56706584  0.15464991  0.33445370  1  0  -0.059447  0  3.759907  0  0  -0.032795  0  3.99724  0  0  -0.041575  0  4.019293  0  0  -0.0156  -0.027338  0  3.982773  0
C  C33  1  0.43293677  0.84535187  0.66554446  1  0  -0.059471  0  3.760015  0  0  -0.032863  0  3.997412  0  0  -0.041642  0  4.019462  0  0  -0.015629  -0.027412  0  3.982952  0
C  C34  1  0.37621571  0.82198709  0.15079456  1  0  -0.100017  0  3.68977  0  0  -0.133267  0  3.93442  0  0  -0.131743  0  3.952438  0  0  -0.075399  -0.134214  0  3.921896  0
C  C35  1  0.62378551  0.17801220  0.84920745  1  0  -0.099978  0  3.68983  0  0  -0.133272  0  3.934441  0  0  -0.131749  0  3.952458  0  0  -0.075391  -0.134217  0  3.921918  0
C  C36  1  0.42774102  0.09994187  0.20533817  1  0  -0.091553  0  3.673455  0  0  -0.12837  0  3.923929  0  0  -0.126102  0  3.941565  0  0  -0.076152  -0.129367  0  3.911809  0
C  C37  1  0.57225578  0.90005618  0.79466002  1  0  -0.091459  0  3.673544  0  0  -0.128303  0  3.923994  0  0  -0.126035  0  3.94163  0  0  -0.076101  -0.129292  0  3.911871  0
C  C38  1  0.32870427  0.93285611  0.11288225  1  0  0.027303  0  3.788612  0  0  0.04728  0  4.025058  0  0  0.043691  0  4.048235  0  0  -0.009911  0.049775  0  4.009162  0
C  C39  1  0.67129058  0.06714312  0.88712071  1  0  0.027095  0  3.788743  0  0  0.047188  0  4.025057  0  0  0.0436  0  4.048233  0  0  -0.00996  0.04968  0  4.009161  0
C  C40  1  0.17449127  0.87503877  0.98050599  1  0  0.126403  0  3.770645  0  0  0.135328  0  4.004182  0  0  0.142347  0  4.026492  0  0  0.014947  0.130608  0  3.989246  0
C  C41  1  0.82550158  0.12495676  0.01949755  1  0  0.126522  0  3.770716  0  0  0.135383  0  4.004277  0  0  0.142401  0  4.026586  0  0  0.014982  0.130668  0  3.989338  0
C  C42  1  0.01698128  0.71711412  0.92195454  1  0  -0.176024  0  3.710677  0  0  -0.193551  0  3.956298  0  0  -0.203539  0  3.977609  0  0  -0.088003  -0.187246  0  3.942653  0
C  C43  1  0.98301031  0.28288141  0.07804787  1  0  -0.17607  0  3.710817  0  0  -0.193559  0  3.956422  0  0  -0.203546  0  3.977733  0  0  -0.088006  -0.187254  0  3.94278  0
C  C44  1  0.17503606  0.97649817  0.90972569  1  0  -0.218242  0  3.661554  0  0  -0.24347  0  3.906433  0  0  -0.254499  0  3.929827  0  0  -0.084289  -0.236409  0  3.891422  0
C  C45  1  0.82495811  0.02349982  0.09027872  1  0  -0.218281  0  3.661655  0  0  -0.243502  0  3.906556  0  0  -0.254536  0  3.929949  0  0  -0.084335  -0.236446  0  3.891544  0
C  C46  1  0.02415809  0.02830899  0.71021716  1  0  -0.397413  0  3.701776  0  0  -0.48372  0  3.940792  0  0  -0.487125  0  3.947951  0  0  -0.245556  -0.480985  0  3.936027  0
C  C47  1  0.97584122  0.97169149  0.28978773  1  0  -0.397357  0  3.701737  0  0  -0.483634  0  3.940727  0  0  -0.487052  0  3.947879  0  0  -0.245538  -0.480903  0  3.935965  0
C  C48  1  0.02967822  0.91944763  0.78357364  1  0  0.333295  0  3.715444  0  0  0.337904  0  3.96038  0  0  0.34853  0  3.980698  0  0  0.126405  0.330649  0  3.946694  0
C  C49  1  0.97031659  0.08054915  0.21642864  1  0  0.333281  0  3.715504  0  0  0.33787  0  3.960461  0  0  0.348508  0  3.980764  0  0  0.126401  0.330608  0  3.946787  0
C  C50  1  0.87822016  0.66555646  0.79514139  1  0  0.162495  0  3.703755  0  0  0.127421  0  3.960601  0  0  0.138127  0  3.975582  0  0  0.050352  0.120512  0  3.950188  0
C  C51  1  0.12177342  0.33444033  0.20485787  1  0  0.162583  0  3.703767  0  0  0.127508  0  3.960604  0  0  0.138216  0  3.975584  0  0  0.050361  0.120594  0  3.950191  0
N  N52  1  0.88635958  0.76239099  0.72489502  1  0  -0.404996  0  3.249786  0  0  -0.322131  0  3.523055  0  0  -0.344113  0  3.535138  0  0  -0.333048  -0.306985  0  3.514281  0
N  N53  1  0.11363844  0.23760704  0.27510713  1  0  -0.405044  0  3.249762  0  0  -0.322181  0  3.523048  0  0  -0.344168  0  3.535126  0  0  -0.333075  -0.30703  0  3.514272  0
O  O54  1  0.63185514  0.79943188  0.45390173  1  0  -0.666186  0  2.095171  0  0  -0.586701  0  2.365365  0  0  -0.618376  0  2.355397  0  0  -0.328543  -0.564756  0  2.371679  0
O  O55  1  0.36815573  0.20056875  0.54609447  1  0  -0.666178  0  2.095154  0  0  -0.586687  0  2.365375  0  0  -0.618363  0  2.355406  0  0  -0.328464  -0.564736  0  2.371688  0
O  O56  1  0.54183429  0.62764580  0.22485258  1  0  -0.621475  0  1.861376  0  0  -0.582134  0  2.070471  0  0  -0.602953  0  2.059879  0  0  -0.339321  -0.566505  0  2.076374  0
O  O57  1  0.45817412  0.37235727  0.77514206  1  0  -0.621656  0  1.861319  0  0  -0.582295  0  2.070423  0  0  -0.603114  0  2.059828  0  0  -0.339393  -0.566666  0  2.076333  0
O  O58  1  0.82083287  0.39626806  0.53056936  1  0  -0.604851  0  2.006466  0  0  -0.551835  0  2.230988  0  0  -0.576197  0  2.221533  0  0  -0.298859  -0.534462  0  2.236773  0
O  O59  1  0.17917053  0.60373742  0.46942427  1  0  -0.604799  0  2.006564  0  0  -0.551765  0  2.231051  0  0  -0.576129  0  2.221592  0  0  -0.298875  -0.53439  0  2.236839  0
O  O60  1  0.56990004  0.41290839  0.41744169  1  0  -0.695768  0  2.135344  0  0  -0.613583  0  2.424917  0  0  -0.643319  0  2.406223  0  0  -0.32507  -0.592869  0  2.437093  0
O  O61  1  0.43010004  0.58709093  0.58255165  1  0  -0.695763  0  2.135397  0  0  -0.613575  0  2.424914  0  0  -0.643311  0  2.40622  0  0  -0.325091  -0.592867  0  2.437095  0
O  O62  1  0.91346866  0.68834502  0.41452273  1  0  -0.831326  0  1.899711  0  0  -0.766826  0  2.107042  0  0  -0.788586  0  2.076395  0  0  -0.567538  -0.751396  0  2.129216  0
O  O63  1  0.08653725  0.31166290  0.58547762  1  0  -0.831504  0  1.89971  0  0  -0.767006  0  2.107045  0  0  -0.788762  0  2.076398  0  0  -0.567604  -0.751566  0  2.129201  0
