# generated using pymatgen
data_ZnH7C10N3O5
_symmetry_space_group_name_H-M   'P 1'
_cell_length_a   6.71932287
_cell_length_b   8.41037121
_cell_length_c   17.57207803
_cell_angle_alpha   89.99990546
_cell_angle_beta   90.00010628
_cell_angle_gamma   89.99976379
_symmetry_Int_Tables_number   1
_chemical_formula_structural   ZnH7C10N3O5
_chemical_formula_sum   'Zn4 H28 C40 N12 O20'
_cell_volume   993.03326782
_cell_formula_units_Z   4
loop_
 _symmetry_equiv_pos_site_id
 _symmetry_equiv_pos_as_xyz
  1  'x, y, z'
loop_
 _atom_site_type_symbol
 _atom_site_label
 _atom_site_symmetry_multiplicity
 _atom_site_fract_x
 _atom_site_fract_y
 _atom_site_fract_z
 _atom_site_occupancy
 _atom_site_hle17_bader_spin_density
 _atom_site_hle17_ddec_charge
 _atom_site_hle17_ddec_spin_density
 _atom_site_hle17_ddec_sum_bond_order
 _atom_site_hle17_magmom
 _atom_site_hse06_10hf_bader_spin_density
 _atom_site_hse06_10hf_ddec_charge
 _atom_site_hse06_10hf_ddec_spin_density
 _atom_site_hse06_10hf_ddec_sum_bond_order
 _atom_site_hse06_10hf_magmom
 _atom_site_hse06_bader_spin_density
 _atom_site_hse06_ddec_charge
 _atom_site_hse06_ddec_spin_density
 _atom_site_hse06_ddec_sum_bond_order
 _atom_site_hse06_magmom
 _atom_site_pbe_bader_spin_density
 _atom_site_pbe_cm5_charge
 _atom_site_pbe_ddec_charge
 _atom_site_pbe_ddec_spin_density
 _atom_site_pbe_ddec_sum_bond_order
 _atom_site_pbe_magmom
Zn  Zn0  1  0.25729163  0.90492515  0.68770895  1  0  1.091991  0  1.768588  0  0  0.914456  0  2.214799  0  0  0.961317  0  2.162418  0  0  0.692793  0.881591  0  2.25063  0
Zn  Zn1  1  0.24270919  0.09507594  0.18770693  1  0  1.091964  0  1.768534  0  0  0.91441  0  2.214754  0  0  0.961271  0  2.162375  0  0  0.692761  0.881543  0  2.250583  0
Zn  Zn2  1  0.75729130  0.59507540  0.31229264  1  0  1.091989  0  1.768479  0  0  0.914448  0  2.214693  0  0  0.961313  0  2.162311  0  0  0.692761  0.881584  0  2.250522  0
Zn  Zn3  1  0.74271267  0.40492481  0.81229333  1  0  1.092008  0  1.768577  0  0  0.914465  0  2.214807  0  0  0.961329  0  2.162423  0  0  0.692765  0.881598  0  2.250637  0
H  H4  1  0.79775130  0.57468824  0.52169419  1  0  0.317762  0  0.899683  0  0  0.2908  0  0.97485  0  0  0.300476  0  0.966295  0  0  0.315604  0.283931  0  0.980978  0
H  H5  1  0.70224977  0.42531416  0.02169473  1  0  0.317779  0  0.899659  0  0  0.290813  0  0.974839  0  0  0.30049  0  0.966283  0  0  0.315617  0.283946  0  0.98096  0
H  H6  1  0.29774901  0.92531337  0.47830686  1  0  0.317745  0  0.899683  0  0  0.290793  0  0.974819  0  0  0.300469  0  0.966266  0  0  0.315615  0.283923  0  0.980948  0
H  H7  1  0.20224876  0.07468672  0.97830551  1  0  0.317801  0  0.89964  0  0  0.290844  0  0.974794  0  0  0.300521  0  0.966238  0  0  0.315616  0.283974  0  0.980924  0
H  H8  1  0.96739780  0.19303029  0.70299908  1  0  0.103808  0  0.986788  0  0  0.106825  0  1.056471  0  0  0.111284  0  1.051776  0  0  0.119693  0.103479  0  1.060073  0
H  H9  1  0.53260714  0.80697386  0.20299863  1  0  0.103775  0  0.986892  0  0  0.106827  0  1.056518  0  0  0.111288  0  1.051819  0  0  0.119679  0.103475  0  1.060113  0
H  H10  1  0.46739226  0.30696852  0.29700077  1  0  0.103719  0  0.986877  0  0  0.106801  0  1.056491  0  0  0.111262  0  1.051792  0  0  0.119662  0.103455  0  1.06009  0
H  H11  1  0.03261058  0.69302981  0.79700052  1  0  0.10377  0  0.98696  0  0  0.10686  0  1.056562  0  0  0.111321  0  1.051863  0  0  0.119702  0.103514  0  1.060161  0
H  H12  1  0.13167390  0.52952128  0.52754814  1  0  0.11064  0  0.945551  0  0  0.12043  0  1.006383  0  0  0.123425  0  1.004379  0  0  0.114248  0.118171  0  1.007987  0
H  H13  1  0.36832763  0.47047680  0.02754933  1  0  0.110603  0  0.945572  0  0  0.12038  0  1.006422  0  0  0.123376  0  1.004416  0  0  0.114216  0.118121  0  1.00803  0
H  H14  1  0.63166944  0.97047374  0.47245108  1  0  0.110617  0  0.945538  0  0  0.120375  0  1.006424  0  0  0.123371  0  1.004418  0  0  0.114212  0.118118  0  1.00803  0
H  H15  1  0.86833086  0.02952710  0.97245045  1  0  0.11057  0  0.945568  0  0  0.120329  0  1.006457  0  0  0.123325  0  1.004451  0  0  0.114195  0.118072  0  1.008063  0
H  H16  1  0.48909206  0.11949232  0.58228868  1  0  0.084361  0  0.949998  0  0  0.090735  0  1.017362  0  0  0.09358  0  1.014646  0  0  0.114988  0.088594  0  1.019478  0
H  H17  1  0.01090676  0.88050438  0.08228873  1  0  0.084374  0  0.950022  0  0  0.090754  0  1.017372  0  0  0.093597  0  1.014658  0  0  0.11499  0.088614  0  1.019486  0
H  H18  1  0.98908482  0.38050523  0.41771232  1  0  0.084436  0  0.950018  0  0  0.090794  0  1.017406  0  0  0.093642  0  1.014683  0  0  0.11497  0.088652  0  1.019515  0
H  H19  1  0.51091372  0.61949818  0.91771041  1  0  0.084416  0  0.950031  0  0  0.090781  0  1.017409  0  0  0.093626  0  1.014691  0  0  0.114987  0.088641  0  1.019523  0
H  H20  1  0.43178188  0.36545078  0.50268045  1  0  0.112497  0  0.959589  0  0  0.118958  0  1.022366  0  0  0.122108  0  1.022501  0  0  0.106842  0.116713  0  1.022444  0
H  H21  1  0.06821953  0.63454500  0.00268187  1  0  0.112514  0  0.959556  0  0  0.118963  0  1.02235  0  0  0.122111  0  1.022486  0  0  0.106853  0.11672  0  1.022426  0
H  H22  1  0.93177630  0.13454696  0.49731937  1  0  0.112497  0  0.959596  0  0  0.118952  0  1.022383  0  0  0.122101  0  1.022518  0  0  0.106859  0.116707  0  1.022461  0
H  H23  1  0.56822411  0.86545379  0.99731674  1  0  0.112525  0  0.959588  0  0  0.118987  0  1.022361  0  0  0.122136  0  1.022497  0  0  0.10687  0.116744  0  1.02244  0
H  H24  1  0.94117746  0.84765559  0.60750128  1  0  0.439156  0  0.860867  0  0  0.40736  0  0.925993  0  0  0.418053  0  0.910361  0  0  0.294506  0.399791  0  0.937063  0
H  H25  1  0.55882106  0.15234294  0.10750080  1  0  0.439097  0  0.860932  0  0  0.4073  0  0.926061  0  0  0.417993  0  0.910429  0  0  0.294493  0.399732  0  0.93713  0
H  H26  1  0.44117617  0.65234317  0.39249872  1  0  0.439101  0  0.860923  0  0  0.407313  0  0.926039  0  0  0.418006  0  0.910406  0  0  0.294496  0.399744  0  0.937107  0
H  H27  1  0.05882417  0.34765722  0.89249933  1  0  0.439145  0  0.860872  0  0  0.407343  0  0.926009  0  0  0.418037  0  0.910375  0  0  0.294504  0.399773  0  0.937079  0
H  H28  1  0.82921529  0.91603075  0.68088468  1  0  0.429786  0  0.867032  0  0  0.397125  0  0.933745  0  0  0.408288  0  0.917539  0  0  0.289265  0.389211  0  0.945216  0
H  H29  1  0.67078508  0.08396991  0.18088433  1  0  0.429841  0  0.866972  0  0  0.397181  0  0.933677  0  0  0.408342  0  0.917476  0  0  0.289309  0.389268  0  0.945147  0
H  H30  1  0.32921399  0.58396956  0.31911581  1  0  0.429775  0  0.867049  0  0  0.397111  0  0.933768  0  0  0.408275  0  0.917561  0  0  0.289255  0.389196  0  0.945238  0
H  H31  1  0.17078747  0.41602988  0.81911531  1  0  0.429818  0  0.867004  0  0  0.397156  0  0.933714  0  0  0.408318  0  0.917511  0  0  0.289296  0.389242  0  0.945184  0
C  C32  1  0.40563642  0.57410590  0.73514120  1  0  0.647382  0  3.932231  0  0  0.59095  0  4.234543  0  0  0.62585  0  4.226003  0  0  0.209751  0.567228  0  4.239693  0
C  C33  1  0.09436761  0.42588908  0.23514109  1  0  0.647329  0  3.932318  0  0  0.590864  0  4.234608  0  0  0.625761  0  4.226067  0  0  0.209737  0.567145  0  4.23976  0
C  C34  1  0.90563266  0.92589416  0.26486049  1  0  0.647335  0  3.932411  0  0  0.590881  0  4.23473  0  0  0.62578  0  4.226189  0  0  0.209729  0.567166  0  4.239883  0
C  C35  1  0.59436215  0.07410739  0.76485963  1  0  0.64734  0  3.932341  0  0  0.590822  0  4.234739  0  0  0.625722  0  4.226197  0  0  0.209667  0.567111  0  4.23989  0
C  C36  1  0.02628592  0.37577065  0.61826197  1  0  -0.049054  0  3.760455  0  0  -0.026194  0  3.998006  0  0  -0.033194  0  4.019315  0  0  0.002295  -0.022106  0  3.983853  0
C  C37  1  0.47371605  0.62423068  0.11826254  1  0  -0.048961  0  3.760314  0  0  -0.026144  0  3.997891  0  0  -0.033146  0  4.0192  0  0  0.002302  -0.022056  0  3.98374  0
C  C38  1  0.52628280  0.12422724  0.38173700  1  0  -0.049029  0  3.760228  0  0  -0.02623  0  3.997807  0  0  -0.033226  0  4.019119  0  0  0.002264  -0.02214  0  3.983655  0
C  C39  1  0.97371556  0.87577154  0.88173806  1  0  -0.049056  0  3.760207  0  0  -0.026236  0  3.997765  0  0  -0.033233  0  4.019074  0  0  0.002251  -0.022147  0  3.983614  0
C  C40  1  0.06865970  0.23581117  0.65889355  1  0  0.117314  0  3.612357  0  0  0.079877  0  3.856343  0  0  0.08799  0  3.870651  0  0  0.057719  0.074666  0  3.846815  0
C  C41  1  0.43134247  0.76419121  0.15889341  1  0  0.11717  0  3.612547  0  0  0.079748  0  3.856472  0  0  0.087862  0  3.870782  0  0  0.057669  0.074548  0  3.84693  0
C  C42  1  0.56865715  0.26418777  0.34110659  1  0  0.117402  0  3.612349  0  0  0.079918  0  3.856339  0  0  0.088028  0  3.870648  0  0  0.057748  0.07471  0  3.846806  0
C  C43  1  0.93134548  0.73581115  0.84110545  1  0  0.117381  0  3.612289  0  0  0.079868  0  3.856314  0  0  0.087981  0  3.870622  0  0  0.057719  0.074656  0  3.846786  0
C  C44  1  0.45647109  0.71694524  0.55461954  1  0  0.649056  0  3.923784  0  0  0.595388  0  4.228185  0  0  0.63002  0  4.217079  0  0  0.217693  0.571787  0  4.235159  0
C  C45  1  0.04352760  0.28305274  0.05461780  1  0  0.649093  0  3.923717  0  0  0.595429  0  4.228087  0  0  0.630062  0  4.216982  0  0  0.21775  0.571828  0  4.235053  0
C  C46  1  0.95646895  0.78305584  0.44538446  1  0  0.648931  0  3.923841  0  0  0.595279  0  4.228199  0  0  0.629913  0  4.217095  0  0  0.217689  0.571677  0  4.235167  0
C  C47  1  0.54352377  0.21694866  0.94538175  1  0  0.649117  0  3.9237  0  0  0.595409  0  4.228142  0  0  0.630041  0  4.217037  0  0  0.217762  0.571807  0  4.235116  0
C  C48  1  0.15767539  0.42151168  0.56029219  1  0  -0.030948  0  3.676269  0  0  -0.06171  0  3.928687  0  0  -0.057314  0  3.94558  0  0  -0.063431  -0.064227  0  3.917349  0
C  C49  1  0.34232481  0.57848866  0.06029157  1  0  -0.03089  0  3.676316  0  0  -0.061637  0  3.928705  0  0  -0.057239  0  3.945596  0  0  -0.06339  -0.064154  0  3.917374  0
C  C50  1  0.65767428  0.07848578  0.43970801  1  0  -0.030884  0  3.676198  0  0  -0.061626  0  3.928604  0  0  -0.05723  0  3.945495  0  0  -0.063369  -0.064146  0  3.917275  0
C  C51  1  0.84232288  0.92151637  0.93970723  1  0  -0.03084  0  3.676312  0  0  -0.061584  0  3.928731  0  0  -0.057185  0  3.945619  0  0  -0.063367  -0.064104  0  3.917402  0
C  C52  1  0.57472328  0.56915825  0.68143219  1  0  -0.004033  0  3.759259  0  0  -0.010523  0  4.0195  0  0  -0.013631  0  4.040049  0  0  0.076956  -0.008531  0  4.005782  0
C  C53  1  0.92528006  0.43084003  0.18143231  1  0  -0.004123  0  3.759468  0  0  -0.010457  0  4.019511  0  0  -0.013554  0  4.040048  0  0  0.07695  -0.008484  0  4.005809  0
C  C54  1  0.07472465  0.93083696  0.31856699  1  0  -0.004129  0  3.759408  0  0  -0.010549  0  4.019586  0  0  -0.01365  0  4.040125  0  0  0.076916  -0.008579  0  4.005886  0
C  C55  1  0.42527681  0.06916130  0.81856580  1  0  -0.003989  0  3.759419  0  0  -0.010407  0  4.019609  0  0  -0.013513  0  4.040158  0  0  0.076984  -0.008437  0  4.005903  0
C  C56  1  0.58558268  0.62270891  0.60678761  1  0  0.042092  0  3.666515  0  0  0.027994  0  3.922195  0  0  0.028549  0  3.938781  0  0  0.099783  0.027676  0  3.911212  0
C  C57  1  0.91441881  0.37729319  0.10678663  1  0  0.042058  0  3.666425  0  0  0.027907  0  3.922092  0  0  0.028458  0  3.938675  0  0  0.099731  0.027593  0  3.911103  0
C  C58  1  0.08557874  0.87729102  0.39321385  1  0  0.042099  0  3.666287  0  0  0.027959  0  3.921987  0  0  0.028514  0  3.938569  0  0  0.099749  0.027646  0  3.911001  0
C  C59  1  0.41442010  0.12271055  0.89321204  1  0  0.042064  0  3.666332  0  0  0.027968  0  3.922015  0  0  0.028525  0  3.938599  0  0  0.099792  0.027653  0  3.911027  0
C  C60  1  0.35851027  0.19443452  0.58995930  1  0  0.135497  0  3.679867  0  0  0.099413  0  3.937286  0  0  0.108175  0  3.953304  0  0  0.043271  0.093586  0  3.926655  0
C  C61  1  0.14149007  0.80556334  0.08995950  1  0  0.135425  0  3.679856  0  0  0.099333  0  3.937276  0  0  0.108096  0  3.953295  0  0  0.043242  0.093503  0  3.926644  0
C  C62  1  0.85850487  0.30556347  0.41004161  1  0  0.135371  0  3.679926  0  0  0.099286  0  3.937343  0  0  0.108047  0  3.953362  0  0  0.04325  0.093465  0  3.926704  0
C  C63  1  0.64149363  0.69443878  0.91003916  1  0  0.135426  0  3.680002  0  0  0.099337  0  3.937435  0  0  0.1081  0  3.953453  0  0  0.043223  0.093509  0  3.926802  0
C  C64  1  0.84417468  0.46557150  0.63221618  1  0  0.37  0  3.694796  0  0  0.332363  0  3.961917  0  0  0.348758  0  3.975276  0  0  0.234611  0.32169  0  3.9528  0
C  C65  1  0.65582693  0.53442814  0.13221660  1  0  0.369955  0  3.694706  0  0  0.332341  0  3.961821  0  0  0.348741  0  3.975175  0  0  0.234607  0.321666  0  3.952709  0
C  C66  1  0.34417090  0.03442534  0.36778359  1  0  0.369831  0  3.694681  0  0  0.332329  0  3.961651  0  0  0.348715  0  3.975018  0  0  0.234604  0.321655  0  3.952532  0
C  C67  1  0.15582782  0.96557275  0.86778321  1  0  0.369917  0  3.69465  0  0  0.332424  0  3.961609  0  0  0.34881  0  3.974975  0  0  0.234647  0.321749  0  3.952491  0
C  C68  1  0.32594999  0.32977588  0.54627402  1  0  -0.125083  0  3.746932  0  0  -0.136456  0  4.005455  0  0  -0.144709  0  4.027777  0  0  -0.088672  -0.131323  0  3.990733  0
C  C69  1  0.17405312  0.67022213  0.04627492  1  0  -0.125101  0  3.747031  0  0  -0.136456  0  4.005535  0  0  -0.14471  0  4.027856  0  0  -0.088683  -0.131325  0  3.990815  0
C  C70  1  0.82594401  0.17022102  0.45372573  1  0  -0.12507  0  3.74693  0  0  -0.136423  0  4.005425  0  0  -0.144676  0  4.027747  0  0  -0.088693  -0.131291  0  3.990706  0
C  C71  1  0.67405173  0.82977988  0.95372433  1  0  -0.125133  0  3.747009  0  0  -0.1365  0  4.005524  0  0  -0.144754  0  4.027845  0  0  -0.088697  -0.13137  0  3.99081  0
N  N72  1  0.73587522  0.47278409  0.69623588  1  0  -0.427754  0  3.180826  0  0  -0.367046  0  3.461987  0  0  -0.386728  0  3.476434  0  0  -0.330515  -0.353639  0  3.452022  0
N  N73  1  0.76412968  0.52721770  0.19623639  1  0  -0.427653  0  3.180857  0  0  -0.366996  0  3.461962  0  0  -0.386684  0  3.476408  0  0  -0.330467  -0.353583  0  3.452003  0
N  N74  1  0.23587116  0.02721430  0.30376380  1  0  -0.427629  0  3.180834  0  0  -0.366999  0  3.461969  0  0  -0.386679  0  3.476413  0  0  -0.330482  -0.353587  0  3.452008  0
N  N75  1  0.26413022  0.97278402  0.80376293  1  0  -0.427663  0  3.18082  0  0  -0.367028  0  3.461939  0  0  -0.386707  0  3.476392  0  0  -0.330487  -0.353618  0  3.451979  0
N  N76  1  0.75298061  0.55348344  0.57717026  1  0  -0.3357  0  3.424858  0  0  -0.277405  0  3.658842  0  0  -0.293545  0  3.67143  0  0  -0.363285  -0.266645  0  3.650323  0
N  N77  1  0.74701925  0.44651757  0.07717024  1  0  -0.33569  0  3.424845  0  0  -0.277421  0  3.658854  0  0  -0.293561  0  3.671437  0  0  -0.363302  -0.266657  0  3.650328  0
N  N78  1  0.25297794  0.94651712  0.42283075  1  0  -0.335582  0  3.424702  0  0  -0.277314  0  3.65865  0  0  -0.293453  0  3.671242  0  0  -0.363283  -0.266555  0  3.650124  0
N  N79  1  0.24702105  0.05348435  0.92282888  1  0  -0.335747  0  3.424849  0  0  -0.277507  0  3.658811  0  0  -0.293645  0  3.671404  0  0  -0.363346  -0.26675  0  3.650291  0
N  N80  1  0.23002734  0.14688263  0.64420442  1  0  -0.324728  0  3.264626  0  0  -0.246775  0  3.530962  0  0  -0.265352  0  3.546627  0  0  -0.316828  -0.234277  0  3.520245  0
N  N81  1  0.26997327  0.85311861  0.14420410  1  0  -0.324583  0  3.26453  0  0  -0.246642  0  3.530844  0  0  -0.265221  0  3.546511  0  0  -0.316764  -0.234137  0  3.520115  0
N  N82  1  0.73002292  0.35311458  0.35579640  1  0  -0.324738  0  3.264594  0  0  -0.246789  0  3.530951  0  0  -0.265365  0  3.546616  0  0  -0.31682  -0.234294  0  3.520233  0
N  N83  1  0.76997532  0.64688309  0.85579521  1  0  -0.324749  0  3.264618  0  0  -0.246791  0  3.530993  0  0  -0.26537  0  3.546657  0  0  -0.31681  -0.234294  0  3.520276  0
O  O84  1  0.26057093  0.66631969  0.72129642  1  0  -0.625479  0  2.102851  0  0  -0.559555  0  2.367199  0  0  -0.587126  0  2.355199  0  0  -0.314228  -0.540275  0  2.37489  0
O  O85  1  0.23943154  0.33367415  0.22129649  1  0  -0.625502  0  2.102892  0  0  -0.559563  0  2.36724  0  0  -0.587133  0  2.355239  0  0  -0.314253  -0.540287  0  2.374943  0
O  O86  1  0.76056772  0.83367847  0.27870346  1  0  -0.625523  0  2.102894  0  0  -0.559619  0  2.367282  0  0  -0.587192  0  2.355282  0  0  -0.314256  -0.540327  0  2.374949  0
O  O87  1  0.73943163  0.16632185  0.77870320  1  0  -0.625525  0  2.102808  0  0  -0.559579  0  2.367214  0  0  -0.587152  0  2.355217  0  0  -0.314234  -0.54027  0  2.374835  0
O  O88  1  0.41029353  0.47578314  0.79051944  1  0  -0.635456  0  2.009705  0  0  -0.573617  0  2.250692  0  0  -0.600279  0  2.240069  0  0  -0.305287  -0.554926  0  2.2573  0
O  O89  1  0.08970482  0.52421165  0.29052209  1  0  -0.635363  0  2.009648  0  0  -0.573546  0  2.250646  0  0  -0.600219  0  2.240046  0  0  -0.305261  -0.554859  0  2.25727  0
O  O90  1  0.91029158  0.02421705  0.20948151  1  0  -0.635376  0  2.009698  0  0  -0.573544  0  2.250702  0  0  -0.6002  0  2.240071  0  0  -0.305269  -0.554854  0  2.257308  0
O  O91  1  0.58970744  0.97578708  0.70947880  1  0  -0.635423  0  2.009669  0  0  -0.57356  0  2.250679  0  0  -0.600223  0  2.240071  0  0  -0.305253  -0.554876  0  2.257296  0
O  O92  1  0.45321328  0.66850993  0.48692466  1  0  -0.614497  0  1.997447  0  0  -0.565082  0  2.230379  0  0  -0.588545  0  2.220736  0  0  -0.31356  -0.548563  0  2.236559  0
O  O93  1  0.04676965  0.33149370  0.98692243  1  0  -0.614566  0  1.997431  0  0  -0.565085  0  2.230292  0  0  -0.588548  0  2.220648  0  0  -0.313598  -0.548563  0  2.236464  0
O  O94  1  0.95323057  0.83149949  0.51307877  1  0  -0.614477  0  1.997636  0  0  -0.565018  0  2.230496  0  0  -0.588481  0  2.220854  0  0  -0.313562  -0.548497  0  2.236674  0
O  O95  1  0.54677195  0.16850888  0.01307542  1  0  -0.614516  0  1.997523  0  0  -0.565049  0  2.230438  0  0  -0.588513  0  2.2208  0  0  -0.313574  -0.548532  0  2.236623  0
O  O96  1  0.36332305  0.84047736  0.57816761  1  0  -0.646448  0  2.08227  0  0  -0.578445  0  2.345689  0  0  -0.606075  0  2.331906  0  0  -0.313449  -0.558955  0  2.354533  0
O  O97  1  0.13667575  0.15952173  0.07816604  1  0  -0.646401  0  2.082357  0  0  -0.578406  0  2.345778  0  0  -0.606036  0  2.331993  0  0  -0.31339  -0.558917  0  2.354621  0
O  O98  1  0.86331994  0.65952641  0.42183519  1  0  -0.646365  0  2.082334  0  0  -0.578358  0  2.345723  0  0  -0.60599  0  2.331942  0  0  -0.313342  -0.558868  0  2.354562  0
O  O99  1  0.63667415  0.34048055  0.92183244  1  0  -0.646482  0  2.082224  0  0  -0.578468  0  2.345678  0  0  -0.606099  0  2.331893  0  0  -0.313457  -0.558981  0  2.354523  0
O  O100  1  0.95423541  0.86404119  0.66311337  1  0  -0.832154  0  1.889636  0  0  -0.769887  0  2.09943  0  0  -0.791397  0  2.065397  0  0  -0.580761  -0.75467  0  2.123064  0
O  O101  1  0.54576635  0.13595715  0.16311232  1  0  -0.832145  0  1.889616  0  0  -0.769869  0  2.099412  0  0  -0.79138  0  2.065379  0  0  -0.580779  -0.754653  0  2.123045  0
O  O102  1  0.45423394  0.63595990  0.33688778  1  0  -0.832083  0  1.889682  0  0  -0.769797  0  2.099441  0  0  -0.79131  0  2.065406  0  0  -0.58072  -0.75458  0  2.123073  0
O  O103  1  0.04576910  0.36404187  0.83688666  1  0  -0.832145  0  1.889613  0  0  -0.769861  0  2.099413  0  0  -0.791374  0  2.065375  0  0  -0.580761  -0.754646  0  2.123044  0
