# generated using pymatgen
data_SmH6(C2O3)3
_symmetry_space_group_name_H-M   'P 1'
_cell_length_a   8.27045614
_cell_length_b   8.54124319
_cell_length_c   9.01583903
_cell_angle_alpha   94.60794665
_cell_angle_beta   116.65846706
_cell_angle_gamma   111.04296389
_symmetry_Int_Tables_number   1
_chemical_formula_structural   SmH6(C2O3)3
_chemical_formula_sum   'Sm2 H12 C12 O18'
_cell_volume   508.47694553
_cell_formula_units_Z   2
loop_
 _symmetry_equiv_pos_site_id
 _symmetry_equiv_pos_as_xyz
  1  'x, y, z'
loop_
 _atom_site_type_symbol
 _atom_site_label
 _atom_site_symmetry_multiplicity
 _atom_site_fract_x
 _atom_site_fract_y
 _atom_site_fract_z
 _atom_site_occupancy
 _atom_site_hle17_bader_spin_density
 _atom_site_hle17_ddec_charge
 _atom_site_hle17_ddec_spin_density
 _atom_site_hle17_ddec_sum_bond_order
 _atom_site_hle17_magmom
 _atom_site_hse06_10hf_bader_spin_density
 _atom_site_hse06_10hf_ddec_charge
 _atom_site_hse06_10hf_ddec_spin_density
 _atom_site_hse06_10hf_ddec_sum_bond_order
 _atom_site_hse06_10hf_magmom
 _atom_site_hse06_bader_spin_density
 _atom_site_hse06_ddec_charge
 _atom_site_hse06_ddec_spin_density
 _atom_site_hse06_ddec_sum_bond_order
 _atom_site_hse06_magmom
 _atom_site_pbe_bader_spin_density
 _atom_site_pbe_cm5_charge
 _atom_site_pbe_ddec_charge
 _atom_site_pbe_ddec_spin_density
 _atom_site_pbe_ddec_sum_bond_order
 _atom_site_pbe_magmom
Sm  Sm0  1  0.41135456  0.98154263  0.22764237  1  0  2.353925  0  1.547708  0  0  2.258478  0  1.889513  0  0  2.301392  0  1.847087  0  0  1.493974  2.227646  0  1.918983  0
Sm  Sm1  1  0.58864498  0.01845780  0.77235714  1  0  2.353965  0  1.547642  0  0  2.258513  0  1.889441  0  0  2.301423  0  1.847016  0  0  1.493988  2.227683  0  1.918912  0
H  H2  1  0.14488607  0.10737133  0.94039932  1  0  0.451478  0  0.838896  0  0  0.422666  0  0.897085  0  0  0.433393  0  0.881544  0  0  0.308665  0.415106  0  0.908024  0
H  H3  1  0.85510878  0.89262514  0.05959908  1  0  0.451427  0  0.838942  0  0  0.422651  0  0.897078  0  0  0.433377  0  0.881539  0  0  0.308661  0.415093  0  0.908014  0
H  H4  1  0.59768224  0.80086904  0.09497537  1  0  0.442659  0  0.854714  0  0  0.414831  0  0.912259  0  0  0.425506  0  0.896651  0  0  0.298258  0.407258  0  0.923339  0
H  H5  1  0.40231328  0.19912873  0.90502563  1  0  0.442638  0  0.854738  0  0  0.414832  0  0.912237  0  0  0.425503  0  0.896638  0  0  0.29829  0.407262  0  0.923314  0
H  H6  1  0.53346621  0.67606459  0.20407505  1  0  0.442784  0  0.850917  0  0  0.411949  0  0.913033  0  0  0.422885  0  0.896917  0  0  0.29626  0.404227  0  0.924406  0
H  H7  1  0.46652935  0.32393058  0.79592464  1  0  0.442816  0  0.850871  0  0  0.411954  0  0.913028  0  0  0.422892  0  0.896908  0  0  0.296257  0.404233  0  0.9244  0
H  H8  1  0.29852861  0.69333850  0.38297604  1  0  0.431233  0  0.875633  0  0  0.399092  0  0.942407  0  0  0.409704  0  0.927088  0  0  0.29898  0.391615  0  0.953187  0
H  H9  1  0.70146956  0.30666191  0.61702181  1  0  0.431221  0  0.875649  0  0  0.399084  0  0.942416  0  0  0.409698  0  0.927094  0  0  0.298967  0.391608  0  0.953197  0
H  H10  1  0.20156141  0.59061661  0.18674286  1  0  0.449047  0  0.797441  0  0  0.43118  0  0.85196  0  0  0.43922  0  0.842203  0  0  0.332661  0.425463  0  0.85859  0
H  H11  1  0.79843742  0.40938512  0.81325536  1  0  0.449029  0  0.797431  0  0  0.431161  0  0.851956  0  0  0.439199  0  0.842223  0  0  0.332656  0.425444  0  0.858585  0
H  H12  1  0.33793232  0.27794043  0.09956845  1  0  0.43246  0  0.864972  0  0  0.399295  0  0.930898  0  0  0.411241  0  0.913356  0  0  0.302461  0.390851  0  0.943287  0
H  H13  1  0.66206183  0.72205734  0.90042977  1  0  0.432521  0  0.86489  0  0  0.399309  0  0.930881  0  0  0.411254  0  0.913341  0  0  0.302472  0.390866  0  0.943269  0
C  C14  1  0.15255746  0.77892308  0.80830247  1  0  0.784946  0  3.936197  0  0  0.738837  0  4.221537  0  0  0.777451  0  4.202916  0  0  0.244869  0.712434  0  4.233935  0
C  C15  1  0.84744339  0.22107996  0.19169890  1  0  0.784941  0  3.936242  0  0  0.738817  0  4.221604  0  0  0.777415  0  4.203014  0  0  0.244872  0.712415  0  4.234001  0
C  C16  1  0.96431105  0.66897075  0.64849212  1  0  -0.097708  0  3.643259  0  0  -0.097189  0  3.897448  0  0  -0.099867  0  3.914986  0  0  -0.007839  -0.095716  0  3.885975  0
C  C17  1  0.03566830  0.33101648  0.35149591  1  0  -0.097838  0  3.642723  0  0  -0.097336  0  3.89698  0  0  -0.100007  0  3.914518  0  0  -0.007893  -0.095866  0  3.885509  0
C  C18  1  0.60735625  0.44168568  0.38085700  1  0  0.754403  0  3.933732  0  0  0.700124  0  4.229114  0  0  0.737614  0  4.213832  0  0  0.238426  0.674551  0  4.239051  0
C  C19  1  0.39264800  0.55831609  0.61914343  1  0  0.754404  0  3.933956  0  0  0.70008  0  4.229385  0  0  0.737571  0  4.214105  0  0  0.238422  0.674506  0  4.239325  0
C  C20  1  0.16221780  0.99326981  0.38445595  1  0  0.761615  0  3.926494  0  0  0.711827  0  4.216491  0  0  0.749527  0  4.199944  0  0  0.239166  0.686306  0  4.227132  0
C  C21  1  0.83778782  0.00673197  0.61554614  1  0  0.761723  0  3.926411  0  0  0.711933  0  4.216416  0  0  0.749647  0  4.199841  0  0  0.239167  0.686409  0  4.22706  0
C  C22  1  0.80082274  0.57478296  0.51985447  1  0  -0.144876  0  3.661278  0  0  -0.145878  0  3.91909  0  0  -0.150537  0  3.937455  0  0  -0.025173  -0.142979  0  3.906943  0
C  C23  1  0.19919226  0.42522931  0.48015673  1  0  -0.144782  0  3.660601  0  0  -0.145786  0  3.918432  0  0  -0.150446  0  3.936801  0  0  -0.025117  -0.142895  0  3.9063  0
C  C24  1  0.04407383  0.99699987  0.46202194  1  0  -0.100052  0  3.647273  0  0  -0.101338  0  3.904507  0  0  -0.105349  0  3.922694  0  0  0.000574  -0.098936  0  3.892585  0
C  C25  1  0.95593449  0.00300194  0.53797792  1  0  -0.099887  0  3.647101  0  0  -0.101151  0  3.9043  0  0  -0.105169  0  3.922491  0  0  0.000727  -0.098752  0  3.89239  0
O  O26  1  0.14061699  0.78836646  0.94404309  1  0  -0.691078  0  1.947045  0  0  -0.649124  0  2.179895  0  0  -0.673543  0  2.165532  0  0  -0.376454  -0.631965  0  2.189315  0
O  O27  1  0.85938456  0.21163529  0.05595735  1  0  -0.691039  0  1.946884  0  0  -0.649061  0  2.179732  0  0  -0.673475  0  2.16538  0  0  -0.376427  -0.631901  0  2.189149  0
O  O28  1  0.29198005  0.15762120  0.02883689  1  0  -0.91737  0  1.925279  0  0  -0.86604  0  2.107479  0  0  -0.88671  0  2.074465  0  0  -0.609232  -0.851405  0  2.130343  0
O  O29  1  0.70801747  0.84237790  0.97116281  1  0  -0.917374  0  1.925195  0  0  -0.86605  0  2.107432  0  0  -0.886719  0  2.074415  0  0  -0.609247  -0.851417  0  2.130295  0
O  O30  1  0.09540153  0.98021267  0.22445124  1  0  -0.658681  0  1.974647  0  0  -0.611989  0  2.19741  0  0  -0.636322  0  2.185094  0  0  -0.316416  -0.595181  0  2.205443  0
O  O31  1  0.90459600  0.01978642  0.77554957  1  0  -0.658743  0  1.974684  0  0  -0.612029  0  2.197443  0  0  -0.636367  0  2.18512  0  0  -0.316408  -0.595225  0  2.205489  0
O  O32  1  0.23272917  0.69911170  0.26087770  1  0  -0.895506  0  1.869951  0  0  -0.856101  0  2.054201  0  0  -0.874031  0  2.027317  0  0  -0.633168  -0.843474  0  2.072484  0
O  O33  1  0.76726765  0.30088870  0.73912182  1  0  -0.895461  0  1.869936  0  0  -0.856061  0  2.054197  0  0  -0.873992  0  2.027337  0  0  -0.63314  -0.843434  0  2.07248  0
O  O34  1  0.33797414  0.00488857  0.48183573  1  0  -0.766256  0  2.110002  0  0  -0.721747  0  2.363393  0  0  -0.746681  0  2.349993  0  0  -0.394158  -0.704373  0  2.372061  0
O  O35  1  0.66203345  0.99511714  0.51816638  1  0  -0.766285  0  2.110008  0  0  -0.7218  0  2.363431  0  0  -0.746739  0  2.350022  0  0  -0.394151  -0.704427  0  2.372103  0
O  O36  1  0.31119221  0.85600828  0.80251545  1  0  -0.748083  0  2.034153  0  0  -0.709171  0  2.290757  0  0  -0.734568  0  2.276322  0  0  -0.38852  -0.691315  0  2.300245  0
O  O37  1  0.68880665  0.14399084  0.19748258  1  0  -0.748023  0  2.034072  0  0  -0.709101  0  2.29068  0  0  -0.734498  0  2.276266  0  0  -0.388513  -0.691244  0  2.300169  0
O  O38  1  0.53246127  0.78175844  0.16597379  1  0  -0.960726  0  1.892228  0  0  -0.919032  0  2.082345  0  0  -0.938045  0  2.050124  0  0  -0.666078  -0.905477  0  2.104653  0
O  O39  1  0.46753561  0.21823934  0.83402776  1  0  -0.960737  0  1.892214  0  0  -0.919063  0  2.082383  0  0  -0.938073  0  2.050163  0  0  -0.666121  -0.905509  0  2.10469  0
O  O40  1  0.56138875  0.28903362  0.40381722  1  0  -0.724526  0  2.052849  0  0  -0.672684  0  2.29124  0  0  -0.699744  0  2.280274  0  0  -0.355081  -0.653665  0  2.298209  0
O  O41  1  0.43861280  0.71096812  0.59618322  1  0  -0.724485  0  2.0528  0  0  -0.672628  0  2.291191  0  0  -0.699689  0  2.280229  0  0  -0.355068  -0.653609  0  2.298163  0
O  O42  1  0.49761635  0.47788200  0.25058672  1  0  -0.599783  0  1.923296  0  0  -0.53812  0  2.122659  0  0  -0.562664  0  2.108496  0  0  -0.282272  -0.521098  0  2.132119  0
O  O43  1  0.50238863  0.52211846  0.74941722  1  0  -0.599935  0  1.923355  0  0  -0.538133  0  2.122619  0  0  -0.562678  0  2.108458  0  0  -0.282295  -0.52111  0  2.13208  0
