# generated using pymatgen
data_Al6H17C72I3O40
_symmetry_space_group_name_H-M   'P 1'
_cell_length_a   12.66030615
_cell_length_b   12.71647481
_cell_length_c   26.78702218
_cell_angle_alpha   82.18603574
_cell_angle_beta   82.34813328
_cell_angle_gamma   65.47079928
_symmetry_Int_Tables_number   1
_chemical_formula_structural   Al6H17C72I3O40
_chemical_formula_sum   'Al6 H17 C72 I3 O40'
_cell_volume   3872.81976268
_cell_formula_units_Z   1
loop_
 _symmetry_equiv_pos_site_id
 _symmetry_equiv_pos_as_xyz
  1  'x, y, z'
loop_
 _atom_site_type_symbol
 _atom_site_label
 _atom_site_symmetry_multiplicity
 _atom_site_fract_x
 _atom_site_fract_y
 _atom_site_fract_z
 _atom_site_occupancy
 _atom_site_pbe_bader_charge
 _atom_site_pbe_bader_spin_density
 _atom_site_pbe_cm5_charge
 _atom_site_pbe_ddec_charge
 _atom_site_pbe_ddec_spin_density
 _atom_site_pbe_ddec_sum_bond_order
 _atom_site_pbe_magmom
Al  Al0  1  0.39458108  0.42187075  0.51049811  1  2.495442  0  0.402364  1.684446  0  2.548971  0
Al  Al1  1  0.64085751  0.44300448  0.49186816  1  2.480534  0  0.513244  1.661523  0  2.508267  0
Al  Al2  1  0.42319441  0.66370819  0.49770613  1  2.478465  0  0.510764  1.662071  0  2.511557  0
Al  Al3  1  0.92860241  0.93554544  0.97654241  1  2.493007  0  0.403826  1.679401  0  2.557941  0
Al  Al4  1  0.89612565  0.69572605  0.99668286  1  2.478303  0  0.509417  1.660365  0  2.512428  0
Al  Al5  1  0.68054480  0.91833844  0.99071862  1  2.476551  0  0.511173  1.659577  0  2.512043  0
H  H6  1  0.82979047  0.09827733  0.27478862  1  0.1506  0  0.110467  0.136099  0  1.002511  0
H  H7  1  0.47585915  0.75704063  0.78494389  1  0.102411  0  0.120334  0.118585  0  0.961583  0
H  H8  1  0.57925607  0.85670392  0.70228873  1  0.102347  0  0.115765  0.110859  0  0.968089  0
H  H9  1  0.76798336  0.46730284  0.78741456  1  0.122228  0  0.123848  0.128544  0  0.953238  0
H  H10  1  0.78839234  0.77373965  0.75199551  1  0.110914  0  0.116936  0.115155  0  0.967208  0
H  H11  1  0.30525749  0.76879726  0.24908241  1  0.092207  0  0.112215  0.118542  0  0.96573  0
H  H12  1  0.34418729  0.57483182  0.19702031  1  0.143215  0  0.111847  0.13364  0  0.995694  0
H  H13  1  0.45807155  0.30519484  0.19977949  1  0.103467  0  0.107884  0.109439  0  0.986936  0
H  H14  1  0.49903993  0.13708937  0.28488348  1  0.092193  0  0.110613  0.117866  0  0.970643  0
H  H15  1  0.82705256  0.82230350  0.20818488  1  0.625704  0  0.313099  0.362165  0  0.946618  0
H  H16  1  0.44222135  0.50031131  0.70490580  1  0.614745  0  0.343712  0.381482  0  0.859644  0
H  H17  1  0.99891044  0.45044290  0.65148298  1  0.632931  0  0.357007  0.395242  0  0.833481  0
H  H18  1  0.81472734  0.80029030  0.33570235  1  0.633861  0  0.345181  0.396193  0  0.848685  0
H  H19  1  0.85371688  0.62579827  0.21438384  1  0.623381  0  0.333158  0.370309  0  0.896562  0
H  H20  1  0.54219096  0.56752601  0.27746480  1  0.593401  0  0.322845  0.355345  0  0.91725  0
H  H21  1  0.30932224  0.30022718  0.55357011  1  0.584787  0  0.294369  0.383703  0  0.921738  0
H  H22  1  0.02669855  0.04549058  0.99356321  1  0.591451  0  0.297697  0.38823  0  0.914635  0
C  C23  1  0.59023411  0.31514919  0.43066999  1  1.669631  0  0.281058  0.712945  0  4.158129  0
C  C24  1  0.63655078  0.69696544  0.26753868  1  -0.103929  0  0.004676  -0.00303  0  4.190952  0
C  C25  1  0.63160441  0.68494808  0.31816865  1  -0.166544  0  0.003345  0.044684  0  4.214442  0
C  C26  1  0.62456215  0.66886787  0.36446217  1  0.128145  0  0.017313  -0.106975  0  3.765562  0
C  C27  1  0.06106897  0.74696997  0.27309906  1  0.007844  0  0.012225  -0.059856  0  3.605247  0
C  C28  1  0.12052400  0.79737064  0.22650022  1  -0.115775  0  -0.030584  0.02217  0  3.547293  0
C  C29  1  0.08698018  0.70797665  0.10391006  1  -0.175456  0  -0.027965  -0.168142  0  3.925408  0
C  C30  1  0.22999898  0.66052089  0.39022034  1  0.37473  0  -0.023144  -0.164229  0  3.925513  0
C  C31  1  0.08404994  0.63758502  0.24506901  1  0.042803  0  0.006565  -0.0726  0  3.622765  0
C  C32  1  0.14158643  0.68916549  0.19688012  1  0.114865  0  0.014969  0.108145  0  3.779404  0
C  C33  1  0.20633129  0.57342256  0.26624746  1  -0.131404  0  -0.029268  0.018942  0  3.557036  0
C  C34  1  0.60086372  0.63642278  0.41693292  1  1.718479  0  0.286926  0.695671  0  4.184122  0
C  C35  1  0.18491418  0.68193597  0.29561370  1  0.126886  0  0.017424  0.108423  0  3.787084  0
C  C36  1  0.26391246  0.62376774  0.21927530  1  -0.026859  0  -0.067171  -0.089787  0  3.597076  0
C  C37  1  0.24240604  0.73124031  0.24764569  1  -0.006437  0  -0.068284  -0.084757  0  3.618064  0
C  C38  1  0.11586231  0.69539716  0.14663094  1  -0.063823  0  -0.026408  -0.0249  0  4.066511  0
C  C39  1  0.20603944  0.67573774  0.34655406  1  -0.59234  0  -0.025011  -0.030389  0  4.068817  0
C  C40  1  0.56278665  0.16693852  0.26373556  1  0.004235  0  -0.065415  -0.093611  0  3.629537  0
C  C41  1  0.54051643  0.25822883  0.21688203  1  -0.011496  0  -0.062743  -0.08328  0  3.63282  0
C  C42  1  0.68873053  0.11666306  0.09497809  1  -0.200077  0  -0.030826  -0.180825  0  3.932261  0
C  C43  1  0.61187839  0.27023123  0.38226543  1  0.201497  0  -0.033881  -0.187355  0  3.935193  0
C  C44  1  0.67847557  0.08604296  0.23608347  1  -0.002135  0  0.008893  -0.031112  0  3.609485  0
C  C45  1  0.27906149  0.62912306  0.43833322  1  1.651659  0  0.284631  0.707996  0  4.162726  0
C  C46  1  0.65690934  0.17764374  0.18749906  1  0.119054  0  0.01381  0.101012  0  3.774372  0
C  C47  1  0.74683717  0.14587540  0.25824623  1  -0.006512  0  -0.060324  -0.100966  0  3.567026  0
C  C48  1  0.63022062  0.22555674  0.28764048  1  0.123511  0  0.014667  0.11917  0  3.773339  0
C  C49  1  0.72356709  0.23716063  0.21161191  1  -0.125023  0  -0.02381  0.034741  0  3.534221  0
C  C50  1  0.60581168  0.31867687  0.23991150  1  -0.000981  0  0.002096  -0.07149  0  3.653514  0
C  C51  1  0.67220613  0.14807865  0.13736996  1  -0.066806  0  -0.020152  -0.010928  0  4.058598  0
C  C52  1  0.61961421  0.24917720  0.33859496  1  -0.441395  0  -0.015359  -0.001256  0  4.03629  0
C  C53  1  0.62131590  0.77036792  0.72172669  1  -0.022521  0  -0.059558  -0.069557  0  3.620829  0
C  C54  1  0.56419242  0.71604602  0.76704745  1  -0.020285  0  -0.049774  -0.074011  0  3.569925  0
C  C55  1  0.69393403  0.69851528  0.88939889  1  0.006186  0  -0.036169  -0.207765  0  3.952011  0
C  C56  1  0.60192021  0.30037768  0.57351324  1  1.682513  0  0.277925  0.697538  0  4.183719  0
C  C57  1  0.64727106  0.63916702  0.59954347  1  -0.070006  0  -0.035323  -0.202069  0  3.938826  0
C  C58  1  0.73627407  0.72530438  0.74854902  1  -0.012132  0  -0.051822  -0.072744  0  3.57813  0
C  C59  1  0.67889069  0.67050608  0.79545957  1  0.11162  0  0.016877  0.117318  0  3.797388  0
C  C60  1  0.78375486  0.60962198  0.72283602  1  0.020691  0  0.010049  -0.039653  0  3.621543  0
C  C61  1  0.66823928  0.65469535  0.69434119  1  0.121576  0  0.019861  0.092382  0  3.751519  0
C  C62  1  0.72616803  0.55450914  0.76872207  1  -0.00836  0  -0.045533  -0.08382  0  3.557745  0
C  C63  1  0.61223471  0.59838805  0.74150283  1  0.049134  0  0.012951  -0.034131  0  3.614535  0
C  C64  1  0.68621127  0.68318142  0.84630768  1  -0.247007  0  0.001406  0.011341  0  4.023874  0
C  C65  1  0.65910845  0.64641038  0.64319228  1  -0.137409  0  -0.003088  0.020313  0  4.035966  0
C  C66  1  0.09834940  0.69554363  0.86642587  1  0.153059  0  0.009648  -0.122511  0  3.81123  0
C  C67  1  0.61665248  0.61764983  0.55369412  1  1.641328  0  0.286428  0.72746  0  4.142938  0
C  C68  1  0.12925315  0.68149760  0.82156552  1  -0.138182  0  0.001492  0.035344  0  4.234711  0
C  C69  1  0.15942942  0.66940829  0.77215855  1  0.093703  0  0.008672  0.011551  0  4.165674  0
C  C70  1  0.18273368  0.66179828  0.72624769  1  -0.074704  0  0.002361  0.001897  0  4.181639  0
C  C71  1  0.21043036  0.65242332  0.67655167  1  -0.352193  0  -0.005672  0.030356  0  4.259939  0
C  C72  1  0.23888218  0.64332076  0.63120917  1  0.191282  0  -0.000751  -0.137054  0  3.825164  0
C  C73  1  0.70700663  0.10076110  0.85717945  1  0.276989  0  0.011987  -0.11654  0  3.803668  0
C  C74  1  0.69281095  0.13184796  0.81227825  1  -0.369053  0  0.000908  0.034735  0  4.232067  0
C  C75  1  0.67832204  0.16276912  0.76298048  1  0.300815  0  0.00781  0.01261  0  4.177969  0
C  C76  1  0.66609172  0.18829551  0.71736852  1  -0.245834  0  -0.003069  -0.012562  0  4.188678  0
C  C77  1  0.65012493  0.21841397  0.66813976  1  0.140517  0  -0.007299  0.03045  0  4.258345  0
C  C78  1  0.28873068  0.61897849  0.58051444  1  1.65706  0  0.275939  0.693616  0  4.18723  0
C  C79  1  0.63378877  0.24766995  0.62326339  1  -0.280127  0  -0.001769  -0.13943  0  3.827597  0
C  C80  1  0.03454302  0.73647057  0.05668697  1  1.670672  0  0.279459  0.710796  0  4.1603  0
C  C81  1  0.70331602  0.74082611  0.07186223  1  1.670153  0  0.288626  0.699901  0  4.174458  0
C  C82  1  0.71990252  0.06011425  0.04903095  1  1.691868  0  0.279985  0.716026  0  4.152037  0
C  C83  1  0.04318833  0.72732626  0.91575286  1  1.663643  0  0.281544  0.687388  0  4.18682  0
C  C84  1  0.71603190  0.72934141  0.93508577  1  1.650758  0  0.286401  0.726829  0  4.145872  0
C  C85  1  0.73324236  0.04881800  0.90761282  1  1.685105  0  0.2813  0.687722  0  4.186309  0
C  C86  1  0.66816305  0.71878993  0.12411032  1  0.278024  0  0.018766  -0.101077  0  3.772186  0
C  C87  1  0.65074483  0.71046358  0.17034353  1  -0.357938  0  -0.002009  0.033184  0  4.232492  0
C  C88  1  0.63914594  0.70243360  0.22101341  1  0.070989  0  0.000735  -0.017135  0  4.190901  0
C  C89  1  0.71861968  0.95809959  0.23980797  1  1.543432  0  0.231065  0.588858  0  4.117691  0
C  C90  1  0.54235913  0.52843200  0.74292772  1  1.527348  0  0.23299  0.574756  0  4.141603  0
C  C91  1  0.90661754  0.55013078  0.70180970  1  1.52039  0  0.232275  0.573995  0  4.146883  0
C  C92  1  0.95302422  0.81319949  0.30442323  1  1.546006  0  0.228222  0.579327  0  4.137166  0
C  C93  1  0.99742274  0.58837974  0.24210167  1  1.500196  0  0.235995  0.594345  0  4.083006  0
C  C94  1  0.56640135  0.44607842  0.23791086  1  1.551131  0  0.225749  0.571392  0  4.154047  0
I  I95  1  0.05659875  0.97039317  0.19420812  1  0.146648  0  0.073704  -0.03311  0  1.490793  0
I  I96  1  0.84704980  0.29562884  0.17110875  1  0.112592  0  0.073962  -0.009748  0  1.353129  0
I  I97  1  0.27756019  0.40346685  0.30158449  1  0.153383  0  0.120681  0.027935  0  1.414544  0
O  O98  1  0.29665325  0.52887831  0.45911582  1  -1.212358  0  -0.194896  -0.525985  0  2.27882  0
O  O99  1  0.68393362  0.52357710  0.53395252  1  -1.24771  0  -0.22599  -0.588762  0  2.243426  0
O  O100  1  0.52054888  0.69135439  0.53695588  1  -1.248142  0  -0.227799  -0.595155  0  2.249819  0
O  O101  1  0.31546785  0.69815648  0.55364470  1  -1.248884  0  -0.237335  -0.594347  0  2.230041  0
O  O102  1  0.48720299  0.51078332  0.49994454  1  -1.608053  0  -0.390125  -1.275188  0  2.291015  0
O  O103  1  0.82084108  0.03840496  0.02758713  1  -1.219832  0  -0.208628  -0.563826  0  2.288884  0
O  O104  1  0.01552868  0.83579666  0.03449943  1  -1.213756  0  -0.204033  -0.553362  0  2.293125  0
O  O105  1  0.00722918  0.65870052  0.04223213  1  -1.249671  0  -0.241621  -0.604757  0  2.230093  0
O  O106  1  0.80207038  0.66820444  0.05481357  1  -1.23406  0  -0.217234  -0.570926  0  2.254346  0
O  O107  1  0.63628670  0.83393567  0.04835202  1  -1.233292  0  -0.214577  -0.564352  0  2.248974  0
O  O108  1  0.64235068  0.03199034  0.03458616  1  -1.248062  0  -0.241717  -0.605107  0  2.229486  0
O  O109  1  0.49307868  0.33185970  0.45513913  1  -1.217939  0  -0.203925  -0.552109  0  2.291895  0
O  O110  1  0.83415984  0.02452148  0.91971369  1  -1.197755  0  -0.194554  -0.525905  0  2.282306  0
O  O111  1  0.02668208  0.82659726  0.92675170  1  -1.197385  0  -0.193374  -0.5221  0  2.281871  0
O  O112  1  0.01130422  0.65267969  0.94354610  1  -1.242908  0  -0.23571  -0.594784  0  2.240173  0
O  O113  1  0.80673755  0.65848451  0.95673761  1  -1.24348  0  -0.226546  -0.590915  0  2.245534  0
O  O114  1  0.64656988  0.82860012  0.94978949  1  -1.245505  0  -0.226  -0.590331  0  2.247654  0
O  O115  1  0.65126751  0.02821321  0.93536558  1  -1.24942  0  -0.235028  -0.59477  0  2.239622  0
O  O116  1  0.83390476  0.84872109  0.98851107  1  -1.606141  0  -0.389839  -1.27355  0  2.29251  0
O  O117  1  0.67144603  0.33898497  0.44447415  1  -1.251274  0  -0.241787  -0.606472  0  2.227209  0
O  O118  1  0.67255478  0.53922480  0.43557188  1  -1.22704  0  -0.212558  -0.561085  0  2.249407  0
O  O119  1  0.50634936  0.70508871  0.43900299  1  -1.23241  0  -0.216048  -0.568179  0  2.252733  0
O  O120  1  0.30572092  0.70500925  0.45477934  1  -1.248317  0  -0.239757  -0.602735  0  2.239285  0
O  O121  1  0.30590517  0.52130796  0.56724394  1  -1.206828  0  -0.207165  -0.555614  0  2.296542  0
O  O122  1  0.49962176  0.32253901  0.56354791  1  -1.205651  0  -0.208697  -0.56052  0  2.290204  0
O  O123  1  0.67952501  0.32455228  0.54409653  1  -1.250215  0  -0.233911  -0.590646  0  2.23609  0
O  O124  1  0.68586051  0.90504549  0.27589098  1  -1.146282  0  -0.291634  -0.512454  0  2.143862  0
O  O125  1  0.79603555  0.90812027  0.20156122  1  -1.128596  0  -0.330344  -0.476283  0  2.30284  0
O  O126  1  0.53108351  0.46536427  0.77998756  1  -1.122126  0  -0.286739  -0.477717  0  2.05581  0
O  O127  1  0.49022487  0.54543025  0.69967295  1  -1.110003  0  -0.327494  -0.482475  0  2.255085  0
O  O128  1  0.98913771  0.55643520  0.71814877  1  -1.123099  0  -0.284586  -0.483643  0  2.086496  0
O  O129  1  0.91599345  0.48703827  0.66318984  1  -1.119701  0  -0.326519  -0.476117  0  2.21162  0
O  O130  1  0.92448248  0.91324877  0.31357194  1  -1.120045  0  -0.273044  -0.465481  0  2.121023  0
O  O131  1  0.89150122  0.74842816  0.32123936  1  -1.112832  0  -0.326609  -0.477299  0  2.260341  0
O  O132  1  0.00357409  0.49332379  0.25993052  1  -1.096685  0  -0.26621  -0.446714  0  2.09726  0
O  O133  1  0.90719208  0.66388695  0.21441512  1  -1.126385  0  -0.326008  -0.497511  0  2.31466  0
O  O134  1  0.54102565  0.51018556  0.19887409  1  -1.143914  0  -0.286718  -0.490583  0  2.129045  0
O  O135  1  0.56310396  0.48360697  0.28318917  1  -1.095377  0  -0.323724  -0.466131  0  2.293051  0
O  O136  1  0.30756729  0.34319947  0.52081328  1  -1.365667  0  -0.572227  -0.985857  0  1.793179  0
O  O137  1  0.01604784  0.01347511  0.96484309  1  -1.36475  0  -0.56925  -0.983895  0  1.792169  0
