# generated using pymatgen
data_Zn4H13C45N3O13F2
_symmetry_space_group_name_H-M   'P 1'
_cell_length_a   25.63846137
_cell_length_b   25.64747509
_cell_length_c   25.61708228
_cell_angle_alpha   59.95509478
_cell_angle_beta   90.02670479
_cell_angle_gamma   119.99614026
_symmetry_Int_Tables_number   1
_chemical_formula_structural   Zn4H13C45N3O13F2
_chemical_formula_sum   'Zn8 H26 C90 N6 O26 F4'
_cell_volume   11906.46512617
_cell_formula_units_Z   2
loop_
 _symmetry_equiv_pos_site_id
 _symmetry_equiv_pos_as_xyz
  1  'x, y, z'
loop_
 _atom_site_type_symbol
 _atom_site_label
 _atom_site_symmetry_multiplicity
 _atom_site_fract_x
 _atom_site_fract_y
 _atom_site_fract_z
 _atom_site_occupancy
 _atom_site_pbe_bader_charge
 _atom_site_pbe_bader_spin_density
 _atom_site_pbe_cm5_charge
 _atom_site_pbe_ddec_charge
 _atom_site_pbe_ddec_spin_density
 _atom_site_pbe_ddec_sum_bond_order
 _atom_site_pbe_magmom
Zn  Zn0  1  0.84419569  0.56257882  0.71956548  1  1.30381  0  0.677194  0.967648  0  2.357093  0
Zn  Zn1  1  0.15580452  0.43742126  0.28043407  1  1.303729  0  0.677255  0.967745  0  2.356982  0
Zn  Zn2  1  0.71839946  0.56264900  0.71933651  1  1.304636  0  0.675894  0.967619  0  2.357934  0
Zn  Zn3  1  0.28160158  0.43735191  0.28066310  1  1.304605  0  0.675941  0.967646  0  2.357915  0
Zn  Zn4  1  0.71875976  0.43749930  0.84433971  1  1.304397  0  0.67509  0.965318  0  2.366143  0
Zn  Zn5  1  0.28124044  0.56250029  0.15566060  1  1.304301  0  0.675087  0.965321  0  2.366169  0
Zn  Zn6  1  0.71829257  0.43701330  0.71910590  1  1.30665  0  0.675126  0.967803  0  2.359424  0
Zn  Zn7  1  0.28170880  0.56298746  0.28089325  1  1.306641  0  0.675197  0.967937  0  2.359321  0
H  H8  1  0.60301311  0.62088101  0.44217035  1  0.109841  0  0.122518  0.123118  0  0.959111  0
H  H9  1  0.52404474  0.59179632  0.88704209  1  0.079989  0  0.106407  0.095948  0  0.985061  0
H  H10  1  0.01784856  0.95469775  0.44227664  1  0.104084  0  0.122079  0.12261  0  0.959545  0
H  H11  1  0.98215193  0.04530261  0.55772397  1  0.104054  0  0.122071  0.122591  0  0.959555  0
H  H12  1  0.11253614  0.04496535  0.47283661  1  0.097247  0  0.122387  0.123674  0  0.959426  0
H  H13  1  0.88746402  0.95503516  0.52716445  1  0.097194  0  0.122382  0.123653  0  0.959442  0
H  H14  1  0.11279666  0.58946267  0.47885576  1  0.15343  0  0.133556  0.155577  0  0.941001  0
H  H15  1  0.88720279  0.41053474  0.52114537  1  0.156497  0  0.133529  0.155557  0  0.940994  0
H  H16  1  0.93182664  0.37697541  0.02249291  1  0.09674  0  0.107225  0.096182  0  0.984177  0
H  H17  1  0.06817379  0.62302489  0.97750685  1  0.096739  0  0.107218  0.096184  0  0.984215  0
H  H18  1  0.06742989  0.46638268  0.97837542  1  0.063663  0  0.107126  0.096052  0  0.984308  0
H  H19  1  0.39698761  0.37912006  0.55782970  1  0.109867  0  0.122508  0.123099  0  0.959158  0
H  H20  1  0.93257077  0.53361833  0.02162380  1  0.063651  0  0.107123  0.096064  0  0.984322  0
H  H21  1  0.93243659  0.41019837  0.11300891  1  0.105302  0  0.107076  0.096952  0  0.983468  0
H  H22  1  0.06756413  0.58980318  0.88699037  1  0.10528  0  0.107118  0.097019  0  0.983422  0
H  H23  1  0.44507506  0.04497410  0.02425839  1  0.102885  0  0.119233  0.129562  0  0.963287  0
H  H24  1  0.55492470  0.95502552  0.97574070  1  0.102866  0  0.119198  0.129506  0  0.963291  0
H  H25  1  0.48025012  0.95539828  0.11308633  1  0.087061  0  0.118494  0.129379  0  0.96464  0
H  H26  1  0.51975003  0.04460173  0.88691237  1  0.087015  0  0.118498  0.129415  0  0.964656  0
H  H27  1  0.48217187  0.59472651  0.47272240  1  0.099602  0  0.122576  0.123774  0  0.959118  0
H  H28  1  0.51782824  0.40527395  0.52727782  1  0.099562  0  0.122569  0.123744  0  0.959133  0
H  H29  1  0.60008208  0.53091609  0.02335441  1  0.067096  0  0.107383  0.096634  0  0.983768  0
H  H30  1  0.39991789  0.46908230  0.97664723  1  0.067138  0  0.107369  0.096666  0  0.983706  0
H  H31  1  0.55574524  0.62219199  0.97938078  1  0.100067  0  0.106261  0.094504  0  0.984773  0
H  H32  1  0.44425472  0.37780641  0.02062086  1  0.09994  0  0.106243  0.094483  0  0.984764  0
H  H33  1  0.47595545  0.40820231  0.11295978  1  0.079921  0  0.106403  0.095933  0  0.985069  0
C  C34  1  0.65065727  0.50039001  0.65017921  1  1.653343  0  0.236082  0.676846  0  4.238355  0
C  C35  1  0.96288656  0.51863221  0.01254069  1  -0.037682  0  -0.064249  -0.071601  0  3.620795  0
C  C36  1  0.96247197  0.43151744  0.01302208  1  -0.003667  0  -0.063729  -0.070325  0  3.620636  0
C  C37  1  0.03752869  0.56848357  0.98697714  1  -0.003696  0  -0.063754  -0.070415  0  3.620717  0
C  C38  1  0.88919535  0.49966646  0.88972722  1  0.129335  0  -0.055377  -0.213045  0  4.003039  0
C  C39  1  0.11080486  0.50033409  0.11027154  1  0.129447  0  -0.055427  -0.213117  0  4.003084  0
C  C40  1  0.03801353  0.54999824  0.93748026  1  -0.033654  0  -0.067474  -0.078271  0  3.630946  0
C  C41  1  0.96198674  0.45000238  0.06251935  1  -0.033685  0  -0.06747  -0.078254  0  3.630947  0
C  C42  1  0.96244356  0.50034047  0.96171880  1  0.101264  0  0.009158  0.115274  0  3.799122  0
C  C43  1  0.03755710  0.49966054  0.03828041  1  0.101133  0  0.009211  0.115465  0  3.798958  0
C  C44  1  0.92298137  0.49983730  0.92323135  1  -0.419747  0  -0.017221  -0.021323  0  4.075073  0
C  C45  1  0.34934299  0.49961013  0.34982118  1  1.653167  0  0.235963  0.67663  0  4.238498  0
C  C46  1  0.07701945  0.50016339  0.07676803  1  -0.419968  0  -0.017198  -0.021316  0  4.075031  0
C  C47  1  0.44482118  0.97544484  0.98880750  1  0.617934  0  0.116521  0.274911  0  3.727637  0
C  C48  1  0.55517864  0.02455533  0.01119165  1  0.617855  0  0.116541  0.274937  0  3.727622  0
C  C49  1  0.84980306  0.49983899  0.84997910  1  1.642686  0  0.231277  0.682107  0  4.238985  0
C  C50  1  0.15019676  0.50016070  0.15002083  1  1.642667  0  0.23123  0.682019  0  4.238957  0
C  C51  1  0.46934735  0.02457264  0.01404765  1  -0.041379  0  -0.067016  -0.140292  0  3.619431  0
C  C52  1  0.53065264  0.97542770  0.98595089  1  -0.041729  0  -0.067023  -0.140315  0  3.619494  0
C  C53  1  0.61030309  0.22142326  0.88924277  1  0.100935  0  -0.044677  -0.192738  0  3.982129  0
C  C54  1  0.38969844  0.77857718  0.11075653  1  0.100658  0  -0.044708  -0.192882  0  3.982249  0
C  C55  1  0.51113215  0.02451182  0.93713545  1  0.001537  0  -0.070577  -0.146689  0  3.628124  0
C  C56  1  0.93730182  0.45018163  0.51170702  1  -0.033869  0  -0.054141  -0.161737  0  3.594505  0
C  C57  1  0.48886767  0.97548835  0.06286371  1  0.001154  0  -0.070555  -0.146632  0  3.628  0
C  C58  1  0.53729849  0.07641911  0.96096320  1  0.065878  0  0.005767  0.067524  0  3.811843  0
C  C59  1  0.46270133  0.92358105  0.03903595  1  0.065767  0  0.005771  0.067646  0  3.811742  0
C  C60  1  0.57614340  0.15426459  0.92240926  1  -0.329749  0  -0.023655  -0.020652  0  4.084202  0
C  C61  1  0.42385658  0.84573574  0.07758928  1  -0.329489  0  -0.023629  -0.020584  0  4.084222  0
C  C62  1  0.52993636  0.51470512  0.44524488  1  0.10472  0  0.029978  0.056567  0  3.735661  0
C  C63  1  0.47006436  0.48529594  0.55475518  1  0.104718  0  0.029989  0.056598  0  3.735576  0
C  C64  1  0.55685064  0.56729831  0.46780463  1  0.007026  0  -0.048289  -0.085492  0  3.586274  0
C  C65  1  0.44314986  0.43270254  0.53219520  1  0.006989  0  -0.048298  -0.085508  0  3.586355  0
C  C66  1  0.61077454  0.50043089  0.61037635  1  0.178239  0  -0.031989  -0.164013  0  3.956798  0
C  C67  1  0.06269740  0.54981507  0.48829465  1  -0.030728  0  -0.054141  -0.161675  0  3.594579  0
C  C68  1  0.38922556  0.49956908  0.38962465  1  0.178277  0  -0.03206  -0.164181  0  3.956836  0
C  C69  1  0.50938735  0.44704806  0.51529852  1  0.012408  0  -0.050719  -0.089557  0  3.592127  0
C  C70  1  0.49061315  0.55295278  0.48470131  1  0.012336  0  -0.050696  -0.089584  0  3.592093  0
C  C71  1  0.53838532  0.49993314  0.53759843  1  0.152726  0  0.02514  0.113872  0  3.784134  0
C  C72  1  0.46161517  0.50006722  0.46240218  1  0.152728  0  0.025158  0.113802  0  3.78426  0
C  C73  1  0.84971747  0.69925446  0.65020031  1  1.745552  0  0.236122  0.675926  0  4.239588  0
C  C74  1  0.15028400  0.30074592  0.34979815  1  1.745532  0  0.236131  0.675919  0  4.239522  0
C  C75  1  0.57745175  0.50041341  0.57653085  1  -0.430919  0  -0.024416  -0.045156  0  4.075119  0
C  C76  1  0.42254891  0.49958711  0.42346914  1  -0.430927  0  -0.024323  -0.044902  0  4.075057  0
C  C77  1  0.53144832  0.56801974  0.98801014  1  -0.075166  0  -0.064598  -0.070734  0  3.621549  0
C  C78  1  0.96079345  0.49868706  0.53861682  1  0.097092  0  0.021418  0.065081  0  3.796467  0
C  C79  1  0.46855203  0.43197905  0.01199111  1  -0.075087  0  -0.064587  -0.070711  0  3.621544  0
C  C80  1  0.55522380  0.51714515  0.01347365  1  0.008099  0  -0.064447  -0.07201  0  3.621932  0
C  C81  1  0.44477616  0.48285325  0.98652799  1  0.008119  0  -0.064409  -0.072041  0  3.621855  0
C  C82  1  0.61049190  0.49986538  0.88957171  1  0.097993  0  -0.055007  -0.21049  0  4.002854  0
C  C83  1  0.38950791  0.50013431  0.11042822  1  0.097975  0  -0.055042  -0.210552  0  4.002941  0
C  C84  1  0.51300702  0.55110942  0.93750729  1  -0.008343  0  -0.067976  -0.078392  0  3.631906  0
C  C85  1  0.48699294  0.44888898  0.06249436  1  -0.008315  0  -0.068001  -0.078437  0  3.631957  0
C  C86  1  0.53792707  0.50043760  0.96165279  1  0.102023  0  0.008914  0.116702  0  3.799399  0
C  C87  1  0.46207289  0.49956080  0.03834885  1  0.102067  0  0.00893  0.116734  0  3.799324  0
C  C88  1  0.57687724  0.49998915  0.92309829  1  -0.377673  0  -0.019199  -0.026582  0  4.079191  0
C  C89  1  0.03920529  0.50131059  0.46138438  1  0.097101  0  0.021387  0.064874  0  3.796692  0
C  C90  1  0.42312273  0.50000973  0.07690258  1  -0.37767  0  -0.019109  -0.026432  0  4.079191  0
C  C91  1  0.98476942  0.02478207  0.44521203  1  0.086279  0  0.029602  0.055445  0  3.736987  0
C  C92  1  0.01523091  0.97521861  0.55478842  1  0.086145  0  0.029628  0.055546  0  3.736891  0
C  C93  1  0.01043604  0.97527292  0.46787375  1  0.024849  0  -0.048208  -0.085469  0  3.586697  0
C  C94  1  0.98956390  0.02472736  0.53212709  1  0.024967  0  -0.048195  -0.085455  0  3.586704  0
C  C95  1  0.88959365  0.77891738  0.61042806  1  0.092394  0  -0.031336  -0.162047  0  3.95517  0
C  C96  1  0.11040672  0.22108286  0.38957087  1  0.092327  0  -0.031308  -0.162027  0  3.955171  0
C  C97  1  0.65025963  0.30076385  0.84951428  1  1.666116  0  0.233476  0.680272  0  4.239443  0
C  C98  1  0.34974081  0.69923693  0.15048471  1  1.666119  0  0.233507  0.680393  0  4.239314  0
C  C99  1  0.93766897  0.97538334  0.51524144  1  0.016238  0  -0.050585  -0.090054  0  3.592993  0
C  C100  1  0.92207757  0.49881690  0.57761239  1  -0.344985  0  -0.028426  -0.040818  0  4.082015  0
C  C101  1  0.06233120  0.02461718  0.48475962  1  0.016142  0  -0.050618  -0.090138  0  3.592993  0
C  C102  1  0.96153039  0.92402887  0.53765379  1  0.142333  0  0.025542  0.116136  0  3.782279  0
C  C103  1  0.03846995  0.07597181  0.46234666  1  0.142359  0  0.025503  0.11608  0  3.782317  0
C  C104  1  0.92292805  0.84605699  0.57660244  1  -0.434027  0  -0.02532  -0.047737  0  4.074946  0
C  C105  1  0.07707199  0.15394292  0.42339772  1  -0.433965  0  -0.025308  -0.047699  0  4.075011  0
C  C106  1  0.65008889  0.50001219  0.84983617  1  1.640506  0  0.230493  0.680386  0  4.239557  0
C  C107  1  0.34991154  0.49998811  0.15016359  1  1.640503  0  0.230461  0.680303  0  4.239651  0
C  C108  1  0.84942472  0.50014516  0.65050325  1  1.715977  0  0.237692  0.674148  0  4.239948  0
C  C109  1  0.15057571  0.49985514  0.34949651  1  1.715987  0  0.237672  0.674097  0  4.240022  0
C  C110  1  0.98709104  0.43266390  0.52956618  1  0.67469  0  0.130404  0.25713  0  3.722755  0
C  C111  1  0.07792172  0.50118082  0.42238858  1  -0.344927  0  -0.028443  -0.040836  0  4.082043  0
C  C112  1  0.01290857  0.56733319  0.47043511  1  0.674114  0  0.130433  0.257097  0  3.722527  0
C  C113  1  0.01260289  0.48073811  0.55689588  1  0.079534  0  0.025824  -0.00186  0  3.743553  0
C  C114  1  0.98739693  0.51925872  0.44310640  1  0.080093  0  0.025937  -0.001581  0  3.743474  0
C  C115  1  0.88921817  0.49969018  0.61096611  1  0.088394  0  -0.02125  -0.144938  0  3.936648  0
C  C116  1  0.11078174  0.50030864  0.38903391  1  0.088298  0  -0.021243  -0.144865  0  3.936679  0
C  C117  1  0.02470165  0.45984882  0.61585861  1  0.87347  0  0.17181  0.231146  0  4.010518  0
C  C118  1  0.97529864  0.54014943  0.38414258  1  0.873955  0  0.171702  0.231028  0  4.010556  0
C  C119  1  0.56036325  0.52992870  0.38813339  1  0.815821  0  0.168385  0.213936  0  4.020498  0
C  C120  1  0.43963779  0.47007173  0.61186699  1  0.8157  0  0.168439  0.213948  0  4.020562  0
C  C121  1  0.96952536  0.05134611  0.38807714  1  0.830955  0  0.168743  0.214786  0  4.022163  0
C  C122  1  0.03711433  0.48136903  0.98745876  1  -0.037426  0  -0.064248  -0.071565  0  3.620755  0
C  C123  1  0.03047490  0.94865402  0.61192325  1  0.830966  0  0.168673  0.214646  0  4.022073  0
N  N124  1  0.03413005  0.44191557  0.66459496  1  -1.086869  0  -0.295497  -0.329736  0  2.65732  0
N  N125  1  0.96587037  0.55808376  0.33540636  1  -1.087268  0  -0.295457  -0.329728  0  2.657395  0
N  N126  1  0.58515461  0.54238784  0.34117511  1  -1.087757  0  -0.308602  -0.345041  0  2.675434  0
N  N127  1  0.41484996  0.45761611  0.65882489  1  -1.087647  0  -0.308658  -0.345057  0  2.67551  0
N  N128  1  0.95714275  0.07337652  0.34111219  1  -1.092198  0  -0.309577  -0.346175  0  2.676811  0
N  N129  1  0.04285713  0.92662322  0.65888858  1  -1.092237  0  -0.309535  -0.346098  0  2.676732  0
O  O130  1  0.75013588  0.50030775  0.74962287  1  -1.173075  0  -0.569347  -1.037766  0  2.523074  0
O  O131  1  0.21057984  0.54465376  0.12138182  1  -1.155335  0  -0.311573  -0.540005  0  2.283986  0
O  O132  1  0.66600117  0.45560854  0.66553117  1  -1.146055  0  -0.306458  -0.534078  0  2.273366  0
O  O133  1  0.33399910  0.54439159  0.33446922  1  -1.145973  0  -0.306381  -0.533963  0  2.273352  0
O  O134  1  0.87906021  0.54468694  0.78950185  1  -1.144425  0  -0.312152  -0.54079  0  2.280609  0
O  O135  1  0.12094061  0.45531375  0.21049753  1  -1.144316  0  -0.312119  -0.540747  0  2.280578  0
O  O136  1  0.78960881  0.66847504  0.66558927  1  -1.144605  0  -0.305436  -0.532627  0  2.273543  0
O  O137  1  0.21039242  0.33152464  0.33440974  1  -1.144709  0  -0.305485  -0.532704  0  2.273467  0
O  O138  1  0.66592121  0.33216570  0.87830866  1  -1.154093  0  -0.305993  -0.532235  0  2.278768  0
O  O139  1  0.33407899  0.66783438  0.12169088  1  -1.15412  0  -0.306016  -0.532258  0  2.278663  0
O  O140  1  0.66592638  0.54511296  0.78936342  1  -1.150371  0  -0.312661  -0.541123  0  2.279062  0
O  O141  1  0.24986510  0.49969262  0.25037667  1  -1.173066  0  -0.569346  -1.037731  0  2.522977  0
O  O142  1  0.33407427  0.45488757  0.21063657  1  -1.150371  0  -0.312649  -0.541087  0  2.279156  0
O  O143  1  0.78937680  0.45549440  0.66569721  1  -1.147193  0  -0.303906  -0.530565  0  2.271954  0
O  O144  1  0.21062363  0.54450638  0.33430178  1  -1.147199  0  -0.30391  -0.530619  0  2.272049  0
O  O145  1  0.66569759  0.45525756  0.87854368  1  -1.14278  0  -0.310975  -0.539106  0  2.283011  0
O  O146  1  0.33430262  0.54474252  0.12145586  1  -1.142682  0  -0.311016  -0.53914  0  2.283006  0
O  O147  1  0.87866810  0.54501472  0.66560544  1  -1.142296  0  -0.300272  -0.52426  0  2.270749  0
O  O148  1  0.12133288  0.45498566  0.33439409  1  -1.142297  0  -0.300293  -0.524288  0  2.270757  0
O  O149  1  0.87887883  0.66831369  0.66549985  1  -1.1535  0  -0.303671  -0.528751  0  2.273789  0
O  O150  1  0.12112403  0.33168761  0.33449845  1  -1.153438  0  -0.303693  -0.528757  0  2.273829  0
O  O151  1  0.66592728  0.33171244  0.78912568  1  -1.157719  0  -0.311804  -0.5407  0  2.276587  0
O  O152  1  0.33407354  0.66828825  0.21087369  1  -1.157687  0  -0.311834  -0.54081  0  2.276528  0
O  O153  1  0.66633700  0.54509218  0.66555803  1  -1.153375  0  -0.303526  -0.528813  0  2.272923  0
O  O154  1  0.33366327  0.45490795  0.33444235  1  -1.153191  0  -0.30351  -0.528728  0  2.272946  0
O  O155  1  0.78942052  0.45534600  0.87861788  1  -1.155335  0  -0.311578  -0.54003  0  2.284038  0
F  F156  1  0.97443268  0.36471890  0.55947497  1  -0.622515  0  -0.096435  -0.141284  0  1.3043  0
F  F157  1  0.02556693  0.63527867  0.44052554  1  -0.622398  0  -0.096426  -0.141305  0  1.304175  0
F  F158  1  0.38801232  0.94961103  0.97789424  1  -0.630332  0  -0.120235  -0.175519  0  1.282493  0
F  F159  1  0.61198782  0.05038850  0.02210523  1  -0.630312  0  -0.120245  -0.175528  0  1.282472  0
