# generated using pymatgen
data_Cu3H10C13I3N4
_symmetry_space_group_name_H-M   'P 1'
_cell_length_a   9.32588176
_cell_length_b   9.50375390
_cell_length_c   10.71810186
_cell_angle_alpha   99.85700683
_cell_angle_beta   108.66423842
_cell_angle_gamma   97.35584750
_symmetry_Int_Tables_number   1
_chemical_formula_structural   Cu3H10C13I3N4
_chemical_formula_sum   'Cu6 H20 C26 I6 N8'
_cell_volume   869.53817508
_cell_formula_units_Z   2
loop_
 _symmetry_equiv_pos_site_id
 _symmetry_equiv_pos_as_xyz
  1  'x, y, z'
loop_
 _atom_site_type_symbol
 _atom_site_label
 _atom_site_symmetry_multiplicity
 _atom_site_fract_x
 _atom_site_fract_y
 _atom_site_fract_z
 _atom_site_occupancy
 _atom_site_hle17_bader_spin_density
 _atom_site_hle17_ddec_charge
 _atom_site_hle17_ddec_spin_density
 _atom_site_hle17_ddec_sum_bond_order
 _atom_site_hle17_magmom
 _atom_site_hse06_10hf_bader_spin_density
 _atom_site_hse06_10hf_ddec_charge
 _atom_site_hse06_10hf_ddec_spin_density
 _atom_site_hse06_10hf_ddec_sum_bond_order
 _atom_site_hse06_10hf_magmom
 _atom_site_hse06_bader_spin_density
 _atom_site_hse06_ddec_charge
 _atom_site_hse06_ddec_spin_density
 _atom_site_hse06_ddec_sum_bond_order
 _atom_site_hse06_magmom
 _atom_site_pbe_bader_spin_density
 _atom_site_pbe_cm5_charge
 _atom_site_pbe_ddec_charge
 _atom_site_pbe_ddec_spin_density
 _atom_site_pbe_ddec_sum_bond_order
 _atom_site_pbe_magmom
Cu  Cu0  1  0.71480811  0.71037775  0.75847052  1  0  0.293365  0  2.172822  0  0  0.203771  0  2.664292  0  0  0.210797  0  2.613632  0  0  0.328035  0.202175  0  2.696046  0
Cu  Cu1  1  0.28519000  0.28962262  0.24153093  1  0  0.293361  0  2.172936  0  0  0.203734  0  2.664435  0  0  0.210759  0  2.613771  0  0  0.328038  0.20215  0  2.696166  0
Cu  Cu2  1  0.49836287  0.66083084  0.53073395  1  0  0.165266  0  2.30814  0  0  0.111422  0  2.781414  0  0  0.131518  0  2.717161  0  0  0.129934  0.098046  0  2.82496  0
Cu  Cu3  1  0.50163751  0.33916955  0.46927186  1  0  0.165241  0  2.308186  0  0  0.111394  0  2.781471  0  0  0.131489  0  2.717215  0  0  0.129933  0.098044  0  2.824956  0
Cu  Cu4  1  0.40636230  0.91927380  0.53857746  1  0  0.240735  0  2.200759  0  0  0.165722  0  2.670489  0  0  0.178597  0  2.616124  0  0  0.240153  0.159408  0  2.705401  0
Cu  Cu5  1  0.59363811  0.08073207  0.46143195  1  0  0.240661  0  2.200858  0  0  0.165675  0  2.670531  0  0  0.178516  0  2.616232  0  0  0.240117  0.159355  0  2.705454  0
H  H6  1  0.29197146  0.01933536  0.93892381  1  0  0.110197  0  0.957856  0  0  0.121158  0  1.02115  0  0  0.124173  0  1.017923  0  0  0.115406  0.117901  0  1.025665  0
H  H7  1  0.70803024  0.98066060  0.06107520  1  0  0.110214  0  0.957856  0  0  0.121175  0  1.02115  0  0  0.124188  0  1.017923  0  0  0.115422  0.117917  0  1.025663  0
H  H8  1  0.26440340  0.83877400  0.10461861  1  0  0.125423  0  1.000542  0  0  0.133209  0  1.065949  0  0  0.136607  0  1.065457  0  0  0.09177  0.130326  0  1.067165  0
H  H9  1  0.73559651  0.16122417  0.89538209  1  0  0.125407  0  1.000564  0  0  0.133188  0  1.065973  0  0  0.136586  0  1.065483  0  0  0.091776  0.130306  0  1.067188  0
H  H10  1  0.11643490  0.67083060  0.19022224  1  0  0.111285  0  0.952708  0  0  0.119897  0  1.017864  0  0  0.122904  0  1.017878  0  0  0.099702  0.117634  0  1.01802  0
H  H11  1  0.88356704  0.32916646  0.80977793  1  0  0.111295  0  0.952707  0  0  0.119917  0  1.017849  0  0  0.122924  0  1.017864  0  0  0.0997  0.117657  0  1.018007  0
H  H12  1  0.95161825  0.48904252  0.25352363  1  0  0.093097  0  0.960784  0  0  0.102199  0  1.025002  0  0  0.105923  0  1.021541  0  0  0.091885  0.099971  0  1.026294  0
H  H13  1  0.04838282  0.51096113  0.74648191  1  0  0.093118  0  0.960787  0  0  0.102212  0  1.025015  0  0  0.105934  0  1.021555  0  0  0.091903  0.099983  0  1.026306  0
H  H14  1  0.67248603  0.40098232  0.10617859  1  0  0.097642  0  0.977771  0  0  0.105234  0  1.044292  0  0  0.108667  0  1.043127  0  0  0.090248  0.101902  0  1.047143  0
H  H15  1  0.32751301  0.59902244  0.89382748  1  0  0.097704  0  0.977734  0  0  0.105323  0  1.044222  0  0  0.108757  0  1.043056  0  0  0.090261  0.101987  0  1.047075  0
H  H16  1  0.57148562  0.49867538  0.89749274  1  0  0.072485  0  0.949675  0  0  0.080149  0  1.017802  0  0  0.082972  0  1.015186  0  0  0.103712  0.077889  0  1.019956  0
H  H17  1  0.42851545  0.50132827  0.10251281  1  0  0.072519  0  0.949631  0  0  0.080194  0  1.017754  0  0  0.083022  0  1.01514  0  0  0.103693  0.077934  0  1.019912  0
H  H18  1  0.24924099  0.09571813  0.76110630  1  0  0.105302  0  0.961808  0  0  0.113947  0  1.028098  0  0  0.117699  0  1.024485  0  0  0.099277  0.110263  0  1.032763  0
H  H19  1  0.75075960  0.90428327  0.23889132  1  0  0.105284  0  0.961832  0  0  0.113955  0  1.028089  0  0  0.117707  0  1.024475  0  0  0.099282  0.11027  0  1.032754  0
H  H20  1  0.17623962  0.24195305  0.58939860  1  0  0.097588  0  1.00193  0  0  0.105212  0  1.068537  0  0  0.107825  0  1.068726  0  0  0.084032  0.103314  0  1.067966  0
H  H21  1  0.82375825  0.75804620  0.41059982  1  0  0.097587  0  1.001944  0  0  0.105197  0  1.068555  0  0  0.107814  0  1.068733  0  0  0.084029  0.1033  0  1.067983  0
H  H22  1  0.89520654  0.23338472  0.46494869  1  0  0.078785  0  0.939629  0  0  0.083134  0  1.011378  0  0  0.08652  0  1.008351  0  0  0.101554  0.080417  0  1.013779  0
H  H23  1  0.10479090  0.76661784  0.53505475  1  0  0.078736  0  0.939666  0  0  0.083104  0  1.011389  0  0  0.086481  0  1.008372  0  0  0.101554  0.080386  0  1.013788  0
H  H24  1  0.76114030  0.95051912  0.68039225  1  0  0.07513  0  0.997897  0  0  0.071065  0  1.092057  0  0  0.077767  0  1.082019  0  0  0.09595  0.065688  0  1.099688  0
H  H25  1  0.23885960  0.04947904  0.31960751  1  0  0.075125  0  0.997848  0  0  0.071021  0  1.092054  0  0  0.077728  0  1.082021  0  0  0.095892  0.065638  0  1.099694  0
C  C26  1  0.19089283  0.94577608  0.93453409  1  0  0.014835  0  3.654178  0  0  -0.049288  0  3.921502  0  0  -0.040658  0  3.93452  0  0  0.013854  -0.054436  0  3.912528  0
C  C27  1  0.80910821  0.05422208  0.06546599  1  0  0.014776  0  3.654109  0  0  -0.049355  0  3.921441  0  0  -0.040723  0  3.934456  0  0  0.01386  -0.054497  0  3.91246  0
C  C28  1  0.17419890  0.85462292  0.01773986  1  0  -0.20641  0  3.735444  0  0  -0.227252  0  4.002278  0  0  -0.23694  0  4.023102  0  0  -0.108425  -0.220784  0  3.987424  0
C  C29  1  0.82580303  0.14537413  0.98225937  1  0  -0.20633  0  3.735359  0  0  -0.227185  0  4.002168  0  0  -0.236876  0  4.022992  0  0  -0.108452  -0.220716  0  3.987316  0
C  C30  1  0.01574936  0.78900709  0.96643580  1  0  0.134327  0  3.775652  0  0  0.120745  0  4.039892  0  0  0.127787  0  4.057235  0  0  0.094965  0.116193  0  4.027596  0
C  C31  1  0.98425144  0.21098997  0.03356312  1  0  0.134301  0  3.775741  0  0  0.120792  0  4.039868  0  0  0.127844  0  4.057193  0  0  0.094981  0.11623  0  4.027591  0
C  C32  1  0.92957254  0.68158219  0.01122194  1  0  0.175771  0  3.771151  0  0  0.177109  0  4.00673  0  0  0.183501  0  4.025401  0  0  0.111007  0.172545  0  3.994039  0
C  C33  1  0.07042826  0.31841488  0.98877791  1  0  0.175851  0  3.771228  0  0  0.177153  0  4.006785  0  0  0.183542  0  4.025452  0  0  0.111035  0.172589  0  3.994101  0
C  C34  1  0.99501282  0.63116434  0.12800008  1  0  -0.133779  0  3.693916  0  0  -0.152369  0  3.938472  0  0  -0.159565  0  3.960735  0  0  -0.08402  -0.147931  0  3.924208  0
C  C35  1  0.00498798  0.36883273  0.87199978  1  0  -0.133841  0  3.693885  0  0  -0.152451  0  3.938456  0  0  -0.159646  0  3.960717  0  0  -0.084031  -0.148014  0  3.924196  0
C  C36  1  0.90236464  0.52993589  0.16322125  1  0  0.000196  0  3.724871  0  0  -0.017519  0  3.972817  0  0  -0.012977  0  3.989093  0  0  -0.072921  -0.020387  0  3.960921  0
C  C37  1  0.09763733  0.47006666  0.83678345  1  0  0.000292  0  3.724878  0  0  -0.017419  0  3.97283  0  0  -0.012873  0  3.989104  0  0  -0.072933  -0.020283  0  3.960928  0
C  C38  1  0.74743030  0.48101966  0.08143158  1  0  -0.120643  0  3.734993  0  0  -0.130752  0  3.981371  0  0  -0.137084  0  4.001504  0  0  -0.089898  -0.126582  0  3.967973  0
C  C39  1  0.25257008  0.51898072  0.91857330  1  0  -0.120856  0  3.735058  0  0  -0.130982  0  3.981443  0  0  -0.137317  0  4.001574  0  0  -0.089922  -0.12681  0  3.968042  0
C  C40  1  0.69096931  0.53466096  0.96598495  1  0  0.120964  0  3.714073  0  0  0.09241  0  3.964537  0  0  0.098909  0  3.980749  0  0  0.035303  0.088514  0  3.953481  0
C  C41  1  0.30903196  0.46533831  0.03401815  1  0  0.120993  0  3.71382  0  0  0.092406  0  3.964265  0  0  0.098896  0  3.980484  0  0  0.035292  0.08851  0  3.953213  0
C  C42  1  0.01026478  0.01387306  0.73737224  1  0  0.119442  0  3.767595  0  0  0.101102  0  4.014122  0  0  0.102171  0  4.037604  0  0  0.102239  0.100724  0  3.996577  0
C  C43  1  0.98973649  0.98612618  0.26262805  1  0  0.119454  0  3.767639  0  0  0.101049  0  4.014218  0  0  0.102118  0  4.037707  0  0  0.102182  0.100671  0  3.996672  0
C  C44  1  0.12776205  0.09560062  0.70988697  1  0  -0.09285  0  3.703352  0  0  -0.119373  0  3.959252  0  0  -0.118052  0  3.976527  0  0  -0.075678  -0.120827  0  3.948317  0
C  C45  1  0.87223651  0.90440189  0.29011212  1  0  -0.09288  0  3.703419  0  0  -0.11939  0  3.959284  0  0  -0.118071  0  3.976559  0  0  -0.075705  -0.120847  0  3.948352  0
C  C46  1  0.08717948  0.17656700  0.61237424  1  0  -0.094891  0  3.761644  0  0  -0.104095  0  4.003305  0  0  -0.109896  0  4.026012  0  0  -0.089418  -0.099956  0  3.987601  0
C  C47  1  0.91281773  0.82343446  0.38762618  1  0  -0.094851  0  3.761567  0  0  -0.104072  0  4.003281  0  0  -0.109874  0  4.025988  0  0  -0.089363  -0.099936  0  3.987575  0
C  C48  1  0.93209397  0.17204143  0.54291009  1  0  0.110429  0  3.683724  0  0  0.078952  0  3.938818  0  0  0.084867  0  3.9556  0  0  0.035224  0.074615  0  3.927617  0
C  C49  1  0.06790347  0.82796112  0.45709148  1  0  0.110577  0  3.68388  0  0  0.079081  0  3.93897  0  0  0.084999  0  3.955751  0  0  0.035265  0.074747  0  3.927763  0
C  C50  1  0.85650512  0.01412696  0.66346790  1  0  0.051734  0  3.644685  0  0  0.015228  0  3.905909  0  0  0.019712  0  3.920967  0  0  0.037623  0.011858  0  3.895324  0
C  C51  1  0.14349569  0.98587011  0.33653289  1  0  0.051714  0  3.644678  0  0  0.015307  0  3.905791  0  0  0.019775  0  3.920867  0  0  0.037692  0.011936  0  3.895211  0
I  I52  1  0.46600066  0.80781811  0.75482164  1  0  -0.341981  0  1.712422  0  0  -0.287526  0  2.14961  0  0  -0.302636  0  2.107114  0  0  -0.173145  -0.27654  0  2.181634  0
I  I53  1  0.53399019  0.19217468  0.24517949  1  0  -0.341963  0  1.712542  0  0  -0.287476  0  2.149674  0  0  -0.302581  0  2.107183  0  0  -0.173129  -0.27649  0  2.181694  0
I  I54  1  0.49017664  0.79822084  0.33743461  1  0  -0.328834  0  1.788229  0  0  -0.273237  0  2.228494  0  0  -0.289878  0  2.187558  0  0  -0.15602  -0.260694  0  2.258941  0
I  I55  1  0.50982740  0.20178614  0.66257877  1  0  -0.328782  0  1.788077  0  0  -0.273215  0  2.228381  0  0  -0.289855  0  2.187444  0  0  -0.155992  -0.260678  0  2.25882  0
I  I56  1  0.24766241  0.45433258  0.44216396  1  0  -0.311139  0  1.784605  0  0  -0.261447  0  2.235077  0  0  -0.279557  0  2.192911  0  0  -0.16511  -0.248428  0  2.261662  0
I  I57  1  0.75233659  0.54566668  0.55783571  1  0  -0.311136  0  1.784582  0  0  -0.261444  0  2.23504  0  0  -0.279552  0  2.192873  0  0  -0.165103  -0.248423  0  2.261627  0
N  N58  1  0.04788667  0.93391864  0.83881376  1  0  0.048235  0  3.578057  0  0  0.164128  0  3.746982  0  0  0.154673  0  3.771525  0  0  -0.120704  0.169727  0  3.730602  0
N  N59  1  0.95211483  0.06608169  0.16118677  1  0  0.048245  0  3.578047  0  0  0.164147  0  3.746985  0  0  0.154702  0  3.771511  0  0  -0.120702  0.169747  0  3.730604  0
N  N60  1  0.93926886  0.83866130  0.85800329  1  0  -0.254982  0  3.094276  0  0  -0.227844  0  3.380748  0  0  -0.235631  0  3.389704  0  0  -0.252926  -0.223852  0  3.375547  0
N  N61  1  0.06073241  0.16133796  0.14199795  1  0  -0.254995  0  3.094394  0  0  -0.227873  0  3.38082  0  0  -0.235664  0  3.389775  0  0  -0.252929  -0.223879  0  3.375624  0
N  N62  1  0.77931946  0.63231197  0.93069760  1  0  -0.303661  0  3.314674  0  0  -0.239577  0  3.596263  0  0  -0.251143  0  3.605211  0  0  -0.353687  -0.232033  0  3.58964  0
N  N63  1  0.22068135  0.36768511  0.06930319  1  0  -0.303739  0  3.314631  0  0  -0.239596  0  3.596161  0  0  -0.251157  0  3.605107  0  0  -0.353676  -0.232053  0  3.589544  0
N  N64  1  0.81895381  0.09106511  0.56736766  1  0  -0.253043  0  3.401158  0  0  -0.175504  0  3.675628  0  0  -0.189546  0  3.68951  0  0  -0.359935  -0.166658  0  3.666531  0
N  N65  1  0.18104474  0.90893200  0.43263531  1  0  -0.2531  0  3.401407  0  0  -0.175578  0  3.675854  0  0  -0.18962  0  3.689738  0  0  -0.359962  -0.166732  0  3.666754  0
