# generated using pymatgen
data_Ca2CuH10(C9O7)2
_symmetry_space_group_name_H-M   'P 1'
_cell_length_a   6.63136359
_cell_length_b   8.81281375
_cell_length_c   8.96484968
_cell_angle_alpha   102.92527767
_cell_angle_beta   110.64516566
_cell_angle_gamma   92.29404510
_symmetry_Int_Tables_number   1
_chemical_formula_structural   Ca2CuH10(C9O7)2
_chemical_formula_sum   'Ca2 Cu1 H10 C18 O14'
_cell_volume   473.77029348
_cell_formula_units_Z   1
loop_
 _symmetry_equiv_pos_site_id
 _symmetry_equiv_pos_as_xyz
  1  'x, y, z'
loop_
 _atom_site_type_symbol
 _atom_site_label
 _atom_site_symmetry_multiplicity
 _atom_site_fract_x
 _atom_site_fract_y
 _atom_site_fract_z
 _atom_site_occupancy
 _atom_site_hle17_ddec_charge
 _atom_site_hle17_ddec_spin_density
 _atom_site_hle17_ddec_sum_bond_order
 _atom_site_hle17_magmom
 _atom_site_hse06_10hf_ddec_charge
 _atom_site_hse06_10hf_ddec_spin_density
 _atom_site_hse06_10hf_ddec_sum_bond_order
 _atom_site_hse06_10hf_magmom
 _atom_site_hse06_ddec_charge
 _atom_site_hse06_ddec_spin_density
 _atom_site_hse06_ddec_sum_bond_order
 _atom_site_hse06_magmom
 _atom_site_pbe_cm5_charge
 _atom_site_pbe_ddec_charge
 _atom_site_pbe_ddec_spin_density
 _atom_site_pbe_ddec_sum_bond_order
 _atom_site_pbe_magmom
Ca  Ca0  1  0.14821406  0.78855376  0.58811057  1  1.592827  0.000426  1.082088  0.0  1.465772  0.000693  1.439279  0.0  1.508506  0.000321  1.392353  0.0  0.897803  1.43367  0.001042  1.472229  0.001
Ca  Ca1  1  0.85178114  0.21144793  0.41188827  1  1.592786  0.000429  1.082089  0.0  1.465707  0.000691  1.439345  0.0  1.508471  0.000323  1.392369  0.0  0.897786  1.433603  0.001042  1.472294  0.001
Cu  Cu2  1  0.49999461  0.99999999  0.99999756  1  0.988277  0.672382  1.608561  0.501  0.991251  0.777657  1.977955  0.632  1.092713  0.844948  1.903187  0.723  0.735658  0.917333  0.729215  2.045448  0.572
H  H3  1  0.32514157  0.67006463  0.27152588  1  0.108432  0.000251  0.940429  0.0  0.115355  0.000285  1.007642  0.0  0.120003  0.000196  1.002902  0.0  0.118337  0.111894  0.000364  1.011249  0.0
H  H4  1  0.67485987  0.32993587  0.72847766  1  0.10844  0.000249  0.940517  0.0  0.115356  0.000285  1.007714  0.0  0.12  0.000196  1.00297  0.0  0.118328  0.111897  0.000364  1.011317  0.0
H  H5  1  0.15838682  0.16819149  0.11736338  1  0.106084  -0.000262  0.945718  0.0  0.110741  -0.000268  1.018656  0.0  0.115003  -0.000264  1.014509  0.0  0.113445  0.107793  -0.000252  1.02129  0.0
H  H6  1  0.84161277  0.83180784  0.88263384  1  0.106086  -0.000262  0.945728  0.0  0.110762  -0.000268  1.018645  0.0  0.115009  -0.000264  1.014519  0.0  0.113452  0.107813  -0.000252  1.021281  0.0
H  H7  1  0.20712909  0.42469465  0.77131295  1  0.116758  -2e-05  0.939462  0.0  0.122021  1.4e-05  1.008558  0.0  0.126889  5e-06  1.00378  0.0  0.124791  0.118422  3.4e-05  1.012177  0.0
H  H8  1  0.79287160  0.57531055  0.22868808  1  0.116787  -2.1e-05  0.939502  0.0  0.122033  1.5e-05  1.008604  0.0  0.126903  5e-06  1.003823  0.0  0.124808  0.118433  3.4e-05  1.012223  0.0
H  H9  1  0.61823691  0.83178164  0.61125878  1  0.440453  6e-06  0.857008  0.0  0.410084  1e-06  0.919071  0.0  0.421129  3e-06  0.903084  0.0  0.302291  0.40222  -0.0  0.930438  0.0
H  H10  1  0.38176869  0.16821532  0.38873948  1  0.44048  5e-06  0.856984  0.0  0.410105  1e-06  0.919057  0.0  0.42115  3e-06  0.903069  0.0  0.302277  0.402237  -0.0  0.93043  0.0
H  H11  1  0.56406047  0.00205475  0.67940429  1  0.44164  -9.5e-05  0.828444  0.0  0.417187  -4.5e-05  0.886539  0.0  0.42699  -7.7e-05  0.871997  0.0  0.318725  0.410232  4e-06  0.896856  0.0
H  H12  1  0.43594070  0.99794458  0.32058553  1  0.4416  -9.6e-05  0.828491  0.0  0.417142  -4.5e-05  0.886605  0.0  0.426946  -7.7e-05  0.872061  0.0  0.318715  0.410189  4e-06  0.896918  0.0
C  C13  1  0.27288257  0.56238914  0.01747785  1  -0.079938  0.005921  3.755058  0.006  -0.049011  0.003786  3.979992  0.004  -0.060818  0.002733  4.004394  0.003  -0.01325  -0.041677  0.004439  3.964047  0.005
C  C14  1  0.72712434  0.43761487  0.98252677  1  -0.079871  0.005904  3.755122  0.006  -0.048933  0.003785  3.979971  0.004  -0.060761  0.002734  4.004413  0.003  -0.013264  -0.041594  0.004439  3.964025  0.005
C  C15  1  0.28527949  0.56086675  0.17567596  1  -0.018593  0.000567  3.639129  0.0  -0.05815  0.000335  3.886346  0.0  -0.051748  -7.2e-05  3.900801  0.0  -0.053637  -0.062071  0.000741  3.876702  0.0
C  C16  1  0.71472517  0.43913374  0.82432729  1  -0.01878  0.00059  3.639218  0.0  -0.058298  0.000336  3.886375  0.0  -0.051881  -7.2e-05  3.900824  0.0  -0.053679  -0.062219  0.000742  3.876732  0.0
C  C17  1  0.24129392  0.41922359  0.21165377  1  -0.076477  0.000161  3.722762  0.0  -0.048862  -0.000184  3.958989  0.0  -0.059337  -5.6e-05  3.981992  0.0  -0.007089  -0.042344  -0.000284  3.943844  0.0
C  C18  1  0.75871652  0.58077337  0.78834797  1  -0.076385  0.000137  3.722674  0.0  -0.0488  -0.000183  3.958908  0.0  -0.059276  -5.8e-05  3.981905  0.0  -0.007084  -0.042282  -0.000284  3.943765  0.0
C  C19  1  0.19440119  0.27820641  0.09012002  1  -0.048125  -0.001423  3.681427  -0.001  -0.095544  -0.000651  3.948767  0.0  -0.091217  -0.000855  3.965277  0.0  -0.064457  -0.097662  -0.0004  3.93694  0.0
C  C20  1  0.80559679  0.72179292  0.90987678  1  -0.048116  -0.001385  3.681354  -0.001  -0.095565  -0.000654  3.9487  0.0  -0.091222  -0.000854  3.965204  0.0  -0.064446  -0.097686  -0.0004  3.936881  0.0
C  C21  1  0.18083979  0.27946519  0.93096867  1  -0.094436  0.000955  3.78427  0.002  -0.071533  -0.000173  4.025695  0.0  -0.083422  -0.000337  4.04909  0.0  -0.018786  -0.063737  4.1e-05  4.009579  0.0
C  C22  1  0.81915905  0.72053884  0.06902940  1  -0.094417  0.000936  3.78425  0.002  -0.07151  -0.000172  4.025633  0.0  -0.083394  -0.000338  4.049023  0.0  -0.018792  -0.063712  4.1e-05  4.009515  0.0
C  C23  1  0.21624175  0.42149430  0.89429807  1  -0.041423  0.000499  3.671483  0.001  -0.079027  0.000479  3.918122  0.001  -0.074419  -5e-06  3.935664  0.0  -0.057257  -0.081768  0.00098  3.9064  0.001
C  C24  1  0.78375894  0.57851090  0.10570407  1  -0.041407  0.000523  3.671595  0.001  -0.078979  0.000478  3.918161  0.001  -0.074362  -6e-06  3.935693  0.0  -0.057222  -0.081718  0.000981  3.90643  0.001
C  C25  1  0.31937818  0.70908338  0.97126071  1  0.660136  -0.006986  3.885445  -0.007  0.615695  -0.002079  4.179085  -0.003  0.652619  -0.002439  4.174772  -0.003  0.217933  0.590635  -0.001511  4.180677  -0.003
C  C26  1  0.68062551  0.29092064  0.02874307  1  0.66003  -0.006983  3.885589  -0.007  0.615549  -0.002079  4.179276  -0.003  0.652475  -0.002436  4.174973  -0.003  0.217892  0.590485  -0.001511  4.180867  -0.003
C  C27  1  0.22240970  0.42274739  0.37437733  1  0.703913  -2.2e-05  3.87476  0.0  0.649988  1e-05  4.170534  0.0  0.684922  2.6e-05  4.162157  0.0  0.238659  0.626133  9e-06  4.175663  0.0
C  C28  1  0.77758764  0.57724842  0.62562188  1  0.703852  -1.7e-05  3.875044  0.0  0.649936  1e-05  4.170794  0.0  0.684874  2.6e-05  4.162416  0.0  0.23865  0.626081  8e-06  4.175921  0.0
C  C29  1  0.12815061  0.13157787  0.79851242  1  0.700795  -0.00489  3.843521  -0.004  0.658983  0.000176  4.124801  0.0  0.698619  -0.000168  4.113635  0.0  0.239354  0.631542  0.00082  4.131384  0.0
C  C30  1  0.87185446  0.86842497  0.20148588  1  0.700739  -0.004888  3.843543  -0.004  0.658924  0.000177  4.124798  0.0  0.698559  -0.000165  4.113635  0.0  0.239326  0.631483  0.000821  4.13138  0.0
O  O31  1  0.29890286  0.69842676  0.82435401  1  -0.686487  0.000108  2.05999  0.002  -0.640678  -0.000809  2.32342  0.001  -0.669856  -0.001744  2.315839  0.0  -0.357405  -0.619676  9.1e-05  2.327882  0.002
O  O32  1  0.70108334  0.30157846  0.17564662  1  -0.686418  0.000105  2.059976  0.002  -0.640622  -0.000807  2.32348  0.001  -0.669804  -0.001746  2.3159  0.0  -0.35742  -0.619621  9.1e-05  2.32794  0.002
O  O33  1  0.38619028  0.84000634  0.08505787  1  -0.621048  0.088764  2.029157  0.12  -0.590934  0.055852  2.303138  0.083  -0.635399  0.041754  2.295258  0.068  -0.317136  -0.560103  0.064203  2.308556  0.09
O  O34  1  0.61381481  0.15999650  0.91494713  1  -0.620997  0.088765  2.029145  0.12  -0.590868  0.05585  2.303119  0.083  -0.63533  0.041752  2.295241  0.068  -0.317097  -0.560034  0.064203  2.308533  0.09
O  O35  1  0.22158699  0.55426689  0.46507268  1  -0.69282  0.000164  1.977119  0.0  -0.636622  1.5e-05  2.234086  0.0  -0.663929  7e-06  2.222558  0.0  -0.370562  -0.617238  7.8e-05  2.241534  0.0
O  O36  1  0.77839361  0.44572543  0.53492477  1  -0.692704  0.000162  1.977194  0.0  -0.636545  1.5e-05  2.234219  0.0  -0.663858  7e-06  2.222688  0.0  -0.370521  -0.61716  7.8e-05  2.241663  0.0
O  O37  1  0.19638741  0.29102083  0.40946874  1  -0.729772  0.000318  1.948541  0.0  -0.662818  0.000192  2.182709  0.0  -0.690022  0.000129  2.169459  0.0  -0.366797  -0.643498  0.000279  2.191367  0.0
O  O38  1  0.80362260  0.70897378  0.59053237  1  -0.729791  0.000317  1.948672  0.0  -0.662829  0.000193  2.182825  0.0  -0.690029  0.000128  2.169572  0.0  -0.366837  -0.64351  0.000279  2.191485  0.0
O  O39  1  0.20564106  0.00608381  0.83610382  1  -0.702061  0.063941  2.124015  0.089  -0.659125  0.044529  2.406638  0.067  -0.703712  0.03323  2.394577  0.055  -0.353153  -0.627348  0.051659  2.414613  0.073
O  O40  1  0.79434178  0.99391203  0.16389053  1  -0.702056  0.063937  2.123996  0.089  -0.659115  0.044529  2.406626  0.067  -0.70371  0.033228  2.394568  0.055  -0.353144  -0.627339  0.051658  2.4146  0.073
O  O41  1  0.00962419  0.12706235  0.65257177  1  -0.675067  0.015857  1.946033  0.021  -0.620673  0.009586  2.183809  0.014  -0.64868  0.005737  2.170696  0.009  -0.337239  -0.600433  0.013555  2.192157  0.018
O  O42  1  0.99036941  0.87293934  0.34742888  1  -0.675048  0.015855  1.94608  0.021  -0.620649  0.009586  2.183837  0.014  -0.648654  0.005738  2.170729  0.009  -0.337226  -0.60041  0.013554  2.192186  0.018
O  O43  1  0.49818827  0.89442942  0.61945805  1  -0.898946  -0.000442  1.785111  0.0  -0.848468  -0.000571  1.972116  0.0  -0.868485  -0.000597  1.937622  0.0  -0.622367  -0.833644  -0.0005  1.99607  0.0
O  O44  1  0.50181876  0.10556636  0.38055035  1  -0.898934  -0.000441  1.785109  0.0  -0.848432  -0.000571  1.972116  0.0  -0.868454  -0.000597  1.937622  0.0  -0.622362  -0.833609  -0.0005  1.996068  0.0
