# generated using pymatgen
data_CdH9C9S2N3
_symmetry_space_group_name_H-M   'P 1'
_cell_length_a   5.76285996
_cell_length_b   13.02999622
_cell_length_c   15.90379613
_cell_angle_alpha   92.37945109
_cell_angle_beta   89.99914642
_cell_angle_gamma   90.00254010
_symmetry_Int_Tables_number   1
_chemical_formula_structural   CdH9C9S2N3
_chemical_formula_sum   'Cd4 H36 C36 S8 N12'
_cell_volume   1193.18706952
_cell_formula_units_Z   4
loop_
 _symmetry_equiv_pos_site_id
 _symmetry_equiv_pos_as_xyz
  1  'x, y, z'
loop_
 _atom_site_type_symbol
 _atom_site_label
 _atom_site_symmetry_multiplicity
 _atom_site_fract_x
 _atom_site_fract_y
 _atom_site_fract_z
 _atom_site_occupancy
 _atom_site_hle17_bader_spin_density
 _atom_site_hle17_ddec_charge
 _atom_site_hle17_ddec_spin_density
 _atom_site_hle17_ddec_sum_bond_order
 _atom_site_hle17_magmom
 _atom_site_hse06_10hf_bader_spin_density
 _atom_site_hse06_10hf_ddec_charge
 _atom_site_hse06_10hf_ddec_spin_density
 _atom_site_hse06_10hf_ddec_sum_bond_order
 _atom_site_hse06_10hf_magmom
 _atom_site_hse06_bader_spin_density
 _atom_site_hse06_ddec_charge
 _atom_site_hse06_ddec_spin_density
 _atom_site_hse06_ddec_sum_bond_order
 _atom_site_hse06_magmom
 _atom_site_pbe_bader_spin_density
 _atom_site_pbe_cm5_charge
 _atom_site_pbe_ddec_charge
 _atom_site_pbe_ddec_spin_density
 _atom_site_pbe_ddec_sum_bond_order
 _atom_site_pbe_magmom
Cd  Cd0  1  0.39720246  0.45423534  0.37871684  1  0  0.918356  0  2.046689  0  0  0.750138  0  2.509077  0  0  0.79237  0  2.475663  0  0  0.694624  0.720793  0  2.531406  0
Cd  Cd1  1  0.89724287  0.04575480  0.12128166  1  0  0.918412  0  2.046615  0  0  0.750177  0  2.509004  0  0  0.792412  0  2.475587  0  0  0.694634  0.720831  0  2.531324  0
Cd  Cd2  1  0.60278614  0.54576335  0.62128588  1  0  0.918469  0  2.046511  0  0  0.750237  0  2.508865  0  0  0.792471  0  2.47545  0  0  0.694655  0.720891  0  2.531191  0
Cd  Cd3  1  0.10280127  0.95425305  0.87871628  1  0  0.918414  0  2.046636  0  0  0.750243  0  2.50888  0  0  0.792476  0  2.475462  0  0  0.69462  0.720892  0  2.531214  0
H  H4  1  0.18669505  0.61952169  0.25951623  1  0  0.079612  0  0.949711  0  0  0.087831  0  1.013429  0  0  0.090034  0  1.011755  0  0  0.110815  0.086215  0  1.014656  0
H  H5  1  0.68670648  0.88047249  0.24048305  1  0  0.07969  0  0.949578  0  0  0.087887  0  1.013327  0  0  0.09009  0  1.011652  0  0  0.110836  0.086269  0  1.014566  0
H  H6  1  0.81327099  0.38045844  0.74047468  1  0  0.07956  0  0.949617  0  0  0.087808  0  1.013304  0  0  0.090007  0  1.011647  0  0  0.110814  0.086198  0  1.014519  0
H  H7  1  0.31328733  0.11953535  0.75951425  1  0  0.079656  0  0.949505  0  0  0.087875  0  1.013239  0  0  0.090079  0  1.011566  0  0  0.110822  0.086263  0  1.014468  0
H  H8  1  0.25055296  0.70086323  0.12194784  1  0  0.101712  0  0.978809  0  0  0.108882  0  1.046111  0  0  0.112128  0  1.045558  0  0  0.095459  0.106543  0  1.046688  0
H  H9  1  0.75055079  0.79913190  0.37805475  1  0  0.101737  0  0.978878  0  0  0.108917  0  1.046174  0  0  0.112164  0  1.045616  0  0  0.09546  0.106555  0  1.046771  0
H  H10  1  0.74941309  0.29912004  0.87804881  1  0  0.101658  0  0.978572  0  0  0.108836  0  1.045901  0  0  0.112082  0  1.045345  0  0  0.095404  0.106476  0  1.046499  0
H  H11  1  0.24941005  0.20088057  0.62194394  1  0  0.10176  0  0.978581  0  0  0.108907  0  1.04594  0  0  0.112154  0  1.045383  0  0  0.095477  0.106558  0  1.046526  0
H  H12  1  0.88200378  0.52351708  0.09693660  1  0  0.101316  0  0.989494  0  0  0.112332  0  1.0523  0  0  0.114754  0  1.052938  0  0  0.104484  0.110545  0  1.052087  0
H  H13  1  0.38202325  0.97648990  0.40306282  1  0  0.101304  0  0.989438  0  0  0.112345  0  1.052223  0  0  0.114812  0  1.052804  0  0  0.104521  0.110557  0  1.052013  0
H  H14  1  0.11798656  0.47650238  0.90306982  1  0  0.101345  0  0.989274  0  0  0.112314  0  1.052181  0  0  0.114817  0  1.052702  0  0  0.104456  0.110528  0  1.051968  0
H  H15  1  0.61796536  0.02349266  0.59693948  1  0  0.101305  0  0.989401  0  0  0.112304  0  1.052261  0  0  0.114801  0  1.052797  0  0  0.104497  0.11052  0  1.052047  0
H  H16  1  0.79141463  0.44934952  0.23375812  1  0  0.073026  0  0.96677  0  0  0.079763  0  1.036066  0  0  0.081369  0  1.034949  0  0  0.108393  0.07855  0  1.036909  0
H  H17  1  0.29143610  0.05066168  0.26624323  1  0  0.072996  0  0.966586  0  0  0.079624  0  1.036037  0  0  0.081228  0  1.03492  0  0  0.108345  0.078413  0  1.036874  0
H  H18  1  0.20858265  0.55066227  0.76624872  1  0  0.072997  0  0.966599  0  0  0.079688  0  1.035985  0  0  0.081292  0  1.03487  0  0  0.108418  0.078477  0  1.036824  0
H  H19  1  0.70858027  0.94932393  0.73375726  1  0  0.072983  0  0.966563  0  0  0.079622  0  1.036055  0  0  0.081222  0  1.034942  0  0  0.10834  0.078427  0  1.036851  0
H  H20  1  0.45141212  0.65660800  0.97492609  1  0  0.076166  0  0.933179  0  0  0.092521  0  0.998759  0  0  0.093017  0  0.999637  0  0  0.091192  0.092189  0  0.998153  0
H  H21  1  0.95140202  0.84338837  0.52507690  1  0  0.076158  0  0.93328  0  0  0.092494  0  0.998853  0  0  0.092982  0  0.999733  0  0  0.091167  0.092161  0  0.998248  0
H  H22  1  0.54858343  0.34339680  0.02507365  1  0  0.07616  0  0.933227  0  0  0.092509  0  0.99881  0  0  0.093001  0  0.999695  0  0  0.091181  0.092179  0  0.998201  0
H  H23  1  0.04859179  0.15661193  0.47493215  1  0  0.076166  0  0.933249  0  0  0.092524  0  0.99879  0  0  0.093017  0  0.999666  0  0  0.09119  0.092193  0  0.998181  0
H  H24  1  0.63471759  0.74824309  0.02246483  1  0  0.09045  0  0.941409  0  0  0.110071  0  0.999302  0  0  0.109615  0  1.001288  0  0  0.094717  0.110361  0  0.998016  0
H  H25  1  0.13469044  0.75175660  0.47753009  1  0  0.0905  0  0.941466  0  0  0.110137  0  0.999319  0  0  0.109679  0  1.001296  0  0  0.094759  0.110428  0  0.99803  0
H  H26  1  0.36528837  0.25175788  0.97753544  1  0  0.090467  0  0.941426  0  0  0.110081  0  0.999309  0  0  0.109624  0  1.001294  0  0  0.094728  0.110372  0  0.998023  0
H  H27  1  0.86529122  0.24824133  0.52247324  1  0  0.090459  0  0.941441  0  0  0.110036  0  0.999366  0  0  0.109576  0  1.001349  0  0  0.09469  0.110329  0  0.998078  0
H  H28  1  0.82560322  0.65609861  0.89971270  1  0  0.106992  0  0.959245  0  0  0.125527  0  1.02421  0  0  0.126715  0  1.0248  0  0  0.083984  0.124602  0  1.023865  0
H  H29  1  0.32558586  0.84390209  0.60028573  1  0  0.106994  0  0.959099  0  0  0.125538  0  1.024075  0  0  0.126732  0  1.024664  0  0  0.083979  0.124613  0  1.023736  0
H  H30  1  0.17439580  0.34389547  0.10028990  1  0  0.10702  0  0.959259  0  0  0.125547  0  1.024234  0  0  0.126734  0  1.024827  0  0  0.083985  0.124625  0  1.02389  0
H  H31  1  0.67443225  0.15610731  0.39971350  1  0  0.107  0  0.959177  0  0  0.125533  0  1.024146  0  0  0.126723  0  1.024739  0  0  0.083958  0.124611  0  1.0238  0
H  H32  1  0.79955936  0.53760978  0.95040867  1  0  0.078528  0  0.982396  0  0  0.099257  0  1.049313  0  0  0.099934  0  1.050592  0  0  0.077771  0.098743  0  1.048448  0
H  H33  1  0.29956182  0.96239021  0.54958718  1  0  0.078589  0  0.982514  0  0  0.099317  0  1.049428  0  0  0.09999  0  1.050724  0  0  0.07782  0.098802  0  1.048564  0
H  H34  1  0.20043792  0.46238666  0.04959902  1  0  0.078518  0  0.982405  0  0  0.099255  0  1.04932  0  0  0.099933  0  1.050598  0  0  0.077783  0.098744  0  1.04845  0
H  H35  1  0.70043720  0.03761292  0.45040057  1  0  0.078525  0  0.982395  0  0  0.099257  0  1.049315  0  0  0.09993  0  1.050614  0  0  0.077794  0.098747  0  1.048448  0
H  H36  1  0.98282034  0.63711178  0.99312793  1  0  0.084691  0  0.963583  0  0  0.104217  0  1.032705  0  0  0.105447  0  1.032522  0  0  0.078723  0.103275  0  1.032891  0
H  H37  1  0.48280810  0.86288994  0.50686899  1  0  0.084673  0  0.963654  0  0  0.104228  0  1.032746  0  0  0.105449  0  1.032577  0  0  0.078741  0.103289  0  1.032932  0
H  H38  1  0.01717348  0.36288999  0.00687614  1  0  0.084705  0  0.96359  0  0  0.104198  0  1.032779  0  0  0.105431  0  1.032595  0  0  0.078723  0.103254  0  1.03297  0
H  H39  1  0.51718224  0.13710862  0.49312241  1  0  0.084742  0  0.963561  0  0  0.10423  0  1.032735  0  0  0.105463  0  1.032552  0  0  0.078752  0.10329  0  1.032921  0
C  C40  1  0.90965880  0.33458403  0.35258319  1  0  0.300795  0  4.003456  0  0  0.281312  0  4.302446  0  0  0.303469  0  4.316383  0  0  0.150541  0.266279  0  4.292718  0
C  C41  1  0.40972032  0.16541247  0.14740608  1  0  0.300966  0  4.003197  0  0  0.281505  0  4.30214  0  0  0.303663  0  4.316067  0  0  0.150558  0.266466  0  4.292428  0
C  C42  1  0.09034542  0.66541687  0.64741142  1  0  0.300849  0  4.003555  0  0  0.28137  0  4.302524  0  0  0.303527  0  4.316461  0  0  0.150522  0.266334  0  4.292804  0
C  C43  1  0.59035331  0.83459166  0.85260245  1  0  0.300794  0  4.004022  0  0  0.281316  0  4.302953  0  0  0.303473  0  4.316891  0  0  0.15053  0.266275  0  4.293236  0
C  C44  1  0.90042516  0.58497350  0.42668798  1  0  0.325971  0  3.941534  0  0  0.30034  0  4.248655  0  0  0.321821  0  4.263127  0  0  0.162203  0.285704  0  4.238622  0
C  C45  1  0.40043254  0.91502548  0.07330812  1  0  0.326185  0  3.94134  0  0  0.300554  0  4.248447  0  0  0.322037  0  4.262915  0  0  0.162391  0.285915  0  4.238423  0
C  C46  1  0.09956172  0.41502592  0.57331162  1  0  0.326223  0  3.941393  0  0  0.3006  0  4.248487  0  0  0.322083  0  4.262955  0  0  0.162386  0.28596  0  4.238465  0
C  C47  1  0.59960639  0.08498467  0.92668925  1  0  0.32621  0  3.941189  0  0  0.300584  0  4.248303  0  0  0.322061  0  4.262772  0  0  0.162367  0.285946  0  4.238294  0
C  C48  1  0.33836057  0.60047168  0.22081562  1  0  0.122319  0  3.729346  0  0  0.093347  0  3.978788  0  0  0.101112  0  3.997068  0  0  0.037625  0.088411  0  3.966181  0
C  C49  1  0.83836432  0.89952336  0.27918024  1  0  0.122428  0  3.728823  0  0  0.093473  0  3.97825  0  0  0.10124  0  3.996523  0  0  0.037691  0.08853  0  3.965643  0
C  C50  1  0.66160374  0.39951776  0.77918434  1  0  0.122305  0  3.729404  0  0  0.093296  0  3.978859  0  0  0.101052  0  3.997142  0  0  0.037676  0.088363  0  3.966249  0
C  C51  1  0.16161561  0.10047984  0.72081442  1  0  0.122282  0  3.729184  0  0  0.093296  0  3.978639  0  0  0.101057  0  3.996919  0  0  0.037624  0.088354  0  3.966043  0
C  C52  1  0.37558688  0.64527827  0.14431085  1  0  -0.180928  0  3.716441  0  0  -0.195924  0  3.961172  0  0  -0.204789  0  3.982235  0  0  -0.089385  -0.190239  0  3.947071  0
C  C53  1  0.87558888  0.85471707  0.35569327  1  0  -0.181071  0  3.716316  0  0  -0.196075  0  3.961079  0  0  -0.204941  0  3.982139  0  0  -0.089406  -0.190369  0  3.946991  0
C  C54  1  0.62437569  0.35471496  0.85568481  1  0  -0.180754  0  3.716458  0  0  -0.195748  0  3.961249  0  0  -0.204612  0  3.982315  0  0  -0.089303  -0.190046  0  3.947161  0
C  C55  1  0.12438063  0.14528701  0.64431085  1  0  -0.18085  0  3.71634  0  0  -0.195867  0  3.961127  0  0  -0.20473  0  3.982188  0  0  -0.089383  -0.190173  0  3.947034  0
C  C56  1  0.57260683  0.61863237  0.09598065  1  0  0.165766  0  3.685306  0  0  0.182684  0  3.916366  0  0  0.188798  0  3.93769  0  0  0.017995  0.178829  0  3.901756  0
C  C57  1  0.07260766  0.88137188  0.40401804  1  0  0.165787  0  3.685545  0  0  0.182636  0  3.916685  0  0  0.188743  0  3.938013  0  0  0.01794  0.178781  0  3.902073  0
C  C58  1  0.42737310  0.38137087  0.90401654  1  0  0.165633  0  3.685493  0  0  0.182468  0  3.916686  0  0  0.188573  0  3.938028  0  0  0.01792  0.178611  0  3.902079  0
C  C59  1  0.92736359  0.11862376  0.59598649  1  0  0.165525  0  3.685832  0  0  0.182491  0  3.916835  0  0  0.188594  0  3.93817  0  0  0.017946  0.17864  0  3.902224  0
C  C60  1  0.72479285  0.54760962  0.13002963  1  0  -0.177532  0  3.699952  0  0  -0.18984  0  3.933563  0  0  -0.198952  0  3.955711  0  0  -0.08866  -0.183951  0  3.918707  0
C  C61  1  0.22479482  0.95239245  0.36996743  1  0  -0.177615  0  3.700286  0  0  -0.189904  0  3.93388  0  0  -0.199047  0  3.956005  0  0  -0.088694  -0.184022  0  3.919033  0
C  C62  1  0.27521484  0.45238980  0.86996997  1  0  -0.177726  0  3.700244  0  0  -0.189959  0  3.93386  0  0  -0.19912  0  3.955983  0  0  -0.088684  -0.184071  0  3.919006  0
C  C63  1  0.77520073  0.04760161  0.63003265  1  0  -0.177432  0  3.700463  0  0  -0.189746  0  3.93402  0  0  -0.198903  0  3.956136  0  0  -0.088635  -0.183869  0  3.919172  0
C  C64  1  0.67551182  0.50557146  0.20705884  1  0  0.137419  0  3.718089  0  0  0.10707  0  3.968663  0  0  0.115342  0  3.987062  0  0  0.044062  0.101749  0  3.95608  0
C  C65  1  0.17552755  0.99442630  0.29294304  1  0  0.137699  0  3.718391  0  0  0.107394  0  3.968975  0  0  0.115666  0  3.987385  0  0  0.044202  0.102078  0  3.95639  0
C  C66  1  0.32450108  0.49442262  0.79294439  1  0  0.137757  0  3.718663  0  0  0.107381  0  3.969247  0  0  0.11565  0  3.987667  0  0  0.044203  0.102062  0  3.95666  0
C  C67  1  0.82448708  0.00556545  0.70705698  1  0  0.137661  0  3.718495  0  0  0.107329  0  3.969038  0  0  0.1156  0  3.987454  0  0  0.044175  0.102017  0  3.956463  0
C  C68  1  0.61259954  0.66472274  0.01198382  1  0  -0.125373  0  3.718489  0  0  -0.161105  0  3.964004  0  0  -0.162457  0  3.977585  0  0  -0.163307  -0.160101  0  3.954492  0
C  C69  1  0.11258393  0.83527948  0.48801552  1  0  -0.125497  0  3.718643  0  0  -0.161154  0  3.964046  0  0  -0.162486  0  3.977601  0  0  -0.163339  -0.160142  0  3.954519  0
C  C70  1  0.38739428  0.33527597  0.98802079  1  0  -0.125229  0  3.718279  0  0  -0.1609  0  3.963764  0  0  -0.162245  0  3.977335  0  0  -0.163239  -0.159898  0  3.954255  0
C  C71  1  0.88739774  0.16472226  0.51198540  1  0  -0.12538  0  3.718481  0  0  -0.161043  0  3.963862  0  0  -0.16238  0  3.977427  0  0  -0.163288  -0.16003  0  3.954334  0
C  C72  1  0.81658965  0.62114061  0.96114902  1  0  -0.278059  0  3.714357  0  0  -0.352247  0  3.958533  0  0  -0.353971  0  3.96814  0  0  -0.251158  -0.350756  0  3.95187  0
C  C73  1  0.31658580  0.87886213  0.53884757  1  0  -0.278026  0  3.714391  0  0  -0.352276  0  3.958562  0  0  -0.354007  0  3.968166  0  0  -0.251185  -0.350786  0  3.951903  0
C  C74  1  0.18340590  0.37885885  0.03885435  1  0  -0.2782  0  3.714457  0  0  -0.352395  0  3.958633  0  0  -0.354124  0  3.968232  0  0  -0.251244  -0.350901  0  3.951976  0
C  C75  1  0.68341148  0.12114030  0.46114708  1  0  -0.278062  0  3.7143  0  0  -0.352255  0  3.958471  0  0  -0.353993  0  3.968069  0  0  -0.251188  -0.350769  0  3.951811  0
S  S76  1  0.15561888  0.29473879  0.31239563  1  0  -0.310478  0  2.178714  0  0  -0.277804  0  2.510003  0  0  -0.295758  0  2.505305  0  0  -0.133098  -0.265322  0  2.512947  0
S  S77  1  0.65568092  0.20527404  0.18758850  1  0  -0.310578  0  2.178632  0  0  -0.277843  0  2.509797  0  0  -0.295796  0  2.505096  0  0  -0.133143  -0.265361  0  2.512742  0
S  S78  1  0.84438361  0.70526750  0.68760038  1  0  -0.31053  0  2.178626  0  0  -0.277846  0  2.509901  0  0  -0.295799  0  2.505196  0  0  -0.133091  -0.265368  0  2.512846  0
S  S79  1  0.34438750  0.79473695  0.81241517  1  0  -0.310535  0  2.178451  0  0  -0.277841  0  2.509666  0  0  -0.295794  0  2.504968  0  0  -0.133132  -0.26536  0  2.512615  0
S  S80  1  0.64290508  0.62132356  0.45956285  1  0  -0.316078  0  2.277701  0  0  -0.274197  0  2.626278  0  0  -0.292323  0  2.618862  0  0  -0.112687  -0.26145  0  2.630962  0
S  S81  1  0.14291841  0.87867486  0.04043709  1  0  -0.316115  0  2.277803  0  0  -0.274251  0  2.626394  0  0  -0.292374  0  2.618974  0  0  -0.112722  -0.261483  0  2.631043  0
S  S82  1  0.35707312  0.37867352  0.54043354  1  0  -0.316125  0  2.277553  0  0  -0.274236  0  2.62611  0  0  -0.292361  0  2.618692  0  0  -0.112713  -0.261498  0  2.630819  0
S  S83  1  0.85712572  0.12133613  0.95956659  1  0  -0.316118  0  2.277633  0  0  -0.274241  0  2.626215  0  0  -0.292364  0  2.618799  0  0  -0.112691  -0.261479  0  2.630878  0
N  N84  1  0.73051461  0.36206526  0.38197080  1  0  -0.525035  0  2.906691  0  0  -0.465693  0  3.181127  0  0  -0.48762  0  3.189583  0  0  -0.395227  -0.450697  0  3.175108  0
N  N85  1  0.23057713  0.13791586  0.11802333  1  0  -0.52521  0  2.906633  0  0  -0.465874  0  3.181057  0  0  -0.487802  0  3.189507  0  0  -0.395224  -0.450868  0  3.175024  0
N  N86  1  0.26948267  0.63793335  0.61802500  1  0  -0.525091  0  2.906853  0  0  -0.465747  0  3.181285  0  0  -0.487673  0  3.18974  0  0  -0.395248  -0.450748  0  3.175265  0
N  N87  1  0.76948956  0.86207983  0.88198560  1  0  -0.525006  0  2.90741  0  0  -0.46566  0  3.181816  0  0  -0.487586  0  3.190271  0  0  -0.395214  -0.450666  0  3.175805  0
N  N88  1  0.08640967  0.56219048  0.40100526  1  0  -0.512676  0  2.882644  0  0  -0.45744  0  3.160845  0  0  -0.47825  0  3.168594  0  0  -0.380517  -0.44331  0  3.155472  0
N  N89  1  0.58642999  0.93780636  0.09898634  1  0  -0.512889  0  2.882405  0  0  -0.457639  0  3.160613  0  0  -0.478455  0  3.168367  0  0  -0.380685  -0.443517  0  3.155257  0
N  N90  1  0.91357893  0.43780820  0.59899746  1  0  -0.51286  0  2.882637  0  0  -0.457634  0  3.160847  0  0  -0.478441  0  3.168585  0  0  -0.380632  -0.443496  0  3.155467  0
N  N91  1  0.41362456  0.06220065  0.90100529  1  0  -0.512869  0  2.882433  0  0  -0.457648  0  3.160671  0  0  -0.478458  0  3.168415  0  0  -0.380663  -0.44352  0  3.155306  0
N  N92  1  0.48483087  0.53080021  0.25194638  1  0  -0.336955  0  3.296059  0  0  -0.261049  0  3.560422  0  0  -0.28182  0  3.581293  0  0  -0.338554  -0.246977  0  3.545835  0
N  N93  1  0.98485620  0.96919718  0.24805300  1  0  -0.337184  0  3.296306  0  0  -0.261246  0  3.560644  0  0  -0.282016  0  3.581507  0  0  -0.338661  -0.247177  0  3.546057  0
N  N94  1  0.51514039  0.46919618  0.74805691  1  0  -0.337137  0  3.296758  0  0  -0.261125  0  3.561039  0  0  -0.281894  0  3.581909  0  0  -0.33868  -0.247057  0  3.546451  0
N  N95  1  0.01514803  0.03079835  0.75194209  1  0  -0.337181  0  3.296657  0  0  -0.261205  0  3.560955  0  0  -0.281974  0  3.581823  0  0  -0.338588  -0.247139  0  3.546376  0
