# generated using pymatgen
data_Zn4H12C40O17F8
_symmetry_space_group_name_H-M   'P 1'
_cell_length_a   23.88877550
_cell_length_b   23.89013456
_cell_length_c   23.88854853
_cell_angle_alpha   66.34412669
_cell_angle_beta   72.58479321
_cell_angle_gamma   107.42352699
_symmetry_Int_Tables_number   1
_chemical_formula_structural   Zn4H12C40O17F8
_chemical_formula_sum   'Zn8 H24 C80 O34 F16'
_cell_volume   10452.87148971
_cell_formula_units_Z   2
loop_
 _symmetry_equiv_pos_site_id
 _symmetry_equiv_pos_as_xyz
  1  'x, y, z'
loop_
 _atom_site_type_symbol
 _atom_site_label
 _atom_site_symmetry_multiplicity
 _atom_site_fract_x
 _atom_site_fract_y
 _atom_site_fract_z
 _atom_site_occupancy
 _atom_site_pbe_bader_charge
 _atom_site_pbe_bader_spin_density
 _atom_site_pbe_cm5_charge
 _atom_site_pbe_ddec_charge
 _atom_site_pbe_ddec_spin_density
 _atom_site_pbe_ddec_sum_bond_order
 _atom_site_pbe_magmom
Zn  Zn0  1  0.05700272  0.95737634  0.48563271  1  1.320784  0  0.681378  0.97211  0  2.364954  0
Zn  Zn1  1  0.05700127  0.09962649  0.45737802  1  1.318492  0  0.681441  0.97233  0  2.364617  0
Zn  Zn2  1  0.94299283  0.98562922  0.45736764  1  1.320725  0  0.681496  0.972309  0  2.364463  0
Zn  Zn3  1  0.94300844  0.95737328  0.59963075  1  1.318438  0  0.681368  0.972132  0  2.365106  0
Zn  Zn4  1  0.94299862  0.54262517  0.01436846  1  1.320695  0  0.681348  0.972083  0  2.364864  0
Zn  Zn5  1  0.05700823  0.51437357  0.04263143  1  1.320752  0  0.681456  0.972199  0  2.364626  0
Zn  Zn6  1  0.94299790  0.40037227  0.04262722  1  1.318305  0  0.681424  0.972283  0  2.364685  0
Zn  Zn7  1  0.05698943  0.54262243  0.90037137  1  1.31843  0  0.681361  0.972093  0  2.365088  0
H  H8  1  0.92297761  0.71457524  0.17460229  1  0.112239  0  0.120697  0.15146  0  0.970213  0
H  H9  1  0.07700957  0.67458930  0.21462053  1  0.110528  0  0.120722  0.151512  0  0.970086  0
H  H10  1  0.92298139  0.82539865  0.28539420  1  0.111731  0  0.120673  0.151347  0  0.97018  0
H  H11  1  0.07696703  0.78535264  0.32546997  1  0.110642  0  0.120751  0.151507  0  0.9701  0
H  H12  1  0.07702831  0.40239195  0.70841244  1  0.135215  0  0.120642  0.151327  0  0.970293  0
H  H13  1  0.92298894  0.20837331  0.90243208  1  0.134009  0  0.120671  0.15143  0  0.970249  0
H  H14  1  0.07697005  0.29161679  0.59758211  1  0.13373  0  0.1207  0.151445  0  0.970116  0
H  H15  1  0.92298221  0.09758089  0.79161364  1  0.134567  0  0.120768  0.15146  0  0.970169  0
H  H16  1  0.61080522  0.40241182  0.17457056  1  0.115992  0  0.12068  0.151454  0  0.970173  0
H  H17  1  0.61080317  0.20837876  0.21461833  1  0.086471  0  0.120662  0.151335  0  0.970237  0
H  H18  1  0.38920066  0.29162317  0.28537002  1  0.086524  0  0.120704  0.151514  0  0.970071  0
H  H19  1  0.38918969  0.09760069  0.32535221  1  0.115053  0  0.120607  0.151295  0  0.970313  0
H  H20  1  0.38920318  0.67455114  0.90241229  1  0.116199  0  0.120741  0.151454  0  0.970326  0
H  H21  1  0.38918296  0.71460558  0.70837383  1  0.086537  0  0.120675  0.15135  0  0.97019  0
H  H22  1  0.61081605  0.78538503  0.79162706  1  0.086568  0  0.120658  0.151394  0  0.970254  0
H  H23  1  0.61079744  0.82537125  0.59760189  1  0.1163  0  0.120634  0.151293  0  0.97023  0
H  H24  1  0.91964033  0.83715624  0.74320237  1  0.639546  0  0.308629  0.353834  0  0.965956  0
H  H25  1  0.08036328  0.66284418  0.75679740  1  0.639651  0  0.30862  0.35374  0  0.966072  0
H  H26  1  0.91963627  0.66284015  0.91751922  1  0.636195  0  0.308651  0.35379  0  0.96596  0
H  H27  1  0.08036685  0.83716083  0.58247963  1  0.636136  0  0.308669  0.353763  0  0.966049  0
H  H28  1  0.91963424  0.08248689  0.33714327  1  0.636576  0  0.308705  0.353808  0  0.965612  0
H  H29  1  0.08036946  0.41751799  0.16285650  1  0.636558  0  0.308746  0.35383  0  0.965589  0
H  H30  1  0.91964172  0.25680848  0.16282822  1  0.639812  0  0.308593  0.353606  0  0.966133  0
H  H31  1  0.08036227  0.24319512  0.33717323  1  0.639774  0  0.308598  0.353559  0  0.96612  0
C  C32  1  0.18100749  0.09051823  0.40948897  1  1.588894  0  0.227238  0.640325  0  4.166688  0
C  C33  1  0.99999577  0.13988694  0.36011064  1  1.430999  0  0.227551  0.631292  0  4.118392  0
C  C34  1  0.99998246  0.90949169  0.40950473  1  1.6049  0  0.227411  0.640675  0  4.166462  0
C  C35  1  0.81899440  0.90949072  0.59051238  1  1.588317  0  0.227263  0.640388  0  4.166813  0
C  C36  1  0.00000656  0.86011205  0.63988911  1  1.430642  0  0.22756  0.631331  0  4.118399  0
C  C37  1  0.99999348  0.09050532  0.59050517  1  1.631023  0  0.227355  0.640495  0  4.166928  0
C  C38  1  0.00000723  0.59049394  0.09051172  1  1.604215  0  0.227405  0.640634  0  4.166538  0
C  C39  1  0.00000749  0.36011750  0.13989112  1  1.430331  0  0.227367  0.631044  0  4.118516  0
C  C40  1  0.81899132  0.40948858  0.09049769  1  1.588895  0  0.22714  0.640142  0  4.167189  0
C  C41  1  0.99999183  0.40948035  0.90951057  1  1.623602  0  0.227362  0.640531  0  4.166554  0
C  C42  1  0.99999705  0.63988837  0.86011024  1  1.430583  0  0.22753  0.63138  0  4.118417  0
C  C43  1  0.18100555  0.59049406  0.90948719  1  1.589138  0  0.22742  0.640735  0  4.166424  0
C  C44  1  0.00000408  0.80413131  0.69586902  1  0.004724  0  -0.052089  -0.302287  0  4.029638  0
C  C45  1  0.99999901  0.69586914  0.80413031  1  0.004758  0  -0.052065  -0.302273  0  4.029623  0
C  C46  1  0.95628078  0.77685018  0.76686909  1  0.575984  0  0.068716  0.195616  0  4.068668  0
C  C47  1  0.04372306  0.72314997  0.73312988  1  0.670304  0  0.068735  0.195645  0  4.068525  0
C  C48  1  0.95627906  0.72314870  0.82057154  1  0.615909  0  0.068704  0.195564  0  4.068645  0
C  C49  1  0.04372498  0.77685216  0.67942793  1  0.522269  0  0.068735  0.195581  0  4.068375  0
C  C50  1  0.99999995  0.19587043  0.30413080  1  0.00463  0  -0.05209  -0.302197  0  4.029597  0
C  C51  1  0.00000394  0.30413517  0.19587073  1  0.004393  0  -0.052035  -0.302316  0  4.029861  0
C  C52  1  0.95627833  0.17943380  0.27684299  1  0.522713  0  0.068691  0.195547  0  4.068497  0
C  C53  1  0.04372580  0.32057151  0.22315815  1  0.523202  0  0.068651  0.19562  0  4.067909  0
C  C54  1  0.95628157  0.23313731  0.22314179  1  0.670538  0  0.068716  0.195614  0  4.068706  0
C  C55  1  0.04372281  0.26686772  0.27686023  1  0.670664  0  0.0688  0.195513  0  4.068137  0
C  C56  1  0.99999826  0.62786527  0.12788956  1  0.043556  0  -0.029403  -0.264941  0  3.906487  0
C  C57  1  0.95769672  0.65793998  0.13612226  1  0.465155  0  0.11726  0.316215  0  4.04263  0
C  C58  1  0.95692313  0.69280776  0.17049267  1  0.073819  0  -0.095294  -0.278146  0  3.937156  0
C  C59  1  0.99999267  0.69941547  0.19944851  1  0.097624  0  0.012773  0.203073  0  4.139577  0
C  C60  1  0.04306515  0.67047324  0.19284399  1  0.075844  0  -0.095368  -0.278472  0  3.93735  0
C  C61  1  0.04229758  0.63610226  0.15797604  1  0.464334  0  0.1173  0.316452  0  4.04195  0
C  C62  1  0.99998399  0.73473084  0.23477400  1  -0.264697  0  -0.030041  -0.08744  0  4.073047  0
C  C63  1  0.99997858  0.76522234  0.26527458  1  -0.052631  0  -0.030003  -0.087341  0  4.072976  0
C  C64  1  0.99997739  0.80054418  0.30059399  1  0.098981  0  0.012797  0.202961  0  4.139423  0
C  C65  1  0.95691713  0.82950391  0.30718099  1  0.07386  0  -0.095197  -0.277853  0  3.9371  0
C  C66  1  0.95768670  0.86387637  0.34204733  1  0.464834  0  0.117203  0.315988  0  4.042751  0
C  C67  1  0.99997602  0.87210125  0.37214457  1  0.043966  0  -0.029278  -0.264825  0  3.90647  0
C  C68  1  0.04226014  0.84200122  0.36393599  1  0.463991  0  0.117332  0.31658  0  4.042184  0
C  C69  1  0.04303424  0.80713761  0.32956293  1  0.0747  0  -0.09545  -0.278528  0  3.937583  0
C  C70  1  0.00001145  0.37210456  0.87213908  1  0.040971  0  -0.029322  -0.264724  0  3.906447  0
C  C71  1  0.04231661  0.40616476  0.79976355  1  0.458792  0  0.117221  0.316054  0  4.042839  0
C  C72  1  0.04308370  0.37256298  0.76412557  1  0.045507  0  -0.095148  -0.277814  0  3.937179  0
C  C73  1  0.00000295  0.30054855  0.80058728  1  0.112335  0  0.012736  0.203082  0  4.139522  0
C  C74  1  0.95693600  0.26408834  0.87260345  1  0.047063  0  -0.095343  -0.278462  0  3.937394  0
C  C75  1  0.95770942  0.29972516  0.90620602  1  0.461055  0  0.11716  0.316102  0  4.04197  0
C  C76  1  0.99999435  0.26523204  0.76526133  1  -0.265101  0  -0.030209  -0.087646  0  4.073222  0
C  C77  1  0.99998462  0.23474675  0.73476031  1  -0.054498  0  -0.029842  -0.08716  0  4.073047  0
C  C78  1  0.99998071  0.19943182  0.69943299  1  0.111962  0  0.012812  0.203053  0  4.139485  0
C  C79  1  0.04303640  0.23589849  0.62741387  1  0.047674  0  -0.095466  -0.278398  0  3.93727  0
C  C80  1  0.04226177  0.20026307  0.59380900  1  0.460721  0  0.117278  0.316233  0  4.042003  0
C  C81  1  0.99997823  0.12787924  0.62787717  1  0.039804  0  -0.029323  -0.264811  0  3.90646  0
C  C82  1  0.95768724  0.09381394  0.70025549  1  0.459649  0  0.117178  0.316171  0  4.042597  0
C  C83  1  0.95691689  0.12741193  0.73589681  1  0.04654  0  -0.095289  -0.278121  0  3.937038  0
C  C84  1  0.74424366  0.37211581  0.12787706  1  0.065284  0  -0.029204  -0.264496  0  3.906416  0
C  C85  1  0.70593059  0.40618171  0.13609810  1  0.451873  0  0.117139  0.316067  0  4.042286  0
C  C86  1  0.63668967  0.37258050  0.17046840  1  0.080851  0  -0.095299  -0.278312  0  3.937029  0
C  C87  1  0.60113426  0.30056195  0.19942504  1  0.12021  0  0.012862  0.203266  0  4.139237  0
C  C88  1  0.63668926  0.26409579  0.19283640  1  0.147562  0  -0.095276  -0.278091  0  3.937121  0
C  C89  1  0.70593021  0.29973502  0.15797113  1  0.413912  0  0.117095  0.315863  0  4.042396  0
C  C90  1  0.53049206  0.26524424  0.23473518  1  -0.343185  0  -0.030055  -0.087501  0  4.073324  0
C  C91  1  0.46950601  0.23475883  0.26521762  1  -0.02281  0  -0.03002  -0.087315  0  4.073295  0
C  C92  1  0.39886407  0.19944553  0.30053052  1  0.119648  0  0.012837  0.202952  0  4.139387  0
C  C93  1  0.36331313  0.23590786  0.30713998  1  0.148072  0  -0.095453  -0.278472  0  3.937264  0
C  C94  1  0.29407092  0.20027102  0.34200719  1  0.413746  0  0.117221  0.316158  0  4.041972  0
C  C95  1  0.25575530  0.12789280  0.37208791  1  0.065567  0  -0.029378  -0.264707  0  3.906611  0
C  C96  1  0.29406660  0.09383093  0.36384235  1  0.451793  0  0.117266  0.315973  0  4.042791  0
C  C97  1  0.36330869  0.12743176  0.32946892  1  0.082277  0  -0.09517  -0.277762  0  3.937065  0
C  C98  1  0.25575513  0.62786458  0.87211107  1  0.065483  0  -0.0292  -0.264747  0  3.906501  0
C  C99  1  0.29407352  0.63607830  0.90618238  1  0.452499  0  0.117319  0.316296  0  4.0421  0
C  C100  1  0.36331493  0.67045385  0.87257805  1  0.080626  0  -0.0955  -0.278453  0  3.937498  0
C  C101  1  0.39886336  0.69941415  0.80055971  1  0.120737  0  0.012824  0.203241  0  4.139494  0
C  C102  1  0.36330380  0.69282395  0.76409102  1  0.146991  0  -0.095204  -0.278048  0  3.937081  0
C  C103  1  0.29406342  0.65795703  0.79973058  1  0.413566  0  0.117191  0.316118  0  4.042442  0
C  C104  1  0.46950544  0.73472916  0.76524356  1  -0.024383  0  -0.030067  -0.087562  0  4.073242  0
C  C105  1  0.53049288  0.76521959  0.73476415  1  -0.341567  0  -0.030036  -0.087368  0  4.073307  0
C  C106  1  0.60113573  0.80054319  0.69944812  1  0.120268  0  0.012833  0.20305  0  4.139671  0
C  C107  1  0.63669485  0.80715380  0.73591216  1  0.147676  0  -0.095317  -0.278316  0  3.937308  0
C  C108  1  0.70593486  0.84202399  0.70027266  1  0.413154  0  0.117264  0.316216  0  4.041939  0
C  C109  1  0.74424536  0.87210250  0.62789330  1  0.06584  0  -0.029397  -0.264695  0  3.906385  0
C  C110  1  0.70592791  0.86386210  0.59382815  1  0.452085  0  0.1171  0.315858  0  4.042541  0
C  C111  1  0.63668465  0.82948679  0.62743251  1  0.080856  0  -0.095091  -0.27771  0  3.936995  0
O  O112  1  0.99999886  0.00000029  0.50000150  1  -1.234622  0  -0.572945  -1.034602  0  2.552548  0
O  O113  1  0.15203406  0.02496637  0.43597605  1  -1.154257  0  -0.313998  -0.544456  0  2.36134  0
O  O114  1  0.04002374  0.15610305  0.38392187  1  -1.177656  0  -0.3078  -0.548372  0  2.369886  0
O  O115  1  0.96090320  0.93595086  0.41200962  1  -1.154637  0  -0.314009  -0.544641  0  2.362186  0
O  O116  1  0.15203830  0.12708760  0.41200132  1  -1.15496  0  -0.314118  -0.544734  0  2.362208  0
O  O117  1  0.03908224  0.91201743  0.43595851  1  -1.154499  0  -0.314256  -0.544861  0  2.361433  0
O  O118  1  0.95996845  0.07605841  0.38391251  1  -1.177374  0  -0.307753  -0.548308  0  2.369871  0
O  O119  1  0.84796072  0.93596633  0.52497298  1  -1.154218  0  -0.314017  -0.544516  0  2.362  0
O  O120  1  0.95998313  0.88391980  0.65610810  1  -1.177181  0  -0.307783  -0.548348  0  2.369854  0
O  O121  1  0.84797111  0.91199319  0.62709500  1  -1.154546  0  -0.314145  -0.544766  0  2.361698  0
O  O122  1  0.04003085  0.88391874  0.57605701  1  -1.177506  0  -0.307757  -0.548306  0  2.370019  0
O  O123  1  0.03907250  0.12707142  0.52496588  1  -1.166498  0  -0.314081  -0.5446  0  2.362193  0
O  O124  1  0.96092430  0.02495295  0.62708522  1  -1.166848  0  -0.31415  -0.544693  0  2.361652  0
O  O125  1  0.00000026  0.49999949  0.00000043  1  -1.234589  0  -0.572922  -1.034534  0  2.55249  0
O  O126  1  0.96092563  0.58799167  0.06403517  1  -1.154155  0  -0.314178  -0.544731  0  2.361382  0
O  O127  1  0.04003641  0.42394607  0.11608708  1  -1.176824  0  -0.307625  -0.547964  0  2.370027  0
O  O128  1  0.84796172  0.37291780  0.08798805  1  -1.154971  0  -0.314024  -0.544535  0  2.36224  0
O  O129  1  0.03908473  0.56403301  0.08800763  1  -1.154334  0  -0.31407  -0.544694  0  2.362184  0
O  O130  1  0.84796521  0.47503511  0.06402975  1  -1.154274  0  -0.314023  -0.544515  0  2.361693  0
O  O131  1  0.95997728  0.34390019  0.11608145  1  -1.17734  0  -0.307763  -0.54839  0  2.369778  0
O  O132  1  0.96092115  0.37291062  0.97505281  1  -1.159002  0  -0.314126  -0.544756  0  2.362182  0
O  O133  1  0.04002048  0.61608061  0.84389251  1  -1.177244  0  -0.307737  -0.548353  0  2.369944  0
O  O134  1  0.03905178  0.47503340  0.87292951  1  -1.166939  0  -0.314071  -0.544549  0  2.361301  0
O  O135  1  0.95997072  0.61608121  0.92394189  1  -1.177406  0  -0.307785  -0.54836  0  2.369927  0
O  O136  1  0.15203769  0.56404297  0.97502398  1  -1.154457  0  -0.314148  -0.544745  0  2.361766  0
O  O137  1  0.15202899  0.58798289  0.87290715  1  -1.155001  0  -0.314253  -0.544896  0  2.361871  0
O  O138  1  0.91337029  0.79980983  0.78681616  1  -1.127318  0  -0.355953  -0.417288  0  2.276743  0
O  O139  1  0.08663356  0.70019031  0.71318282  1  -1.12745  0  -0.355965  -0.417216  0  2.276737  0
O  O140  1  0.91336854  0.70018531  0.88644189  1  -1.122107  0  -0.35599  -0.417234  0  2.276834  0
O  O141  1  0.08663570  0.79981627  0.61355681  1  -1.122179  0  -0.356052  -0.417255  0  2.276669  0
O  O142  1  0.91336800  0.11356623  0.29979574  1  -1.1234  0  -0.356084  -0.417274  0  2.276393  0
O  O143  1  0.08663565  0.38643965  0.20020490  1  -1.123438  0  -0.356092  -0.417282  0  2.275912  0
O  O144  1  0.91337258  0.21319409  0.20017118  1  -1.127814  0  -0.35589  -0.417071  0  2.276736  0
O  O145  1  0.08663204  0.28681066  0.29983004  1  -1.127906  0  -0.355914  -0.417006  0  2.276548  0
F  F146  1  0.91476153  0.65355401  0.11000137  1  -0.620309  0  -0.088676  -0.121408  0  1.355135  0
F  F147  1  0.08523193  0.60998786  0.15360218  1  -0.620196  0  -0.088635  -0.121418  0  1.354991  0
F  F148  1  0.91476535  0.89000697  0.34640539  1  -0.620143  0  -0.088679  -0.121357  0  1.35507  0
F  F149  1  0.08517038  0.84635640  0.39008753  1  -0.619977  0  -0.088723  -0.121471  0  1.354966  0
F  F150  1  0.08525805  0.47521141  0.76121390  1  -0.615877  0  -0.088632  -0.121367  0  1.35536  0
F  F151  1  0.91478235  0.26117262  0.97525472  1  -0.616481  0  -0.088575  -0.121208  0  1.355067  0
F  F152  1  0.08517282  0.23882098  0.52475462  1  -0.615945  0  -0.088626  -0.121328  0  1.355146  0
F  F153  1  0.91476197  0.02476366  0.73880969  1  -0.616136  0  -0.08869  -0.121439  0  1.355174  0
F  F154  1  0.73642801  0.47523326  0.10996592  1  -0.619551  0  -0.088615  -0.121309  0  1.35528  0
F  F155  1  0.73642486  0.26117803  0.15361332  1  -0.620409  0  -0.088632  -0.121277  0  1.355075  0
F  F156  1  0.26357913  0.23882558  0.34638310  1  -0.620731  0  -0.088559  -0.121213  0  1.354993  0
F  F157  1  0.26356717  0.02478370  0.38995039  1  -0.619723  0  -0.088706  -0.121397  0  1.355353  0
F  F158  1  0.26358193  0.60993435  0.97523694  1  -0.619788  0  -0.088687  -0.121362  0  1.355174  0
F  F159  1  0.26356266  0.65359726  0.76117141  1  -0.620806  0  -0.088722  -0.121388  0  1.354961  0
F  F160  1  0.73643683  0.84640322  0.73882665  1  -0.620586  0  -0.08867  -0.121333  0  1.354913  0
F  F161  1  0.73641758  0.88997130  0.52478172  1  -0.61963  0  -0.088594  -0.121306  0  1.355363  0
