# generated using pymatgen
data_ErH6C6NO8
_symmetry_space_group_name_H-M   'P 1'
_cell_length_a   6.68042167
_cell_length_b   7.82972549
_cell_length_c   9.14866379
_cell_angle_alpha   95.80223590
_cell_angle_beta   110.95805576
_cell_angle_gamma   94.20502280
_symmetry_Int_Tables_number   1
_chemical_formula_structural   ErH6C6NO8
_chemical_formula_sum   'Er2 H12 C12 N2 O16'
_cell_volume   441.48322712
_cell_formula_units_Z   2
loop_
 _symmetry_equiv_pos_site_id
 _symmetry_equiv_pos_as_xyz
  1  'x, y, z'
loop_
 _atom_site_type_symbol
 _atom_site_label
 _atom_site_symmetry_multiplicity
 _atom_site_fract_x
 _atom_site_fract_y
 _atom_site_fract_z
 _atom_site_occupancy
 _atom_site_hle17_bader_spin_density
 _atom_site_hle17_ddec_charge
 _atom_site_hle17_ddec_spin_density
 _atom_site_hle17_ddec_sum_bond_order
 _atom_site_hle17_magmom
 _atom_site_hse06_10hf_bader_spin_density
 _atom_site_hse06_10hf_ddec_charge
 _atom_site_hse06_10hf_ddec_spin_density
 _atom_site_hse06_10hf_ddec_sum_bond_order
 _atom_site_hse06_10hf_magmom
 _atom_site_hse06_bader_spin_density
 _atom_site_hse06_ddec_charge
 _atom_site_hse06_ddec_spin_density
 _atom_site_hse06_ddec_sum_bond_order
 _atom_site_hse06_magmom
 _atom_site_pbe_bader_spin_density
 _atom_site_pbe_cm5_charge
 _atom_site_pbe_ddec_charge
 _atom_site_pbe_ddec_spin_density
 _atom_site_pbe_ddec_sum_bond_order
 _atom_site_pbe_magmom
Er  Er0  1  0.37519258  0.76383015  0.21602883  1  0  2.26469  0  1.643001  0  0  2.205538  0  1.96326  0  0  2.252118  0  1.923688  0  0  1.515136  2.085048  0  2.154949  0
Er  Er1  1  0.62480972  0.23617184  0.78396214  1  0  2.26471  0  1.643256  0  0  2.205568  0  1.963534  0  0  2.252131  0  1.92397  0  0  1.515079  2.085087  0  2.155333  0
H  H2  1  0.75447194  0.26358112  0.38112650  1  0  0.126235  0  0.884372  0  0  0.13966  0  0.939344  0  0  0.142249  0  0.937473  0  0  0.132148  0.137665  0  0.941161  0
H  H3  1  0.24552794  0.73640154  0.61888842  1  0  0.126281  0  0.884273  0  0  0.139653  0  0.939286  0  0  0.142241  0  0.937412  0  0  0.132161  0.137665  0  0.941116  0
H  H4  1  0.96372524  0.22701995  0.55576618  1  0  0.129428  0  0.922856  0  0  0.140059  0  0.982322  0  0  0.142879  0  0.98086  0  0  0.130794  0.137759  0  0.983917  0
H  H5  1  0.03628105  0.77298600  0.44425457  1  0  0.129347  0  0.92307  0  0  0.140086  0  0.982328  0  0  0.142899  0  0.980878  0  0  0.130814  0.137783  0  0.983917  0
H  H6  1  0.02707362  0.83565481  0.77260367  1  0  0.130465  0  0.91758  0  0  0.140152  0  0.978883  0  0  0.142258  0  0.977806  0  0  0.12543  0.138205  0  0.980769  0
H  H7  1  0.97291886  0.16434457  0.22740312  1  0  0.130269  0  0.917557  0  0  0.140047  0  0.97888  0  0  0.142156  0  0.977803  0  0  0.12541  0.138102  0  0.980739  0
H  H8  1  0.77906396  0.71258973  0.73871914  1  0  0.140902  0  0.90502  0  0  0.152169  0  0.960709  0  0  0.155608  0  0.958015  0  0  0.135892  0.149352  0  0.963556  0
H  H9  1  0.22092277  0.28741478  0.26128225  1  0  0.140857  0  0.904937  0  0  0.152209  0  0.960624  0  0  0.155644  0  0.957936  0  0  0.135937  0.149382  0  0.963469  0
H  H10  1  0.93174102  0.57335866  0.09433153  1  0  0.434007  0  0.859797  0  0  0.409412  0  0.914245  0  0  0.418427  0  0.900997  0  0  0.311114  0.402589  0  0.923842  0
H  H11  1  0.06826930  0.42664339  0.90566150  1  0  0.433937  0  0.859831  0  0  0.409322  0  0.914367  0  0  0.418338  0  0.901118  0  0  0.31104  0.402507  0  0.923957  0
H  H12  1  0.89143136  0.76923932  0.11771544  1  0  0.451408  0  0.837132  0  0  0.423014  0  0.895352  0  0  0.434293  0  0.878837  0  0  0.30546  0.41396  0  0.908563  0
H  H13  1  0.10856898  0.23076008  0.88227480  1  0  0.451375  0  0.837211  0  0  0.422982  0  0.895425  0  0  0.434264  0  0.878903  0  0  0.305445  0.413944  0  0.908622  0
C  C14  1  0.84264611  0.46561912  0.57048869  1  0  0.577264  0  3.745363  0  0  0.52708  0  4.042686  0  0  0.558115  0  4.03865  0  0  0.27252  0.50532  0  4.042708  0
C  C15  1  0.15734686  0.53438412  0.42951310  1  0  0.577591  0  3.745258  0  0  0.527193  0  4.042819  0  0  0.558234  0  4.03878  0  0  0.272549  0.505428  0  4.042831  0
C  C16  1  0.90414634  0.32423919  0.47685818  1  0  -0.134182  0  3.634777  0  0  -0.19427  0  3.890429  0  0  -0.194326  0  3.896471  0  0  -0.038706  -0.194484  0  3.887912  0
C  C17  1  0.09585063  0.67575765  0.52315284  1  0  -0.13424  0  3.634757  0  0  -0.194228  0  3.89042  0  0  -0.194275  0  3.896435  0  0  -0.038691  -0.194448  0  3.887919  0
C  C18  1  0.88057668  0.76747452  0.67958658  1  0  -0.165063  0  3.582534  0  0  -0.219144  0  3.822067  0  0  -0.219451  0  3.827039  0  0  -0.04743  -0.21962  0  3.821896  0
C  C19  1  0.11941525  0.23253261  0.32041965  1  0  -0.164577  0  3.582105  0  0  -0.219041  0  3.822052  0  0  -0.219327  0  3.827028  0  0  -0.047569  -0.219533  0  3.821863  0
C  C20  1  0.75690969  0.89592785  0.57620420  1  0  0.781879  0  3.784451  0  0  0.737276  0  4.085029  0  0  0.77205  0  4.07231  0  0  0.249915  0.712029  0  4.089286  0
C  C21  1  0.24308636  0.10406377  0.42378208  1  0  0.78124  0  3.784954  0  0  0.736685  0  4.085626  0  0  0.771413  0  4.07298  0  0  0.24974  0.71146  0  4.089818  0
C  C22  1  0.61011347  0.96536917  0.01662951  1  0  0.556367  0  3.939981  0  0  0.51056  0  4.24968  0  0  0.540625  0  4.239156  0  0  0.215038  0.490237  0  4.247559  0
C  C23  1  0.38989090  0.03461094  0.98339072  1  0  0.55622  0  3.939834  0  0  0.510306  0  4.249691  0  0  0.540375  0  4.239168  0  0  0.215019  0.489973  0  4.247589  0
C  C24  1  0.58543227  0.47346271  0.07414668  1  0  0.543388  0  3.970814  0  0  0.500503  0  4.276335  0  0  0.530058  0  4.266589  0  0  0.204171  0.480648  0  4.273865  0
C  C25  1  0.41457103  0.52654577  0.92585822  1  0  0.54329  0  3.970486  0  0  0.500383  0  4.276017  0  0  0.529941  0  4.266267  0  0  0.204138  0.48055  0  4.273544  0
N  N26  1  0.93648617  0.62674868  0.59029074  1  0  -0.129711  0  3.436695  0  0  -0.052085  0  3.670864  0  0  -0.07059  0  3.691302  0  0  -0.253881  -0.040276  0  3.658882  0
N  N27  1  0.06350599  0.37324812  0.40971903  1  0  -0.129885  0  3.436668  0  0  -0.052034  0  3.67091  0  0  -0.070545  0  3.69135  0  0  -0.253767  -0.040234  0  3.658907  0
O  O28  1  0.70471193  0.42613304  0.62982961  1  0  -0.684266  0  2.067449  0  0  -0.653833  0  2.331003  0  0  -0.677355  0  2.320971  0  0  -0.379252  -0.624144  0  2.340913  0
O  O29  1  0.29526032  0.57385973  0.37016158  1  0  -0.684389  0  2.067545  0  0  -0.65393  0  2.33124  0  0  -0.677456  0  2.321213  0  0  -0.379244  -0.624239  0  2.341124  0
O  O30  1  0.74688305  0.04039216  0.64628263  1  0  -0.75007  0  2.085281  0  0  -0.713082  0  2.348829  0  0  -0.73881  0  2.336244  0  0  -0.402807  -0.681471  0  2.361448  0
O  O31  1  0.25311273  0.95962014  0.35371737  1  0  -0.74968  0  2.085835  0  0  -0.712686  0  2.349363  0  0  -0.738387  0  2.336784  0  0  -0.402655  -0.681079  0  2.361936  0
O  O32  1  0.67537589  0.85146910  0.42803669  1  0  -0.749981  0  2.067287  0  0  -0.717053  0  2.332076  0  0  -0.741788  0  2.319168  0  0  -0.414884  -0.685386  0  2.345097  0
O  O33  1  0.32463103  0.14853038  0.57197383  1  0  -0.749897  0  2.067206  0  0  -0.716933  0  2.331943  0  0  -0.741656  0  2.319074  0  0  -0.414867  -0.685277  0  2.344964  0
O  O34  1  0.72215402  0.01584084  0.94055381  1  0  -0.634521  0  2.053704  0  0  -0.600951  0  2.299812  0  0  -0.622997  0  2.290399  0  0  -0.362663  -0.574603  0  2.308556  0
O  O35  1  0.27787404  0.98417422  0.05943615  1  0  -0.634015  0  2.054982  0  0  -0.600435  0  2.301187  0  0  -0.622482  0  2.291776  0  0  -0.362393  -0.574083  0  2.309908  0
O  O36  1  0.66048998  0.86186371  0.11931453  1  0  -0.66816  0  2.093513  0  0  -0.621599  0  2.327249  0  0  -0.647134  0  2.319625  0  0  -0.336054  -0.595124  0  2.334306  0
O  O37  1  0.33951274  0.13814214  0.88066485  1  0  -0.668487  0  2.09197  0  0  -0.621901  0  2.325766  0  0  -0.647444  0  2.318135  0  0  -0.336309  -0.595425  0  2.332863  0
O  O38  1  0.72289182  0.38155185  0.04927434  1  0  -0.691984  0  2.095595  0  0  -0.651083  0  2.337748  0  0  -0.675478  0  2.330362  0  0  -0.365417  -0.624254  0  2.344386  0
O  O39  1  0.27712567  0.61844379  0.95072327  1  0  -0.691892  0  2.096037  0  0  -0.650917  0  2.338145  0  0  -0.675309  0  2.330756  0  0  -0.365322  -0.6241  0  2.344782  0
O  O40  1  0.57901285  0.52797392  0.20641052  1  0  -0.625059  0  2.038545  0  0  -0.595369  0  2.288044  0  0  -0.616393  0  2.278699  0  0  -0.353721  -0.570488  0  2.296162  0
O  O41  1  0.42098900  0.47202546  0.79356918  1  0  -0.625099  0  2.03781  0  0  -0.595444  0  2.287396  0  0  -0.616477  0  2.27805  0  0  -0.353761  -0.57057  0  2.295529  0
O  O42  1  0.99898271  0.69238983  0.10596978  1  0  -0.903049  0  1.871528  0  0  -0.866985  0  2.058022  0  0  -0.884383  0  2.026364  0  0  -0.642834  -0.842996  0  2.087697  0
O  O43  1  0.00102027  0.30760570  0.89401644  1  0  -0.902942  0  1.871549  0  0  -0.866854  0  2.058078  0  0  -0.884252  0  2.026417  0  0  -0.642725  -0.84286  0  2.087755  0
