# generated using pymatgen
data_KH11C13O3
_symmetry_space_group_name_H-M   'P 1'
_cell_length_a   6.69477403
_cell_length_b   7.27142403
_cell_length_c   23.31451396
_cell_angle_alpha   91.04565723
_cell_angle_beta   90.00001251
_cell_angle_gamma   90.00014684
_symmetry_Int_Tables_number   1
_chemical_formula_structural   KH11C13O3
_chemical_formula_sum   'K4 H44 C52 O12'
_cell_volume   1134.77414063
_cell_formula_units_Z   4
loop_
 _symmetry_equiv_pos_site_id
 _symmetry_equiv_pos_as_xyz
  1  'x, y, z'
loop_
 _atom_site_type_symbol
 _atom_site_label
 _atom_site_symmetry_multiplicity
 _atom_site_fract_x
 _atom_site_fract_y
 _atom_site_fract_z
 _atom_site_occupancy
 _atom_site_hle17_bader_spin_density
 _atom_site_hle17_ddec_charge
 _atom_site_hle17_ddec_spin_density
 _atom_site_hle17_ddec_sum_bond_order
 _atom_site_hle17_magmom
 _atom_site_hse06_10hf_bader_spin_density
 _atom_site_hse06_10hf_ddec_charge
 _atom_site_hse06_10hf_ddec_spin_density
 _atom_site_hse06_10hf_ddec_sum_bond_order
 _atom_site_hse06_10hf_magmom
 _atom_site_hse06_bader_spin_density
 _atom_site_hse06_ddec_charge
 _atom_site_hse06_ddec_spin_density
 _atom_site_hse06_ddec_sum_bond_order
 _atom_site_hse06_magmom
 _atom_site_pbe_bader_spin_density
 _atom_site_pbe_cm5_charge
 _atom_site_pbe_ddec_charge
 _atom_site_pbe_ddec_spin_density
 _atom_site_pbe_ddec_sum_bond_order
 _atom_site_pbe_magmom
K  K0  1  0.30869003  0.91565933  0.54983681  1  0  0.923898  0  0.500287  0  0  0.879454  0  0.686862  0  0  0.893806  0  0.663683  0  0  0.811168  0.868369  0  0.703778  0
K  K1  1  0.80868998  0.58433854  0.45016280  1  0  0.923907  0  0.500277  0  0  0.879447  0  0.686864  0  0  0.893797  0  0.66369  0  0  0.81117  0.868361  0  0.703782  0
K  K2  1  0.69130817  0.08433668  0.45016126  1  0  0.923887  0  0.500303  0  0  0.879425  0  0.686916  0  0  0.893775  0  0.663742  0  0  0.811172  0.868343  0  0.703833  0
K  K3  1  0.19130673  0.41565889  0.54983913  1  0  0.923894  0  0.500289  0  0  0.879435  0  0.686902  0  0  0.89378  0  0.663733  0  0  0.811174  0.868349  0  0.703819  0
H  H4  1  0.58810808  0.93041555  0.75452117  1  0  0.085806  0  0.953073  0  0  0.098785  0  1.014065  0  0  0.101337  0  1.012202  0  0  0.100176  0.096876  0  1.015473  0
H  H5  1  0.08811141  0.56958866  0.24547803  1  0  0.085747  0  0.953049  0  0  0.098733  0  1.014037  0  0  0.101283  0  1.012179  0  0  0.100159  0.096826  0  1.015446  0
H  H6  1  0.41189311  0.06958459  0.24547821  1  0  0.085784  0  0.953103  0  0  0.098759  0  1.014104  0  0  0.10131  0  1.012241  0  0  0.100158  0.096851  0  1.015511  0
H  H7  1  0.91189426  0.43041149  0.75452220  1  0  0.085816  0  0.953051  0  0  0.098769  0  1.01407  0  0  0.101341  0  1.012188  0  0  0.100172  0.096863  0  1.015479  0
H  H8  1  0.42461111  0.36296788  0.77480379  1  0  0.088896  0  0.955559  0  0  0.099597  0  1.020941  0  0  0.102558  0  1.018699  0  0  0.100748  0.097415  0  1.022641  0
H  H9  1  0.92460804  0.13703373  0.22519621  1  0  0.088929  0  0.955488  0  0  0.099597  0  1.020903  0  0  0.102557  0  1.018662  0  0  0.100757  0.097415  0  1.022604  0
H  H10  1  0.57539157  0.63702814  0.22519599  1  0  0.088901  0  0.955588  0  0  0.099611  0  1.020949  0  0  0.102572  0  1.018708  0  0  0.100756  0.09743  0  1.022649  0
H  H11  1  0.07539016  0.86296780  0.77480446  1  0  0.088968  0  0.955437  0  0  0.09963  0  1.020868  0  0  0.102591  0  1.018625  0  0  0.100771  0.097449  0  1.022569  0
H  H12  1  0.73572916  0.88483430  0.83650607  1  0  0.084419  0  0.987838  0  0  0.093826  0  1.053733  0  0  0.095857  0  1.054076  0  0  0.093439  0.09233  0  1.053586  0
H  H13  1  0.23573106  0.61517025  0.16349228  1  0  0.084461  0  0.987864  0  0  0.093831  0  1.05377  0  0  0.095888  0  1.054087  0  0  0.093454  0.092322  0  1.053639  0
H  H14  1  0.26427800  0.11516309  0.16349286  1  0  0.084491  0  0.987791  0  0  0.093891  0  1.053684  0  0  0.095922  0  1.054027  0  0  0.093463  0.09239  0  1.053545  0
H  H15  1  0.76427163  0.38483127  0.83650753  1  0  0.084472  0  0.987877  0  0  0.093865  0  1.053763  0  0  0.095906  0  1.054098  0  0  0.093459  0.092355  0  1.053631  0
H  H16  1  0.26431763  0.48349565  0.85335019  1  0  0.08732  0  0.981081  0  0  0.097117  0  1.045142  0  0  0.09902  0  1.046122  0  0  0.094241  0.095707  0  1.044581  0
H  H17  1  0.76432013  0.01650419  0.14664894  1  0  0.087338  0  0.981085  0  0  0.09711  0  1.045176  0  0  0.09903  0  1.04614  0  0  0.094245  0.095699  0  1.044615  0
H  H18  1  0.73568058  0.51650722  0.14664791  1  0  0.087401  0  0.981015  0  0  0.097146  0  1.045137  0  0  0.099086  0  1.046079  0  0  0.094255  0.095735  0  1.044576  0
H  H19  1  0.23568106  0.98349460  0.85335257  1  0  0.087404  0  0.981015  0  0  0.097164  0  1.045115  0  0  0.099087  0  1.046079  0  0  0.094264  0.095754  0  1.044555  0
H  H20  1  0.73134676  0.94096968  0.94049264  1  0  0.082972  0  0.977312  0  0  0.093994  0  1.039854  0  0  0.095811  0  1.040606  0  0  0.095386  0.092679  0  1.039393  0
H  H21  1  0.23134842  0.55902937  0.05950612  1  0  0.082931  0  0.977285  0  0  0.093991  0  1.039813  0  0  0.095807  0  1.040567  0  0  0.095387  0.092673  0  1.039349  0
H  H22  1  0.26865593  0.05902909  0.05950673  1  0  0.082966  0  0.977365  0  0  0.094003  0  1.039897  0  0  0.095819  0  1.04065  0  0  0.095373  0.092686  0  1.039436  0
H  H23  1  0.76865128  0.44096940  0.94049282  1  0  0.082948  0  0.977338  0  0  0.093975  0  1.039884  0  0  0.095791  0  1.040636  0  0  0.095374  0.092661  0  1.039422  0
H  H24  1  0.49710223  0.76408665  0.00298803  1  0  0.084  0  0.964624  0  0  0.094492  0  1.028725  0  0  0.096968  0  1.028415  0  0  0.09668  0.092693  0  1.029058  0
H  H25  1  0.99710304  0.73591303  0.99701118  1  0  0.083994  0  0.964612  0  0  0.094484  0  1.02872  0  0  0.09696  0  1.02841  0  0  0.096679  0.092685  0  1.029055  0
H  H26  1  0.50289597  0.23591486  0.99701092  1  0  0.083992  0  0.964651  0  0  0.094487  0  1.028755  0  0  0.09696  0  1.028444  0  0  0.096684  0.092687  0  1.029091  0
H  H27  1  0.00289516  0.26408988  0.00298950  1  0  0.083939  0  0.964604  0  0  0.094415  0  1.028733  0  0  0.09689  0  1.02842  0  0  0.096672  0.092617  0  1.029064  0
H  H28  1  0.26666584  0.53365466  0.95764113  1  0  0.07993  0  0.979642  0  0  0.090626  0  1.043943  0  0  0.092569  0  1.044205  0  0  0.09471  0.089195  0  1.043876  0
H  H29  1  0.76666951  0.96634448  0.04235849  1  0  0.079934  0  0.979687  0  0  0.090635  0  1.043969  0  0  0.092577  0  1.044231  0  0  0.094703  0.089204  0  1.043902  0
H  H30  1  0.73332938  0.46634685  0.04235739  1  0  0.079938  0  0.979729  0  0  0.090643  0  1.044009  0  0  0.092585  0  1.04427  0  0  0.094701  0.089211  0  1.043942  0
H  H31  1  0.23333019  0.03365706  0.95764261  1  0  0.079942  0  0.97974  0  0  0.09064  0  1.044027  0  0  0.092583  0  1.044289  0  0  0.094714  0.089212  0  1.043957  0
H  H32  1  0.60667619  0.88355754  0.65067307  1  0  0.107633  0  0.969964  0  0  0.116954  0  1.033121  0  0  0.12075  0  1.031907  0  0  0.104724  0.114269  0  1.034101  0
H  H33  1  0.10667674  0.61644671  0.34932528  1  0  0.107631  0  0.969973  0  0  0.116953  0  1.033126  0  0  0.120747  0  1.031907  0  0  0.104733  0.114268  0  1.034106  0
H  H34  1  0.39332202  0.11644122  0.34932588  1  0  0.107623  0  0.969947  0  0  0.116949  0  1.033097  0  0  0.120745  0  1.031882  0  0  0.104719  0.114264  0  1.034079  0
H  H35  1  0.89332445  0.38355345  0.65067495  1  0  0.107647  0  0.96997  0  0  0.116972  0  1.033111  0  0  0.120767  0  1.031894  0  0  0.104748  0.114287  0  1.034091  0
H  H36  1  0.40659377  0.16429514  0.70489265  1  0  0.020328  0  0.932645  0  0  0.028585  0  1.006856  0  0  0.030286  0  1.003173  0  0  0.096008  0.027166  0  1.00968  0
H  H37  1  0.90659130  0.33570779  0.29510693  1  0  0.020291  0  0.932692  0  0  0.028553  0  1.00689  0  0  0.030252  0  1.00321  0  0  0.096014  0.027136  0  1.009714  0
H  H38  1  0.59340891  0.83570225  0.29510671  1  0  0.020291  0  0.932624  0  0  0.02855  0  1.006844  0  0  0.030251  0  1.003158  0  0  0.095973  0.027132  0  1.009669  0
H  H39  1  0.09341138  0.66429374  0.70489331  1  0  0.020308  0  0.932656  0  0  0.028571  0  1.006881  0  0  0.030271  0  1.003196  0  0  0.095993  0.027152  0  1.009707  0
H  H40  1  0.82276861  0.90375042  0.56116622  1  0  0.423987  0  0.882435  0  0  0.394071  0  0.945775  0  0  0.405029  0  0.92958  0  0  0.289647  0.386316  0  0.957223  0
H  H41  1  0.32276619  0.59625024  0.43883469  1  0  0.424051  0  0.88234  0  0  0.394083  0  0.945785  0  0  0.405047  0  0.929578  0  0  0.289642  0.386328  0  0.957227  0
H  H42  1  0.17722810  0.09625386  0.43883446  1  0  0.42409  0  0.882282  0  0  0.394165  0  0.945638  0  0  0.405123  0  0.929442  0  0  0.289669  0.386411  0  0.957085  0
H  H43  1  0.67723052  0.40374992  0.56116597  1  0  0.424012  0  0.88239  0  0  0.394103  0  0.945716  0  0  0.40506  0  0.929523  0  0  0.289668  0.386348  0  0.957164  0
H  H44  1  0.66794314  0.73743513  0.56124148  1  0  0.405225  0  0.915178  0  0  0.374023  0  0.981278  0  0  0.385414  0  0.964746  0  0  0.277166  0.365972  0  0.992918  0
H  H45  1  0.16794268  0.76256516  0.43875899  1  0  0.405217  0  0.915186  0  0  0.374011  0  0.981289  0  0  0.385405  0  0.964753  0  0  0.27716  0.365959  0  0.992934  0
H  H46  1  0.33205506  0.26256915  0.43875877  1  0  0.405162  0  0.915259  0  0  0.373978  0  0.981334  0  0  0.385368  0  0.964803  0  0  0.277135  0.365926  0  0.992977  0
H  H47  1  0.83205403  0.23743363  0.56124209  1  0  0.405167  0  0.915256  0  0  0.373953  0  0.981372  0  0  0.385346  0  0.964838  0  0  0.27714  0.365901  0  0.993019  0
C  C48  1  0.52622796  0.59536088  0.65052321  1  0  0.373596  0  3.849896  0  0  0.354105  0  4.111003  0  0  0.373527  0  4.123987  0  0  0.093567  0.341187  0  4.101655  0
C  C49  1  0.02622484  0.90464182  0.34947684  1  0  0.373493  0  3.849986  0  0  0.354031  0  4.11106  0  0  0.373454  0  4.124046  0  0  0.093557  0.341115  0  4.101712  0
C  C50  1  0.47377323  0.40463927  0.34947660  1  0  0.373572  0  3.849895  0  0  0.354072  0  4.111007  0  0  0.373495  0  4.123992  0  0  0.093572  0.341152  0  4.101663  0
C  C51  1  0.97377635  0.09535697  0.65052425  1  0  0.373477  0  3.849881  0  0  0.354006  0  4.110965  0  0  0.373429  0  4.123952  0  0  0.093553  0.34109  0  4.101616  0
C  C52  1  0.55603062  0.79410164  0.73643554  1  0  -0.053154  0  3.751547  0  0  -0.075474  0  4.002849  0  0  -0.072373  0  4.023939  0  0  -0.08069  -0.076999  0  3.988189  0
C  C53  1  0.05603136  0.70590251  0.26356409  1  0  -0.053042  0  3.751366  0  0  -0.075364  0  4.002675  0  0  -0.072263  0  4.023766  0  0  -0.080624  -0.076892  0  3.988017  0
C  C54  1  0.44397206  0.20589713  0.26356341  1  0  -0.053141  0  3.751238  0  0  -0.075439  0  4.00255  0  0  -0.072337  0  4.02364  0  0  -0.080645  -0.076963  0  3.987888  0
C  C55  1  0.94397431  0.29409766  0.73643700  1  0  -0.053184  0  3.751232  0  0  -0.075466  0  4.002558  0  0  -0.072383  0  4.023641  0  0  -0.080658  -0.076996  0  3.987901  0
C  C56  1  0.56654474  0.76845765  0.67769674  1  0  -0.224722  0  3.741242  0  0  -0.243353  0  4.000575  0  0  -0.254061  0  4.022177  0  0  -0.115564  -0.236318  0  3.985892  0
C  C57  1  0.06654260  0.73154652  0.32230246  1  0  -0.224658  0  3.741162  0  0  -0.243301  0  4.000501  0  0  -0.254002  0  4.022094  0  0  -0.115562  -0.236266  0  3.98582  0
C  C58  1  0.43345944  0.23153975  0.32230305  1  0  -0.224688  0  3.741008  0  0  -0.243319  0  4.000343  0  0  -0.254025  0  4.021943  0  0  -0.115574  -0.236286  0  3.985665  0
C  C59  1  0.93346158  0.26845776  0.67769780  1  0  -0.224629  0  3.741054  0  0  -0.243267  0  4.000374  0  0  -0.25397  0  4.021976  0  0  -0.115578  -0.236233  0  3.985692  0
C  C60  1  0.47247092  0.44793244  0.68821528  1  0  -0.169917  0  3.798736  0  0  -0.150395  0  4.039105  0  0  -0.167289  0  4.067463  0  0  -0.046951  -0.139229  0  4.019765  0
C  C61  1  0.97246469  0.05206791  0.31178472  1  0  -0.169863  0  3.798818  0  0  -0.150373  0  4.039203  0  0  -0.16727  0  4.067567  0  0  -0.046976  -0.139204  0  4.019861  0
C  C62  1  0.52752878  0.55206771  0.31178453  1  0  -0.169965  0  3.798812  0  0  -0.150442  0  4.039193  0  0  -0.167336  0  4.067549  0  0  -0.046962  -0.139272  0  4.01985  0
C  C63  1  0.02753352  0.94793087  0.68821550  1  0  -0.17001  0  3.79909  0  0  -0.150493  0  4.039445  0  0  -0.16739  0  4.067807  0  0  -0.047012  -0.139326  0  4.020108  0
C  C64  1  0.46225257  0.48009501  0.74810359  1  0  -0.105585  0  3.751529  0  0  -0.133949  0  4.001723  0  0  -0.130699  0  4.023195  0  0  -0.08158  -0.13561  0  3.986894  0
C  C65  1  0.96225367  0.01990944  0.25189600  1  0  -0.105673  0  3.75155  0  0  -0.134011  0  4.001778  0  0  -0.13076  0  4.023249  0  0  -0.081617  -0.135672  0  3.986948  0
C  C66  1  0.53774862  0.51990514  0.25189622  1  0  -0.105664  0  3.751598  0  0  -0.134024  0  4.001814  0  0  -0.130774  0  4.023286  0  0  -0.081609  -0.135686  0  3.986984  0
C  C67  1  0.03774902  0.98009211  0.74810552  1  0  -0.105584  0  3.75157  0  0  -0.1339  0  4.001784  0  0  -0.130652  0  4.023256  0  0  -0.08155  -0.135562  0  3.986958  0
C  C68  1  0.50373890  0.65019921  0.77375907  1  0  -0.007721  0  3.835787  0  0  0.008995  0  4.070929  0  0  0.001604  0  4.099572  0  0  -0.03187  0.013674  0  4.051511  0
C  C69  1  0.00374001  0.84980344  0.22624054  1  0  -0.007672  0  3.835794  0  0  0.009048  0  4.070936  0  0  0.001657  0  4.099577  0  0  -0.031838  0.013727  0  4.051516  0
C  C70  1  0.49626677  0.34980231  0.22624031  1  0  -0.0076  0  3.835558  0  0  0.009068  0  4.070752  0  0  0.001673  0  4.099401  0  0  -0.03186  0.013745  0  4.051333  0
C  C71  1  0.99626566  0.15019535  0.77376011  1  0  -0.007647  0  3.835607  0  0  0.009023  0  4.070789  0  0  0.001634  0  4.099432  0  0  -0.031852  0.013702  0  4.051372  0
C  C72  1  0.43451268  0.26084373  0.66917322  1  0  0.348045  0  3.737863  0  0  0.306834  0  4.010471  0  0  0.330417  0  4.011728  0  0  0.079695  0.290961  0  4.009351  0
C  C73  1  0.93450550  0.23915652  0.33082592  1  0  0.348069  0  3.737725  0  0  0.306875  0  4.010321  0  0  0.330461  0  4.011575  0  0  0.079662  0.290999  0  4.009206  0
C  C74  1  0.56549000  0.73915504  0.33082615  1  0  0.348148  0  3.737801  0  0  0.306934  0  4.010413  0  0  0.330519  0  4.011668  0  0  0.079712  0.291059  0  4.009299  0
C  C75  1  0.06549121  0.76084229  0.66917645  1  0  0.348055  0  3.737658  0  0  0.306831  0  4.010274  0  0  0.330418  0  4.011528  0  0  0.079655  0.290955  0  4.009157  0
C  C76  1  0.49972091  0.68069918  0.83652658  1  0  0.047079  0  3.812808  0  0  0.062096  0  4.042262  0  0  0.063599  0  4.066538  0  0  -0.015138  0.06112  0  4.025814  0
C  C77  1  0.99972278  0.81930601  0.16347265  1  0  0.046996  0  3.81275  0  0  0.062008  0  4.042216  0  0  0.063508  0  4.066503  0  0  -0.015176  0.061032  0  4.025767  0
C  C78  1  0.50028028  0.31930095  0.16347151  1  0  0.047025  0  3.812857  0  0  0.062077  0  4.042292  0  0  0.063577  0  4.06658  0  0  -0.015134  0.061099  0  4.025843  0
C  C79  1  0.00027841  0.18069278  0.83652800  1  0  0.047023  0  3.812812  0  0  0.062064  0  4.042264  0  0  0.063563  0  4.066549  0  0  -0.015148  0.061089  0  4.025815  0
C  C80  1  0.62969263  0.80941541  0.86263076  1  0  -0.12276  0  3.737177  0  0  -0.138777  0  3.97668  0  0  -0.142202  0  3.998056  0  0  -0.09598  -0.13637  0  3.962174  0
C  C81  1  0.12969322  0.69058477  0.13736842  1  0  -0.122808  0  3.737053  0  0  -0.138782  0  3.976554  0  0  -0.142227  0  3.997915  0  0  -0.096001  -0.136367  0  3.962057  0
C  C82  1  0.37031155  0.19058197  0.13736774  1  0  -0.122801  0  3.737221  0  0  -0.138812  0  3.976709  0  0  -0.142237  0  3.998083  0  0  -0.09598  -0.136404  0  3.962208  0
C  C83  1  0.87030648  0.30941537  0.86263095  1  0  -0.122832  0  3.737048  0  0  -0.138828  0  3.976536  0  0  -0.142262  0  3.997905  0  0  -0.096009  -0.136412  0  3.96204  0
C  C84  1  0.36911295  0.58255249  0.87204370  1  0  -0.122256  0  3.734654  0  0  -0.137849  0  3.973  0  0  -0.141379  0  3.994673  0  0  -0.095089  -0.135377  0  3.958292  0
C  C85  1  0.86911655  0.91745100  0.12795466  1  0  -0.122169  0  3.734638  0  0  -0.13774  0  3.972988  0  0  -0.141285  0  3.994653  0  0  -0.095028  -0.135268  0  3.95828  0
C  C86  1  0.63088675  0.41744901  0.12795397  1  0  -0.122243  0  3.734706  0  0  -0.137806  0  3.97306  0  0  -0.141368  0  3.994707  0  0  -0.095067  -0.135335  0  3.958351  0
C  C87  1  0.13088763  0.08255054  0.87204644  1  0  -0.12221  0  3.734663  0  0  -0.137776  0  3.972996  0  0  -0.141325  0  3.994661  0  0  -0.09504  -0.135305  0  3.95829  0
C  C88  1  0.62845143  0.84010072  0.92185021  1  0  -0.070662  0  3.785984  0  0  -0.080901  0  4.028825  0  0  -0.082007  0  4.050492  0  0  -0.094957  -0.079995  0  4.013995  0
C  C89  1  0.12845487  0.65990221  0.07814899  1  0  -0.070621  0  3.785845  0  0  -0.080904  0  4.028683  0  0  -0.082014  0  4.050357  0  0  -0.094955  -0.079992  0  4.013844  0
C  C90  1  0.37155126  0.15989942  0.07814874  1  0  -0.070705  0  3.78611  0  0  -0.080965  0  4.028953  0  0  -0.082071  0  4.050617  0  0  -0.094965  -0.080055  0  4.01412  0
C  C91  1  0.87155080  0.34009933  0.92185211  1  0  -0.070747  0  3.785971  0  0  -0.081001  0  4.028828  0  0  -0.082109  0  4.050495  0  0  -0.094993  -0.080095  0  4.013993  0
C  C92  1  0.49818104  0.74138618  0.95661203  1  0  -0.091851  0  3.7868  0  0  -0.105642  0  4.035045  0  0  -0.108438  0  4.056313  0  0  -0.09847  -0.103693  0  4.020522  0
C  C93  1  0.99818413  0.75861075  0.04338716  1  0  -0.091784  0  3.786718  0  0  -0.105573  0  4.034972  0  0  -0.108367  0  4.056236  0  0  -0.098445  -0.103628  0  4.020456  0
C  C94  1  0.50181717  0.25861395  0.04338648  1  0  -0.091757  0  3.786864  0  0  -0.105553  0  4.035111  0  0  -0.108345  0  4.056373  0  0  -0.098463  -0.103607  0  4.020595  0
C  C95  1  0.00181258  0.24138941  0.95661307  1  0  -0.09159  0  3.78671  0  0  -0.10536  0  4.034948  0  0  -0.10815  0  4.05621  0  0  -0.098417  -0.103412  0  4.020425  0
C  C96  1  0.36920413  0.61231018  0.93132419  1  0  -0.068879  0  3.788861  0  0  -0.079609  0  4.032518  0  0  -0.080828  0  4.054518  0  0  -0.094377  -0.078617  0  4.017448  0
C  C97  1  0.86920461  0.88769195  0.06867459  1  0  -0.069024  0  3.788942  0  0  -0.079761  0  4.032609  0  0  -0.080981  0  4.054612  0  0  -0.094452  -0.07877  0  4.017544  0
C  C98  1  0.63079258  0.38769133  0.06867391  1  0  -0.069047  0  3.789141  0  0  -0.079792  0  4.032815  0  0  -0.081012  0  4.054822  0  0  -0.094442  -0.0788  0  4.017746  0
C  C99  1  0.13079359  0.11230822  0.93132650  1  0  -0.069083  0  3.789015  0  0  -0.079829  0  4.032701  0  0  -0.081049  0  4.054704  0  0  -0.09444  -0.078837  0  4.017631  0
O  O100  1  0.53681976  0.57667501  0.59464772  1  0  -0.688688  0  2.039956  0  0  -0.623132  0  2.259333  0  0  -0.649216  0  2.254012  0  0  -0.40224  -0.604471  0  2.262299  0
O  O101  1  0.03681673  0.92332496  0.40535231  1  0  -0.68869  0  2.039981  0  0  -0.623133  0  2.259353  0  0  -0.649211  0  2.254012  0  0  -0.402248  -0.604475  0  2.262321  0
O  O102  1  0.46317994  0.42332513  0.40535208  1  0  -0.688682  0  2.039977  0  0  -0.623086  0  2.259351  0  0  -0.64918  0  2.254034  0  0  -0.402235  -0.604427  0  2.262321  0
O  O103  1  0.96318297  0.07667382  0.59464791  1  0  -0.688637  0  2.039847  0  0  -0.623076  0  2.259219  0  0  -0.649153  0  2.253878  0  0  -0.402243  -0.604414  0  2.262179  0
O  O104  1  0.72573610  0.83567870  0.53623077  1  0  -0.965854  0  1.790929  0  0  -0.91984  0  1.967013  0  0  -0.938314  0  1.933837  0  0  -0.769871  -0.9064  0  1.990238  0
O  O105  1  0.22573390  0.66432173  0.46376971  1  0  -0.965889  0  1.790808  0  0  -0.919861  0  1.966924  0  0  -0.938337  0  1.933737  0  0  -0.769862  -0.906421  0  1.99016  0
O  O106  1  0.27425911  0.16432697  0.46377034  1  0  -0.965856  0  1.790825  0  0  -0.919884  0  1.966949  0  0  -0.938357  0  1.933771  0  0  -0.769844  -0.906444  0  1.990172  0
O  O107  1  0.77425982  0.33567567  0.53623051  1  0  -0.965784  0  1.790885  0  0  -0.9198  0  1.967046  0  0  -0.938273  0  1.933868  0  0  -0.769854  -0.906362  0  1.990263  0
O  O108  1  0.43017636  0.19979430  0.61889083  1  0  -0.551092  0  2.030425  0  0  -0.504602  0  2.270511  0  0  -0.521717  0  2.26426  0  0  -0.404573  -0.492812  0  2.274703  0
O  O109  1  0.93016789  0.30020734  0.38111047  1  0  -0.551106  0  2.030275  0  0  -0.504613  0  2.270347  0  0  -0.521726  0  2.264092  0  0  -0.404558  -0.492822  0  2.274542  0
O  O110  1  0.56982334  0.80020310  0.38110897  1  0  -0.551129  0  2.030428  0  0  -0.504637  0  2.270508  0  0  -0.521752  0  2.264258  0  0  -0.404555  -0.492848  0  2.274705  0
O  O111  1  0.06982434  0.69978869  0.61889018  1  0  -0.551109  0  2.030202  0  0  -0.504623  0  2.270301  0  0  -0.521739  0  2.264049  0  0  -0.404556  -0.492831  0  2.274493  0
