# generated using pymatgen
data_ZnH14C22SN3O4
_symmetry_space_group_name_H-M   'P 1'
_cell_length_a   10.05781626
_cell_length_b   11.26892936
_cell_length_c   11.21331179
_cell_angle_alpha   83.05013580
_cell_angle_beta   63.33762250
_cell_angle_gamma   63.46320162
_symmetry_Int_Tables_number   1
_chemical_formula_structural   ZnH14C22SN3O4
_chemical_formula_sum   'Zn2 H28 C44 S2 N6 O8'
_cell_volume   1011.09270638
_cell_formula_units_Z   2
loop_
 _symmetry_equiv_pos_site_id
 _symmetry_equiv_pos_as_xyz
  1  'x, y, z'
loop_
 _atom_site_type_symbol
 _atom_site_label
 _atom_site_symmetry_multiplicity
 _atom_site_fract_x
 _atom_site_fract_y
 _atom_site_fract_z
 _atom_site_occupancy
 _atom_site_hle17_bader_spin_density
 _atom_site_hle17_ddec_charge
 _atom_site_hle17_ddec_spin_density
 _atom_site_hle17_ddec_sum_bond_order
 _atom_site_hle17_magmom
 _atom_site_hse06_10hf_bader_spin_density
 _atom_site_hse06_10hf_ddec_charge
 _atom_site_hse06_10hf_ddec_spin_density
 _atom_site_hse06_10hf_ddec_sum_bond_order
 _atom_site_hse06_10hf_magmom
 _atom_site_hse06_bader_spin_density
 _atom_site_hse06_ddec_charge
 _atom_site_hse06_ddec_spin_density
 _atom_site_hse06_ddec_sum_bond_order
 _atom_site_hse06_magmom
 _atom_site_pbe_bader_spin_density
 _atom_site_pbe_cm5_charge
 _atom_site_pbe_ddec_charge
 _atom_site_pbe_ddec_spin_density
 _atom_site_pbe_ddec_sum_bond_order
 _atom_site_pbe_magmom
Zn  Zn0  1  0.18481279  0.49978120  0.49985262  1  0  0.980798  0  1.792017  0  0  0.781881  0  2.244973  0  0  0.834944  0  2.190153  0  0  0.681117  0.744318  0  2.283706  0
Zn  Zn1  1  0.97875049  0.00018773  0.99999388  1  0  1.029006  0  1.837041  0  0  0.838308  0  2.318989  0  0  0.886708  0  2.263154  0  0  0.681095  0.804181  0  2.357893  0
H  H2  1  0.35707655  0.31263510  0.22056741  1  0  0.326202  0  0.914768  0  0  0.306552  0  0.977561  0  0  0.315435  0  0.970172  0  0  0.311613  0.300607  0  0.982455  0
H  H3  1  0.88992946  0.68805089  0.77958400  1  0  0.325762  0  0.91188  0  0  0.304999  0  0.97657  0  0  0.313907  0  0.969154  0  0  0.311463  0.299065  0  0.981422  0
H  H4  1  0.33170930  0.54750927  0.06489913  1  0  0.109791  0  0.97717  0  0  0.122109  0  1.034524  0  0  0.124376  0  1.034566  0  0  0.104552  0.120242  0  1.034821  0
H  H5  1  0.94396971  0.45316168  0.93485042  1  0  0.108399  0  0.977012  0  0  0.120526  0  1.035007  0  0  0.122771  0  1.035058  0  0  0.103597  0.118664  0  1.035323  0
H  H6  1  0.51341495  0.63215602  0.88657571  1  0  0.106077  0  0.983001  0  0  0.114597  0  1.046211  0  0  0.118328  0  1.04327  0  0  0.097514  0.111525  0  1.049012  0
H  H7  1  0.03206929  0.36814032  0.11322910  1  0  0.1053  0  0.982863  0  0  0.114028  0  1.045984  0  0  0.117772  0  1.043056  0  0  0.097389  0.110936  0  1.048814  0
H  H8  1  0.82001482  0.48987139  0.76651346  1  0  0.095443  0  0.976941  0  0  0.102895  0  1.044221  0  0  0.105975  0  1.042697  0  0  0.094412  0.100524  0  1.04568  0
H  H9  1  0.07600622  0.51031161  0.23349402  1  0  0.095695  0  0.978575  0  0  0.103025  0  1.045923  0  0  0.10622  0  1.04425  0  0  0.094482  0.100574  0  1.047484  0
H  H10  1  0.94995541  0.25939993  0.82551370  1  0  0.12701  0  0.950303  0  0  0.135567  0  1.013125  0  0  0.139206  0  1.010147  0  0  0.109333  0.132774  0  1.015848  0
H  H11  1  0.03421236  0.74077564  0.17478214  1  0  0.12785  0  0.9495  0  0  0.135735  0  1.012842  0  0  0.139366  0  1.009854  0  0  0.109122  0.132958  0  1.015532  0
H  H12  1  0.66707548  0.13869801  0.35509234  1  0  0.112782  0  0.921875  0  0  0.129208  0  0.975668  0  0  0.130891  0  0.97539  0  0  0.10528  0.128125  0  0.975517  0
H  H13  1  0.16052586  0.86093399  0.64469070  1  0  0.113595  0  0.920796  0  0  0.13018  0  0.974201  0  0  0.131902  0  0.973853  0  0  0.105646  0.129078  0  0.974082  0
H  H14  1  0.44475494  0.20441242  0.43318943  1  0  0.090287  0  0.973508  0  0  0.099622  0  1.045593  0  0  0.100978  0  1.045641  0  0  0.093216  0.098501  0  1.045778  0
H  H15  1  0.08108673  0.79594902  0.56701563  1  0  0.091199  0  0.97507  0  0  0.100666  0  1.046675  0  0  0.102155  0  1.046603  0  0  0.093842  0.099452  0  1.046968  0
H  H16  1  0.83464256  0.89610962  0.37028707  1  0  0.111058  0  0.976786  0  0  0.115324  0  1.05086  0  0  0.119461  0  1.046899  0  0  0.104296  0.112153  0  1.054062  0
H  H17  1  0.10055638  0.10377234  0.62971149  1  0  0.111422  0  0.977131  0  0  0.11606  0  1.05075  0  0  0.120192  0  1.04682  0  0  0.104989  0.112884  0  1.053952  0
H  H18  1  0.61392917  0.74854783  0.74580214  1  0  0.104463  0  0.960928  0  0  0.112539  0  1.028464  0  0  0.116382  0  1.024936  0  0  0.105664  0.109855  0  1.030741  0
H  H19  1  0.10866479  0.25128568  0.25393100  1  0  0.105099  0  0.959873  0  0  0.112942  0  1.027676  0  0  0.116792  0  1.024136  0  0  0.105778  0.110268  0  1.029925  0
H  H20  1  0.31134584  0.10147302  0.62654686  1  0  0.104552  0  0.981165  0  0  0.11059  0  1.054223  0  0  0.113921  0  1.051588  0  0  0.102562  0.108195  0  1.056033  0
H  H21  1  0.03949940  0.89866183  0.37297435  1  0  0.105309  0  0.980701  0  0  0.111268  0  1.053596  0  0  0.114629  0  1.050905  0  0  0.102942  0.108858  0  1.05541  0
H  H22  1  0.27372155  0.67966631  0.26123708  1  0  0.095871  0  0.936092  0  0  0.106117  0  0.995539  0  0  0.108396  0  0.993137  0  0  0.127098  0.104276  0  0.997384  0
H  H23  1  0.21429197  0.32011598  0.73877239  1  0  0.095996  0  0.937698  0  0  0.106862  0  0.996292  0  0  0.109118  0  0.99396  0  0  0.127775  0.105054  0  0.998053  0
H  H24  1  0.48480854  0.76843312  0.16159799  1  0  0.120154  0  0.919472  0  0  0.133648  0  0.967675  0  0  0.136828  0  0.967385  0  0  0.119254  0.131347  0  0.968116  0
H  H25  1  0.41406977  0.23147691  0.83893437  1  0  0.120349  0  0.9195  0  0  0.133944  0  0.967599  0  0  0.137068  0  0.967386  0  0  0.119584  0.131643  0  0.968035  0
H  H26  1  0.69509483  0.70599043  0.24980198  1  0  0.100217  0  0.959622  0  0  0.107823  0  1.026326  0  0  0.109598  0  1.026506  0  0  0.108123  0.106519  0  1.026175  0
H  H27  1  0.65043373  0.29371824  0.75073024  1  0  0.100808  0  0.960991  0  0  0.10845  0  1.027537  0  0  0.110193  0  1.027691  0  0  0.108878  0.107166  0  1.027402  0
H  H28  1  0.81045009  0.57443471  0.40936767  1  0  0.105746  0  0.963822  0  0  0.115526  0  1.025811  0  0  0.117409  0  1.026611  0  0  0.107263  0.114479  0  1.024751  0
H  H29  1  0.79397700  0.42491747  0.59140460  1  0  0.106095  0  0.962784  0  0  0.116177  0  1.024589  0  0  0.118164  0  1.0252  0  0  0.107603  0.115084  0  1.023592  0
C  C30  1  0.60590824  0.16323021  0.13575020  1  0  0.322085  0  3.778612  0  0  0.293024  0  4.072559  0  0  0.31071  0  4.084075  0  0  0.219201  0.281615  0  4.064158  0
C  C31  1  0.90438054  0.83736691  0.86451761  1  0  0.321241  0  3.778488  0  0  0.291486  0  4.074272  0  0  0.309096  0  4.08579  0  0  0.218371  0.280105  0  4.065923  0
C  C32  1  0.53967923  0.35781286  0.04966937  1  0  0.162524  0  3.789354  0  0  0.155834  0  4.030602  0  0  0.15978  0  4.053458  0  0  0.093647  0.152977  0  4.01468  0
C  C33  1  0.94687362  0.64272308  0.95039496  1  0  0.159846  0  3.793673  0  0  0.153456  0  4.034494  0  0  0.157335  0  4.057348  0  0  0.093001  0.150639  0  4.018588  0
C  C34  1  0.46520748  0.48626381  0.01595166  1  0  -0.161655  0  3.767126  0  0  -0.178103  0  4.014109  0  0  -0.181795  0  4.035945  0  0  -0.099666  -0.174509  0  3.998253  0
C  C35  1  0.96731545  0.51421332  0.98388792  1  0  -0.160286  0  3.768558  0  0  -0.176732  0  4.01561  0  0  -0.180393  0  4.037434  0  0  -0.098356  -0.173164  0  3.999769  0
C  C36  1  0.56967409  0.53183655  0.91393598  1  0  -0.073336  0  3.765034  0  0  -0.089961  0  4.019231  0  0  -0.091965  0  4.041062  0  0  -0.097232  -0.088591  0  4.004852  0
C  C37  1  0.01542945  0.46841540  0.08582028  1  0  -0.073066  0  3.768684  0  0  -0.089856  0  4.022812  0  0  -0.091887  0  4.044695  0  0  -0.098037  -0.088472  0  4.008385  0
C  C38  1  0.74238921  0.45104275  0.84665959  1  0  -0.094466  0  3.786273  0  0  -0.112108  0  4.049143  0  0  -0.114909  0  4.07113  0  0  -0.104543  -0.110204  0  4.03481  0
C  C39  1  0.03983525  0.54916399  0.15328563  1  0  -0.093348  0  3.789029  0  0  -0.110796  0  4.051256  0  0  -0.113647  0  4.073207  0  0  -0.103734  -0.108834  0  4.036912  0
C  C40  1  0.81697518  0.32217229  0.87864609  1  0  -0.140024  0  3.718909  0  0  -0.160357  0  3.972627  0  0  -0.162117  0  3.991009  0  0  -0.091834  -0.159736  0  3.961097  0
C  C41  1  0.01738798  0.67805285  0.12146959  1  0  -0.142371  0  3.721052  0  0  -0.162297  0  3.97491  0  0  -0.164033  0  3.993273  0  0  -0.09195  -0.161684  0  3.963359  0
C  C42  1  0.71346613  0.27620428  0.98274170  1  0  0.149545  0  3.816042  0  0  0.148323  0  4.058372  0  0  0.150708  0  4.082599  0  0  0.0865  0.146739  0  4.042179  0
C  C43  1  0.97200687  0.72423209  0.01741364  1  0  0.150539  0  3.816328  0  0  0.149833  0  4.057551  0  0  0.152195  0  4.081826  0  0  0.086428  0.148268  0  4.041323  0
C  C44  1  0.56225907  0.11403310  0.39112021  1  0  -0.165041  0  3.63409  0  0  -0.207488  0  3.889895  0  0  -0.206249  0  3.899068  0  0  -0.141762  -0.20818  0  3.883671  0
C  C45  1  0.06671511  0.88610337  0.60889878  1  0  -0.167637  0  3.638227  0  0  -0.209588  0  3.89281  0  0  -0.208465  0  3.901923  0  0  -0.143122  -0.21021  0  3.886626  0
C  C46  1  0.57263908  0.01201934  0.48974042  1  0  0.088363  0  3.778397  0  0  0.117762  0  4.011346  0  0  0.114517  0  4.036459  0  0  -0.019758  0.119541  0  3.994461  0
C  C47  1  0.07410003  0.98800440  0.51013459  1  0  0.090445  0  3.775023  0  0  0.119225  0  4.00861  0  0  0.115967  0  4.033778  0  0  -0.018533  0.121014  0  3.991682  0
C  C48  1  0.72671755  0.90525999  0.46330874  1  0  -0.104003  0  3.687316  0  0  -0.139132  0  3.932497  0  0  -0.137544  0  3.951591  0  0  -0.080468  -0.139541  0  3.919753  0
C  C49  1  0.09513670  0.09462517  0.53655814  1  0  -0.106266  0  3.684845  0  0  -0.141585  0  3.93052  0  0  -0.140023  0  3.949629  0  0  -0.080792  -0.141976  0  3.917745  0
C  C50  1  0.74329489  0.81151135  0.55598235  1  0  -0.08463  0  3.829089  0  0  -0.061002  0  4.072709  0  0  -0.071273  0  4.09705  0  0  -0.026435  -0.055024  0  4.056692  0
C  C51  1  0.11084970  0.18831745  0.44382802  1  0  -0.082805  0  3.827602  0  0  -0.059152  0  4.07171  0  0  -0.069402  0  4.096071  0  0  -0.026881  -0.053173  0  4.055677  0
C  C52  1  0.60344337  0.82131210  0.67323318  1  0  -0.068795  0  3.710002  0  0  -0.111865  0  3.965451  0  0  -0.107896  0  3.983118  0  0  -0.078166  -0.113827  0  3.952876  0
C  C53  1  0.09821278  0.17859274  0.32652754  1  0  -0.068086  0  3.705723  0  0  -0.111056  0  3.961243  0  0  -0.107117  0  3.97892  0  0  -0.076973  -0.112997  0  3.948659  0
C  C54  1  0.44674348  0.92325587  0.69688382  1  0  -0.05441  0  3.752952  0  0  -0.025313  0  3.982434  0  0  -0.034572  0  4.005503  0  0  -0.017757  -0.019944  0  3.967005  0
C  C55  1  0.06701541  0.07679655  0.30289919  1  0  -0.056189  0  3.752674  0  0  -0.026817  0  3.981917  0  0  -0.036066  0  4.004971  0  0  -0.018018  -0.021468  0  3.966505  0
C  C56  1  0.43269845  0.01968032  0.60579324  1  0  -0.104302  0  3.674655  0  0  -0.140376  0  3.918598  0  0  -0.138892  0  3.938606  0  0  -0.079749  -0.14071  0  3.904927  0
C  C57  1  0.05812075  0.98039051  0.39398121  1  0  -0.105329  0  3.67498  0  0  -0.141254  0  3.919272  0  0  -0.139809  0  3.939338  0  0  -0.080862  -0.141545  0  3.905568  0
C  C58  1  0.91141743  0.70192432  0.52281161  1  0  0.624629  0  3.905032  0  0  0.574197  0  4.193182  0  0  0.608252  0  4.186775  0  0  0.200322  0.551235  0  4.196448  0
C  C59  1  0.13620996  0.29781520  0.47698670  1  0  0.62682  0  3.901555  0  0  0.575782  0  4.190629  0  0  0.609812  0  4.184184  0  0  0.201003  0.552815  0  4.19392  0
C  C60  1  0.29611067  0.92481198  0.81779600  1  0  0.624929  0  3.938952  0  0  0.579024  0  4.225792  0  0  0.612891  0  4.219366  0  0  0.191487  0.556263  0  4.229002  0
C  C61  1  0.03918120  0.07520560  0.18184309  1  0  0.624437  0  3.940871  0  0  0.578513  0  4.22776  0  0  0.612386  0  4.221321  0  0  0.192244  0.55575  0  4.230975  0
C  C62  1  0.36694882  0.65413727  0.29658203  1  0  0.163733  0  3.670347  0  0  0.126066  0  3.930472  0  0  0.135723  0  3.947002  0  0  0.066615  0.120322  0  3.9191  0
C  C63  1  0.31750434  0.34542906  0.70343951  1  0  0.162462  0  3.669828  0  0  0.124079  0  3.930491  0  0  0.133709  0  3.946986  0  0  0.064948  0.11835  0  3.919144  0
C  C64  1  0.47158621  0.54118446  0.44567182  1  0  0.13253  0  3.761363  0  0  0.126061  0  3.992138  0  0  0.130319  0  4.014798  0  0  0.116002  0.122628  0  3.977672  0
C  C65  1  0.45881498  0.45795557  0.55417792  1  0  0.127976  0  3.764634  0  0  0.122777  0  3.994356  0  0  0.126995  0  4.017059  0  0  0.114982  0.119377  0  3.979856  0
C  C66  1  0.48583000  0.70372309  0.24188275  1  0  -0.107352  0  3.710534  0  0  -0.121683  0  3.966798  0  0  -0.129664  0  3.987786  0  0  -0.071925  -0.117137  0  3.952828  0
C  C67  1  0.43100456  0.29594247  0.75844212  1  0  -0.106821  0  3.708456  0  0  -0.12115  0  3.96476  0  0  -0.129074  0  3.98573  0  0  -0.071738  -0.116622  0  3.950842  0
C  C68  1  0.60105712  0.66937009  0.29072806  1  0  -0.026436  0  3.661311  0  0  -0.051133  0  3.906851  0  0  -0.047226  0  3.924836  0  0  -0.050937  -0.053328  0  3.894602  0
C  C69  1  0.56083754  0.33015889  0.70965495  1  0  -0.026209  0  3.662619  0  0  -0.050899  0  3.908231  0  0  -0.046928  0  3.926272  0  0  -0.051208  -0.053135  0  3.895931  0
C  C70  1  0.59757981  0.58468375  0.39498869  1  0  0.031874  0  3.775683  0  0  0.050472  0  4.001033  0  0  0.047751  0  4.025018  0  0  0.004445  0.05287  0  3.984919  0
C  C71  1  0.57728233  0.41458441  0.60519127  1  0  0.031689  0  3.778958  0  0  0.0497  0  4.004293  0  0  0.04696  0  4.028318  0  0  0.003866  0.052093  0  3.988163  0
C  C72  1  0.71360357  0.54104673  0.45022914  1  0  -0.084447  0  3.71044  0  0  -0.106227  0  3.960132  0  0  -0.109869  0  3.984709  0  0  -0.07637  -0.103593  0  3.942996  0
C  C73  1  0.70486131  0.45825791  0.55026360  1  0  -0.084564  0  3.710574  0  0  -0.106543  0  3.960228  0  0  -0.110209  0  3.984756  0  0  -0.076496  -0.103873  0  3.943126  0
S  S74  1  0.58067809  0.04087364  0.24224623  1  0  -0.036756  0  2.289062  0  0  -0.036202  0  2.612655  0  0  -0.038679  0  2.611809  0  0  0.012713  -0.034293  0  2.612583  0
S  S75  1  0.86328356  0.95978422  0.75805384  1  0  -0.037045  0  2.290856  0  0  -0.036395  0  2.614874  0  0  -0.038896  0  2.614111  0  0  0.013119  -0.034466  0  2.614753  0
N  N76  1  0.75037794  0.15595590  0.03908312  1  0  -0.46811  0  3.233055  0  0  -0.399073  0  3.522591  0  0  -0.420026  0  3.533674  0  0  -0.342228  -0.385114  0  3.515264  0
N  N77  1  0.94489700  0.84455045  0.96117427  1  0  -0.466715  0  3.232583  0  0  -0.397615  0  3.522146  0  0  -0.418538  0  3.533217  0  0  -0.340623  -0.383683  0  3.514851  0
N  N78  1  0.47641619  0.28231205  0.14389572  1  0  -0.372943  0  3.361215  0  0  -0.314754  0  3.588272  0  0  -0.332407  0  3.599653  0  0  -0.374847  -0.302807  0  3.579965  0
N  N79  1  0.90231547  0.71829412  0.85622009  1  0  -0.369966  0  3.359247  0  0  -0.311484  0  3.588486  0  0  -0.328992  0  3.599632  0  0  -0.374954  -0.299637  0  3.580336  0
N  N80  1  0.35957134  0.57558770  0.39611189  1  0  -0.361691  0  3.293929  0  0  -0.28526  0  3.569147  0  0  -0.305354  0  3.58404  0  0  -0.325131  -0.272586  0  3.559641  0
N  N81  1  0.33154049  0.42368093  0.60366474  1  0  -0.359631  0  3.292731  0  0  -0.283293  0  3.567545  0  0  -0.303347  0  3.582424  0  0  -0.323892  -0.27065  0  3.55806  0
O  O82  1  0.02399025  0.67735010  0.40434924  1  0  -0.600422  0  1.980306  0  0  -0.543363  0  2.220012  0  0  -0.568465  0  2.211787  0  0  -0.3006  -0.52549  0  2.224328  0
O  O83  1  0.10600515  0.32217621  0.59539058  1  0  -0.602636  0  1.979322  0  0  -0.5453  0  2.219652  0  0  -0.570278  0  2.211243  0  0  -0.302108  -0.527465  0  2.224018  0
O  O84  1  0.94184506  0.63134894  0.61688943  1  0  -0.648955  0  2.039292  0  0  -0.569469  0  2.292753  0  0  -0.598117  0  2.278754  0  0  -0.322105  -0.549554  0  2.301712  0
O  O85  1  0.18985950  0.36859630  0.38301737  1  0  -0.649603  0  2.039658  0  0  -0.570435  0  2.293547  0  0  -0.599137  0  2.279681  0  0  -0.322158  -0.550598  0  2.302734  0
O  O86  1  0.31315606  0.84048584  0.89987517  1  0  -0.602389  0  1.895648  0  0  -0.557493  0  2.105622  0  0  -0.57962  0  2.096821  0  0  -0.326386  -0.541592  0  2.110904  0
O  O87  1  0.05456244  0.15926898  0.09959500  1  0  -0.601267  0  1.896417  0  0  -0.556403  0  2.106384  0  0  -0.578507  0  2.097578  0  0  -0.326609  -0.540498  0  2.111626  0
O  O88  1  0.15325529  0.01517241  0.82704083  1  0  -0.653539  0  2.029263  0  0  -0.581532  0  2.301411  0  0  -0.611031  0  2.286867  0  0  -0.334288  -0.560644  0  2.31063  0
O  O89  1  0.99556278  0.98511919  0.17273629  1  0  -0.654457  0  2.030211  0  0  -0.582235  0  2.30186  0  0  -0.611777  0  2.287378  0  0  -0.335142  -0.56135  0  2.31109  0
