# generated using pymatgen
data_AlH8C16NO7
_symmetry_space_group_name_H-M   'P 1'
_cell_length_a   6.64424555
_cell_length_b   20.29054406
_cell_length_c   22.86442606
_cell_angle_alpha   93.54748708
_cell_angle_beta   90.60649506
_cell_angle_gamma   88.83104808
_symmetry_Int_Tables_number   1
_chemical_formula_structural   AlH8C16NO7
_chemical_formula_sum   'Al4 H32 C64 N4 O28'
_cell_volume   3075.79477579
_cell_formula_units_Z   4
loop_
 _symmetry_equiv_pos_site_id
 _symmetry_equiv_pos_as_xyz
  1  'x, y, z'
loop_
 _atom_site_type_symbol
 _atom_site_label
 _atom_site_symmetry_multiplicity
 _atom_site_fract_x
 _atom_site_fract_y
 _atom_site_fract_z
 _atom_site_occupancy
 _atom_site_pbe_bader_charge
 _atom_site_pbe_bader_spin_density
 _atom_site_pbe_cm5_charge
 _atom_site_pbe_ddec_charge
 _atom_site_pbe_ddec_spin_density
 _atom_site_pbe_ddec_sum_bond_order
 _atom_site_pbe_magmom
Al  Al0  1  0.20574359  0.75140378  0.75057890  1  2.501883  0  0.400375  1.644711  0  2.581118  0
Al  Al1  1  0.79426174  0.24859091  0.24942319  1  2.502034  0  0.400365  1.64484  0  2.580845  0
Al  Al2  1  0.70540887  0.74988459  0.74902627  1  2.502997  0  0.4011  1.647305  0  2.578558  0
Al  Al3  1  0.29458735  0.25011256  0.25097537  1  2.50307  0  0.400988  1.647206  0  2.578831  0
H  H4  1  0.31085288  0.54455935  0.95871993  1  0.08602  0  0.110337  0.110766  0  0.999443  0
H  H5  1  0.68915690  0.45543560  0.04127910  1  0.086113  0  0.110341  0.110715  0  0.9994  0
H  H6  1  0.79963351  0.95077936  0.54838501  1  0.088196  0  0.111622  0.112888  0  0.992244  0
H  H7  1  0.20037187  0.04921613  0.45162146  1  0.088411  0  0.111648  0.112894  0  0.992362  0
H  H8  1  0.33582490  0.46418470  0.03719780  1  0.076769  0  0.109503  0.110335  0  1.003119  0
H  H9  1  0.66419075  0.53581568  0.96280168  1  0.076885  0  0.109524  0.110411  0  1.00314  0
H  H10  1  0.84443366  0.03019127  0.47039810  1  0.094269  0  0.109008  0.110045  0  1.004265  0
H  H11  1  0.15557176  0.96980326  0.52960881  1  0.094158  0  0.109022  0.110172  0  1.004291  0
H  H12  1  0.23751070  0.66080122  0.58352992  1  0.118084  0  0.112779  0.119186  0  1.009231  0
H  H13  1  0.76249423  0.33920394  0.41646692  1  0.11816  0  0.112799  0.119151  0  1.009281  0
H  H14  1  0.20048605  0.84709261  0.92274522  1  0.08317  0  0.112386  0.117329  0  1.007079  0
H  H15  1  0.79951762  0.15290698  0.07725644  1  0.082958  0  0.112366  0.117294  0  1.007106  0
H  H16  1  0.71233172  0.57029105  0.64541159  1  0.123757  0  0.113264  0.122235  0  1.003096  0
H  H17  1  0.28767928  0.42971154  0.35458394  1  0.123629  0  0.113275  0.122294  0  1.003079  0
H  H18  1  0.72325274  0.92459806  0.84698359  1  0.113889  0  0.11433  0.1238  0  1.0034  0
H  H19  1  0.27674793  0.07540158  0.15301849  1  0.113866  0  0.114324  0.123805  0  1.00339  0
H  H20  1  0.45201030  0.36645971  0.54499961  1  0.064295  0  0.100405  0.143559  0  1.003046  0
H  H21  1  0.46810658  0.36856345  0.46802851  1  0.03112  0  0.099333  0.143851  0  0.993456  0
H  H22  1  0.63658249  0.31715359  0.50584303  1  0.040274  0  0.10151  0.142372  0  0.977967  0
H  H23  1  0.54792469  0.63356594  0.45499055  1  0.063299  0  0.100407  0.143556  0  1.003154  0
H  H24  1  0.36335152  0.68285829  0.49415458  1  0.039982  0  0.101616  0.142385  0  0.977975  0
H  H25  1  0.53187230  0.63145475  0.53196303  1  0.031571  0  0.099333  0.143761  0  0.993178  0
H  H26  1  0.06753949  0.11680556  0.94150132  1  0.075192  0  0.100724  0.143787  0  1.003074  0
H  H27  1  0.90652740  0.17168171  0.98408418  1  0.072786  0  0.102428  0.143735  0  0.976396  0
H  H28  1  0.06872007  0.11554815  0.01873504  1  0.071742  0  0.098865  0.141974  0  0.996987  0
H  H29  1  0.93245351  0.88319740  0.05849857  1  0.075679  0  0.100697  0.143772  0  1.003074  0
H  H30  1  0.93128045  0.88445472  0.98126398  1  0.071695  0  0.098849  0.14194  0  0.996993  0
H  H31  1  0.09346420  0.82831888  0.01591702  1  0.072885  0  0.102388  0.143703  0  0.976428  0
H  H32  1  0.45782947  0.66462352  0.75966359  1  0.634026  0  0.360519  0.442395  0  0.834859  0
H  H33  1  0.54218339  0.33537227  0.24034070  1  0.633808  0  0.360526  0.442412  0  0.834985  0
H  H34  1  0.94931362  0.83659602  0.74005300  1  0.613049  0  0.360223  0.441688  0  0.837386  0
H  H35  1  0.05070070  0.16340236  0.25995305  1  0.612915  0  0.360178  0.441702  0  0.837313  0
C  C36  1  0.44847172  0.83230951  0.83049681  1  1.593601  0  0.271133  0.644752  0  4.090315  0
C  C37  1  0.55153498  0.16768906  0.16950441  1  1.593411  0  0.271269  0.644967  0  4.090124  0
C  C38  1  0.96840307  0.66926256  0.66881107  1  1.589594  0  0.270565  0.645266  0  4.09222  0
C  C39  1  0.03160209  0.33073583  0.33118751  1  1.590143  0  0.270577  0.645359  0  4.091992  0
C  C40  1  0.45511093  0.82653088  0.67304820  1  1.664397  0  0.2754  0.714942  0  4.160418  0
C  C41  1  0.54490364  0.17345752  0.32695610  1  1.664296  0  0.275094  0.714523  0  4.161237  0
C  C42  1  0.95491789  0.67463890  0.82660541  1  1.686546  0  0.275348  0.715907  0  4.16169  0
C  C43  1  0.04508895  0.32535027  0.17338836  1  1.686072  0  0.275386  0.716023  0  4.161051  0
C  C44  1  0.18966907  0.48012282  0.02058495  1  0.013415  0  -0.072812  -0.111462  0  3.945564  0
C  C45  1  0.81034219  0.51987145  0.97941145  1  0.013466  0  -0.072774  -0.111429  0  3.945477  0
C  C46  1  0.69441433  0.01672087  0.48359280  1  -0.013808  0  -0.073381  -0.113299  0  3.947633  0
C  C47  1  0.30559102  0.98327726  0.51641630  1  -0.014495  0  -0.073568  -0.113817  0  3.947989  0
C  C48  1  0.01395935  0.45465859  0.04417398  1  0.116804  0  0.008943  0.132558  0  4.099741  0
C  C49  1  0.98604883  0.54533818  0.95582286  1  0.117162  0  0.008917  0.132549  0  4.099707  0
C  C50  1  0.52484047  0.04473273  0.45607265  1  0.057418  0  0.008745  0.132828  0  4.098621  0
C  C51  1  0.47516944  0.95526450  0.54393777  1  0.057411  0  0.008978  0.133274  0  4.098731  0
C  C52  1  0.82413672  0.47525417  0.02286666  1  -0.087121  0  -0.071887  -0.109869  0  3.943789  0
C  C53  1  0.17588210  0.52473854  0.97712887  1  -0.087081  0  -0.07192  -0.109925  0  3.943766  0
C  C54  1  0.33025425  0.02732987  0.47319725  1  -0.025888  0  -0.070972  -0.109114  0  3.940569  0
C  C55  1  0.66974516  0.97266474  0.52681053  1  -0.026175  0  -0.07114  -0.109519  0  3.940867  0
C  C56  1  0.02703515  0.40926123  0.08866504  1  -0.363203  0  -0.019556  -0.032049  0  4.08357  0
C  C57  1  0.97297614  0.59073316  0.91133312  1  -0.364192  0  -0.019539  -0.032099  0  4.083618  0
C  C58  1  0.54524437  0.08959458  0.41165889  1  -0.428175  0  -0.019448  -0.031653  0  4.083768  0
C  C59  1  0.45476419  0.91039551  0.58834803  1  -0.42695  0  -0.019556  -0.031916  0  4.084249  0
C  C60  1  0.96403403  0.62967962  0.87287397  1  0.095778  0  -0.035319  -0.189222  0  3.949084  0
C  C61  1  0.03596368  0.37030913  0.12711321  1  0.094921  0  -0.035253  -0.18916  0  3.94894  0
C  C62  1  0.44905999  0.87164526  0.62690052  1  0.183802  0  -0.035393  -0.189106  0  3.950088  0
C  C63  1  0.55094244  0.12834327  0.37309806  1  0.184309  0  -0.035396  -0.189285  0  3.949968  0
C  C64  1  0.12663636  0.62230511  0.57677378  1  -0.03882  0  -0.073932  -0.125471  0  3.915705  0
C  C65  1  0.87337023  0.37769570  0.42322437  1  -0.038686  0  -0.073945  -0.125409  0  3.915738  0
C  C66  1  0.32092601  0.88267448  0.92636303  1  0.018647  0  -0.072904  -0.122669  0  3.917026  0
C  C67  1  0.67907461  0.11732607  0.07363818  1  0.018888  0  -0.072895  -0.122677  0  3.917032  0
C  C68  1  0.97277625  0.61984900  0.61769266  1  -0.041496  0  -0.010553  -0.02756  0  3.998442  0
C  C69  1  0.02721517  0.38015526  0.38230459  1  -0.0441  0  -0.010603  -0.027743  0  3.998553  0
C  C70  1  0.46205301  0.88164147  0.88152698  1  -0.018701  0  -0.009035  -0.02335  0  3.98769  0
C  C71  1  0.53794765  0.11835810  0.11847423  1  -0.018547  0  -0.009083  -0.023395  0  3.987613  0
C  C72  1  0.82902916  0.57064867  0.61237100  1  -0.020056  0  -0.076032  -0.132691  0  3.924776  0
C  C73  1  0.17096057  0.42935809  0.38761968  1  -0.01745  0  -0.075975  -0.13266  0  3.924526  0
C  C74  1  0.61688763  0.92714809  0.88295650  1  -0.027205  0  -0.074928  -0.127772  0  3.917392  0
C  C75  1  0.38310694  0.07285234  0.11704251  1  -0.027217  0  -0.074849  -0.127745  0  3.917466  0
C  C76  1  0.84118492  0.52158052  0.56651323  1  0.03186  0  0.001845  0.040089  0  4.024399  0
C  C77  1  0.15880787  0.47842644  0.43348052  1  0.031079  0  0.001757  0.03999  0  4.02438  0
C  C78  1  0.63048408  0.97565860  0.92903099  1  0.077404  0  -0.000456  0.035086  0  4.037039  0
C  C79  1  0.36951351  0.02434243  0.07096977  1  0.077346  0  -0.000461  0.035067  0  4.037226  0
C  C80  1  0.99453911  0.52455037  0.52347600  1  -0.018586  0  0.012464  0.019378  0  3.920922  0
C  C81  1  0.00543852  0.47545844  0.47651510  1  0.047498  0  0.012533  0.019458  0  3.92069  0
C  C82  1  0.49125993  0.97595953  0.97620834  1  -0.054597  0  0.009666  0.013618  0  3.926709  0
C  C83  1  0.50874073  0.02404060  0.02379374  1  0.00469  0  0.009694  0.013702  0  3.926678  0
C  C84  1  0.13803488  0.57625712  0.52864398  1  0.055122  0  -0.000739  0.030468  0  3.985336  0
C  C85  1  0.86194737  0.42374988  0.47134976  1  0.054602  0  -0.00067  0.03073  0  3.985206  0
C  C86  1  0.33458486  0.92845062  0.97469370  1  0.019863  0  -0.000933  0.028519  0  3.983402  0
C  C87  1  0.66541272  0.07155143  0.02530751  1  0.020269  0  -0.000776  0.028773  0  3.983199  0
C  C88  1  0.70318560  0.46792463  0.55978041  1  0.150912  0  0.07809  -0.038673  0  3.896317  0
C  C89  1  0.29681015  0.53208491  0.44021510  1  0.150164  0  0.078035  -0.038792  0  3.896315  0
C  C90  1  0.78320004  0.02497642  0.93224432  1  0.171476  0  0.076914  -0.040696  0  3.896108  0
C  C91  1  0.21680363  0.97502317  0.06775734  1  0.171219  0  0.076926  -0.040712  0  3.896153  0
C  C92  1  0.70534345  0.42039025  0.51451735  1  0.078959  0  0.009208  0.094587  0  3.943707  0
C  C93  1  0.29462795  0.57962487  0.48547198  1  0.078876  0  0.009266  0.094741  0  3.94336  0
C  C94  1  0.80822141  0.07117461  0.97791359  1  0.048904  0  0.008794  0.094243  0  3.94534  0
C  C95  1  0.19178068  0.92882687  0.02208674  1  0.049194  0  0.008913  0.094476  0  3.945305  0
C  C96  1  0.55752102  0.36534975  0.50858479  1  -0.027808  0  -0.234437  -0.412412  0  3.957954  0
C  C97  1  0.44244128  0.63467004  0.49140761  1  -0.026385  0  -0.234517  -0.412267  0  3.957683  0
C  C98  1  0.97138961  0.12134625  0.98009400  1  -0.10246  0  -0.23468  -0.411898  0  3.959012  0
C  C99  1  0.02860943  0.87865620  0.01990589  1  -0.102941  0  -0.234633  -0.411866  0  3.958998  0
N  N100  1  0.55296952  0.46394016  0.60655984  1  0.367358  0  0.056506  0.526814  0  4.215626  0
N  N101  1  0.44703070  0.53607189  0.39343655  1  0.367318  0  0.056299  0.526879  0  4.215724  0
N  N102  1  0.91680993  0.02587363  0.88101500  1  0.36026  0  0.056244  0.524311  0  4.219236  0
N  N103  1  0.08319371  0.97412695  0.11898666  1  0.360454  0  0.056133  0.524149  0  4.219424  0
O  O104  1  0.62652624  0.80022098  0.68352982  1  -1.229369  0  -0.228146  -0.579154  0  2.271012  0
O  O105  1  0.37348366  0.19977116  0.31647140  1  -1.228873  0  -0.227981  -0.578944  0  2.271163  0
O  O106  1  0.12040730  0.68547615  0.80153931  1  -1.243562  0  -0.227828  -0.586097  0  2.286398  0
O  O107  1  0.87957395  0.31451363  0.19845486  1  -1.243621  0  -0.227919  -0.586257  0  2.2857  0
O  O108  1  0.27833885  0.80650556  0.81913124  1  -1.256043  0  -0.233291  -0.583387  0  2.317647  0
O  O109  1  0.72166052  0.19348887  0.18087391  1  -1.25613  0  -0.233405  -0.58352  0  2.317795  0
O  O110  1  0.80173774  0.67943679  0.69536954  1  -1.263064  0  -0.236826  -0.596689  0  2.32773  0
O  O111  1  0.19827369  0.32055658  0.30463519  1  -1.263136  0  -0.236808  -0.596749  0  2.327756  0
O  O112  1  0.29129778  0.81747625  0.69966438  1  -1.242063  0  -0.228914  -0.587207  0  2.284173  0
O  O113  1  0.70871677  0.18251646  0.30034517  1  -1.242139  0  -0.228874  -0.586997  0  2.284248  0
O  O114  1  0.78241090  0.69899673  0.81444028  1  -1.23244  0  -0.227898  -0.579803  0  2.273537  0
O  O115  1  0.21758828  0.30100079  0.18555962  1  -1.231739  0  -0.227868  -0.57984  0  2.273719  0
O  O116  1  0.13445736  0.69658670  0.68238205  1  -1.257009  0  -0.233222  -0.587192  0  2.350229  0
O  O117  1  0.86554019  0.30341412  0.31761565  1  -1.257333  0  -0.233223  -0.587204  0  2.349987  0
O  O118  1  0.60963476  0.82080246  0.80161197  1  -1.264185  0  -0.23611  -0.599218  0  2.358812  0
O  O119  1  0.39036582  0.17919903  0.19838836  1  -1.264156  0  -0.236144  -0.599319  0  2.358723  0
O  O120  1  0.45728401  0.70997850  0.74872404  1  -1.433041  0  -0.447348  -0.999  0  2.203199  0
O  O121  1  0.54272887  0.29001742  0.25128201  1  -1.43305  0  -0.447355  -0.999013  0  2.203294  0
O  O122  1  0.95238927  0.79127650  0.75113722  1  -1.412234  0  -0.447143  -0.998593  0  2.202214  0
O  O123  1  0.04762053  0.20872078  0.24886707  1  -1.412064  0  -0.447038  -0.998622  0  2.202235  0
O  O124  1  0.61774259  0.45396646  0.65629851  1  -0.424513  0  -0.132138  -0.328633  0  1.857061  0
O  O125  1  0.37287697  0.47090382  0.59311584  1  -0.444823  0  -0.120898  -0.328735  0  1.939165  0
O  O126  1  0.38226857  0.54602790  0.34369220  1  -0.424435  0  -0.132024  -0.328578  0  1.856949  0
O  O127  1  0.62712566  0.52913450  0.40688976  1  -0.444852  0  -0.120784  -0.32883  0  1.939585  0
O  O128  1  0.83733193  0.03946580  0.83390004  1  -0.423581  0  -0.131462  -0.326934  0  1.854738  0
O  O129  1  0.09801577  0.01291628  0.88839436  1  -0.442272  0  -0.120015  -0.325654  0  1.940028  0
O  O130  1  0.16267913  0.96053817  0.16610118  1  -0.423371  0  -0.131426  -0.326902  0  1.854899  0
O  O131  1  0.90198944  0.98708512  0.11161212  1  -0.442298  0  -0.119964  -0.325551  0  1.939973  0
