# generated using pymatgen
data_Cu2H56Ru(C15N7)2
_symmetry_space_group_name_H-M   'P 1'
_cell_length_a   12.81552190
_cell_length_b   12.81543189
_cell_length_c   15.32615807
_cell_angle_alpha   67.54426578
_cell_angle_beta   67.54472445
_cell_angle_gamma   87.00407070
_symmetry_Int_Tables_number   1
_chemical_formula_structural   Cu2H56Ru(C15N7)2
_chemical_formula_sum   'Cu4 H112 Ru2 C60 N28'
_cell_volume   2136.91434850
_cell_formula_units_Z   2
loop_
 _symmetry_equiv_pos_site_id
 _symmetry_equiv_pos_as_xyz
  1  'x, y, z'
loop_
 _atom_site_type_symbol
 _atom_site_label
 _atom_site_symmetry_multiplicity
 _atom_site_fract_x
 _atom_site_fract_y
 _atom_site_fract_z
 _atom_site_occupancy
 _atom_site_pbe_bader_charge
 _atom_site_pbe_bader_spin_density
 _atom_site_pbe_cm5_charge
 _atom_site_pbe_ddec_charge
 _atom_site_pbe_ddec_spin_density
 _atom_site_pbe_ddec_sum_bond_order
 _atom_site_pbe_magmom
Cu  Cu0  1  0.14907823  0.83857942  0.76342446  1  0.95599  0.546144  0.748734  0.730924  0.705572  2.24095  0.545
Cu  Cu1  1  0.16141895  0.85091276  0.23658378  1  0.955923  0.546153  0.748806  0.731087  0.705581  2.240978  0.545
Cu  Cu2  1  0.15610051  0.33794975  0.25425941  1  0.969088  0.554336  0.745264  0.728268  0.714928  2.262808  0.553
Cu  Cu3  1  0.66203930  0.84389770  0.74574340  1  0.969042  0.554327  0.745217  0.728227  0.714924  2.26268  0.553
H  H4  1  0.02374423  0.95352380  0.91070705  1  0.078512  0.000159  0.108537  0.061648  -8.1e-05  0.962354  0.0
H  H5  1  0.04649424  0.97625150  0.08928728  1  0.07718  0.000159  0.108592  0.061897  -8.1e-05  0.962247  0.0
H  H6  1  0.01639087  0.98474851  0.71223852  1  0.447777  0.000533  0.2949  0.289568  0.000449  0.962453  0.0
H  H7  1  0.01525474  0.98360198  0.28775987  1  0.447798  0.000533  0.294934  0.289657  0.000449  0.962414  0.0
H  H8  1  0.94281477  0.88692808  0.82594596  1  0.423721  -0.00019  0.302637  0.292866  -0.000104  0.929996  0.0
H  H9  1  0.11307777  0.05718427  0.17405194  1  0.42367  -0.000189  0.302617  0.292882  -0.000104  0.930013  0.0
H  H10  1  0.97322476  0.15439153  0.74737406  1  0.076529  -5.6e-05  0.091955  0.10545  -8.6e-05  1.015462  0.0
H  H11  1  0.84562864  0.02678106  0.25260071  1  0.076648  -5.5e-05  0.092114  0.105664  -8.6e-05  1.015439  0.0
H  H12  1  0.87564361  0.07195603  0.87196999  1  0.007704  0.000156  0.084814  0.074934  6.6e-05  1.032697  0.0
H  H13  1  0.92805910  0.12435590  0.12801151  1  0.007623  0.000156  0.08481  0.074995  6.6e-05  1.032667  0.0
H  H14  1  0.31424100  0.97740397  0.72987486  1  0.434483  -2.5e-05  0.300754  0.298336  9e-05  0.933163  0.0
H  H15  1  0.02259927  0.68575432  0.27012605  1  0.434368  -2.5e-05  0.300764  0.298357  8.9e-05  0.933112  0.0
H  H16  1  0.23430715  0.91538644  0.85173365  1  0.460941  6.8e-05  0.293479  0.286239  0.000185  0.960895  0.0
H  H17  1  0.08462151  0.76568409  0.14826833  1  0.460889  6.9e-05  0.293482  0.286206  0.000185  0.960872  0.0
H  H18  1  0.97691217  0.14203885  0.95105956  1  -0.016704  -1.9e-05  0.084293  0.069612  -5.7e-05  1.040208  0.0
H  H19  1  0.85798160  0.02308102  0.04892101  1  -0.017535  -1.9e-05  0.084366  0.069739  -5.7e-05  1.040218  0.0
H  H20  1  0.94696913  0.25883220  0.85953244  1  0.028029  0.000905  0.09148  0.087676  0.000447  0.979801  0.0
H  H21  1  0.74119375  0.05303596  0.14044116  1  0.028012  0.000905  0.091487  0.087815  0.000447  0.979602  0.0
H  H22  1  0.03276552  0.65654999  0.83597539  1  0.43297  0.000446  0.297077  0.284789  0.000341  0.944761  0.0
H  H23  1  0.34345107  0.96723226  0.16402812  1  0.433051  0.000446  0.29707  0.284779  0.000342  0.944727  0.0
H  H24  1  0.99604571  0.73841565  0.73974271  1  0.471454  -2.1e-05  0.286481  0.293103  0.000398  0.994784  0.0
H  H25  1  0.26158041  0.00395279  0.26026011  1  0.471283  -1.8e-05  0.286513  0.293137  0.000399  0.99466  0.0
H  H26  1  0.14443900  0.28280336  0.73367594  1  0.027228  -1.7e-05  0.089976  0.081681  -5.8e-05  1.018205  0.0
H  H27  1  0.71720230  0.85557046  0.26631643  1  0.027339  -1.7e-05  0.089948  0.08165  -5.8e-05  1.018245  0.0
H  H28  1  0.14539990  0.28119455  0.84898021  1  0.015389  0.00089  0.088154  0.079234  0.000416  1.016429  0.001
H  H29  1  0.71880745  0.85460364  0.15101707  1  0.01541  0.00089  0.08815  0.079239  0.000416  1.016414  0.001
H  H30  1  0.32626025  0.81113786  0.64454226  1  0.437353  3.4e-05  0.292448  0.284733  1e-05  0.960437  0.0
H  H31  1  0.18886292  0.67373314  0.35547016  1  0.437297  3.4e-05  0.292428  0.284741  1e-05  0.96049  0.0
H  H32  1  0.33827923  0.74765442  0.75799305  1  0.463735  1.8e-05  0.291616  0.289887  0.000355  0.975485  0.0
H  H33  1  0.25234181  0.66171148  0.24201850  1  0.463864  1.7e-05  0.291689  0.289909  0.000355  0.975501  0.0
H  H34  1  0.18596722  0.07820740  0.90078593  1  0.049714  -5e-05  0.091326  0.096815  -7.5e-05  0.995642  0.0
H  H35  1  0.92179059  0.81402778  0.09921575  1  0.049516  -5e-05  0.091301  0.096732  -7.5e-05  0.995662  0.0
H  H36  1  0.28828851  0.16154764  0.77858085  1  0.004495  0.000255  0.092292  0.091075  0.000108  0.981192  0.0
H  H37  1  0.83845259  0.71170932  0.22142518  1  0.004423  0.000255  0.092234  0.09097  0.000108  0.981321  0.0
H  H38  1  0.18355349  0.10330639  0.69409133  1  0.052669  8.4e-05  0.114184  0.068041  -0.000138  0.975603  0.0
H  H39  1  0.89670099  0.81645076  0.30590259  1  0.052749  8.4e-05  0.114206  0.068008  -0.000138  0.975736  0.0
H  H40  1  0.17522109  0.73130418  0.61503336  1  0.063742  0.000674  0.114612  0.077361  0.000175  0.961856  0.0
H  H41  1  0.26869991  0.82477756  0.38497041  1  0.063704  0.000673  0.114557  0.077342  0.000175  0.961855  0.0
H  H42  1  0.06457123  0.49242198  0.77106680  1  0.020885  9.6e-05  0.086265  0.07821  8e-06  1.024756  0.0
H  H43  1  0.50757890  0.93542660  0.22893065  1  0.020782  9.6e-05  0.086297  0.078292  8e-06  1.024804  0.0
H  H44  1  0.03190092  0.57872708  0.66415076  1  0.060408  0.000145  0.095576  0.103584  4.3e-05  0.976957  0.0
H  H45  1  0.42127900  0.96810501  0.33584755  1  0.060381  0.000145  0.095585  0.10364  4.3e-05  0.97691  0.0
H  H46  1  0.23918161  0.31642835  0.08161071  1  0.415667  -3.7e-05  0.307249  0.298793  -4.5e-05  0.911046  0.0
H  H47  1  0.68356410  0.76080788  0.91840114  1  0.415479  -3.6e-05  0.30723  0.298714  -4.4e-05  0.911193  0.0
H  H48  1  0.21590251  0.44867614  0.06128131  1  0.463932  6.5e-05  0.286582  0.281848  7.2e-05  0.995539  0.0
H  H49  1  0.55131923  0.78409811  0.93872001  1  0.463871  6.4e-05  0.286638  0.281944  7.2e-05  0.995603  0.0
H  H50  1  0.22566750  0.57856922  0.54458837  1  0.01892  4.9e-05  0.085891  0.076755  -1.8e-05  1.021713  0.0
H  H51  1  0.42144578  0.77433121  0.45540854  1  0.01905  4.9e-05  0.08593  0.076776  -1.8e-05  1.021718  0.0
H  H52  1  0.16279329  0.43790839  0.62201009  1  0.012174  0.000864  0.087603  0.077618  0.00041  1.031649  0.001
H  H53  1  0.56210096  0.83720626  0.37797933  1  0.012475  0.000863  0.087578  0.077534  0.00041  1.031682  0.001
H  H54  1  0.95242291  0.23423896  0.31576713  1  0.440607  0.000724  0.293206  0.293654  0.000583  0.958804  0.0
H  H55  1  0.76575334  0.04757775  0.68423457  1  0.440675  0.000724  0.293158  0.293633  0.000583  0.958813  0.0
H  H56  1  0.94116857  0.35494557  0.33232807  1  0.420152  1.5e-05  0.310173  0.297388  -1.7e-05  0.910638  0.0
H  H57  1  0.64504537  0.05882970  0.66767581  1  0.420575  1.4e-05  0.310181  0.297408  -1.7e-05  0.910675  0.0
H  H58  1  0.26654085  0.41913202  0.73485387  1  0.020825  -9e-06  0.088558  0.078046  -4.9e-05  1.016008  0.0
H  H59  1  0.58087333  0.73346691  0.26513778  1  0.020683  -9e-06  0.088511  0.077969  -4.9e-05  1.015934  0.0
H  H60  1  0.36393451  0.45916967  0.60667619  1  -0.006611  0.000918  0.08766  0.07934  0.000448  0.994202  0.001
H  H61  1  0.54083794  0.63606941  0.39331737  1  -0.006599  0.000917  0.087614  0.079241  0.000448  0.994278  0.001
H  H62  1  0.06150666  0.27144996  0.45613813  1  0.447243  0.000254  0.287983  0.294197  0.000409  0.98185  0.0
H  H63  1  0.72853561  0.93849834  0.54386099  1  0.447215  0.000256  0.287946  0.294151  0.000409  0.981876  0.0
H  H64  1  0.11876000  0.40699619  0.39005457  1  0.438499  0.000229  0.295758  0.285934  0.00017  0.942144  0.0
H  H65  1  0.59299408  0.88123207  0.60994952  1  0.438907  0.00023  0.295778  0.285997  0.000168  0.942148  0.0
H  H66  1  0.40327921  0.56860829  0.70058008  1  0.05424  2.7e-05  0.092807  0.098768  -2.6e-05  1.018298  0.0
H  H67  1  0.43139207  0.59671755  0.29942104  1  0.054212  2.7e-05  0.09283  0.098786  -2.6e-05  1.018412  0.0
H  H68  1  0.38615907  0.65727436  0.58614841  1  0.004436  8.9e-05  0.085367  0.076457  0.0  1.036412  0.0
H  H69  1  0.34273598  0.61383665  0.41385429  1  0.004473  8.9e-05  0.085368  0.076489  0.0  1.036421  0.0
H  H70  1  0.37140991  0.43620332  0.16244388  1  0.461707  0.000351  0.297835  0.301085  0.000504  0.945399  0.0
H  H71  1  0.56378958  0.62858039  0.83755978  1  0.461595  0.000351  0.297761  0.301002  0.000504  0.945421  0.0
H  H72  1  0.35903900  0.29398511  0.21386567  1  0.43564  9.6e-05  0.300858  0.28902  -1.8e-05  0.931119  0.0
H  H73  1  0.70600231  0.64095847  0.78614233  1  0.435603  9.7e-05  0.300799  0.288867  -1.8e-05  0.931261  0.0
H  H74  1  0.21700613  0.58730130  0.80757119  1  0.077844  7.8e-05  0.11194  0.065857  -0.000164  0.972314  0.0
H  H75  1  0.41269673  0.78299522  0.19242879  1  0.077874  7.8e-05  0.111916  0.065818  -0.000164  0.972348  0.0
H  H76  1  0.24166131  0.20329514  0.41861256  1  0.096215  0.00077  0.115281  0.080302  0.000247  0.959447  0.001
H  H77  1  0.79669925  0.75833632  0.58139579  1  0.055964  0.000778  0.115285  0.080252  0.000247  0.959481  0.001
H  H78  1  0.16248807  0.24361123  0.57571230  1  0.040533  0.000155  0.09205  0.092151  7.4e-05  1.014448  0.0
H  H79  1  0.75638460  0.83751299  0.42429298  1  0.040601  0.000155  0.092046  0.092152  7.4e-05  1.014429  0.0
H  H80  1  0.22700800  0.38560069  0.50445704  1  -0.004833  0.0002  0.088081  0.079147  8.9e-05  1.01812  0.0
H  H81  1  0.61439438  0.77299917  0.49554382  1  -0.00489  0.0002  0.088082  0.079136  8.9e-05  1.018111  0.0
H  H82  1  0.35472715  0.17336354  0.52993559  1  0.031612  6e-06  0.090493  0.091724  -2.7e-05  0.985661  0.0
H  H83  1  0.82663120  0.64527384  0.47006736  1  0.03172  6e-06  0.090441  0.091681  -2.7e-05  0.985441  0.0
H  H84  1  0.34886881  0.26785707  0.59088454  1  0.003016  0.001005  0.085977  0.075001  0.000499  1.010681  0.001
H  H85  1  0.73214132  0.65113842  0.40911840  1  0.003266  0.001005  0.085988  0.075033  0.000499  1.010713  0.001
H  H86  1  0.44724133  0.42614060  0.42389439  1  0.003545  -5e-06  0.086163  0.07549  -6.1e-05  1.013009  0.0
H  H87  1  0.57385726  0.55275340  0.57610526  1  0.003544  -5e-06  0.086143  0.075469  -6.1e-05  1.013035  0.0
H  H88  1  0.53012154  0.31102840  0.43350823  1  0.01879  0.000928  0.089005  0.082227  0.000464  0.980499  0.001
H  H89  1  0.68896587  0.46988053  0.56649853  1  0.01884  0.000928  0.088994  0.08223  0.000464  0.980496  0.001
H  H90  1  0.46383247  0.25432803  0.32494636  1  0.023412  2.2e-05  0.091979  0.089104  -7.8e-05  0.976233  0.0
H  H91  1  0.74566588  0.53616515  0.67506316  1  0.023467  2.1e-05  0.091939  0.089091  -7.8e-05  0.976226  0.0
H  H92  1  0.51740765  0.40082678  0.25951244  1  0.0245  0.000119  0.093527  0.098246  3.5e-05  0.991454  0.0
H  H93  1  0.59916364  0.48259120  0.74048909  1  0.024516  0.000119  0.093498  0.09828  3.5e-05  0.991538  0.0
H  H94  1  0.32442567  0.45701616  0.31088638  1  0.035259  0.000249  0.110348  0.061728  4.7e-05  0.970239  0.0
H  H95  1  0.54297703  0.67557649  0.68911469  1  0.035125  0.000249  0.110308  0.061713  4.7e-05  0.970161  0.0
H  H96  1  0.05661657  0.25119881  0.12758337  1  0.023625  0.000287  0.107111  0.052867  7.8e-05  0.964603  0.0
H  H97  1  0.74880137  0.94338361  0.87241799  1  0.023602  0.000287  0.107115  0.052849  7.8e-05  0.964668  0.0
H  H98  1  0.09219826  0.49722220  0.97276344  1  0.060197  -7.4e-05  0.095341  0.102279  -0.000102  1.002678  0.0
H  H99  1  0.50278272  0.90779610  0.02724367  1  0.060374  -7.4e-05  0.095346  0.102284  -0.000102  1.002705  0.0
H  H100  1  0.13950907  0.37902467  0.94121206  1  0.037217  0.000205  0.089726  0.08738  0.000121  1.003896  0.0
H  H101  1  0.62097964  0.86049239  0.05878885  1  0.037121  0.000205  0.089698  0.087358  0.000121  1.00395  0.0
H  H102  1  0.95560017  0.43039089  0.91910620  1  0.007589  0.001189  0.085516  0.07306  0.000637  1.022243  0.001
H  H103  1  0.56962391  0.04440870  0.08088432  1  0.007547  0.001189  0.085486  0.073023  0.000638  1.022461  0.001
H  H104  1  0.93768817  0.29328921  0.01392500  1  0.012743  2.2e-05  0.085216  0.072385  -3e-05  1.021386  0.0
H  H105  1  0.70671826  0.06231549  0.98606572  1  0.012626  2.2e-05  0.08526  0.072474  -3e-05  1.021435  0.0
H  H106  1  0.77768506  0.40027309  0.07534285  1  0.00667  0.000893  0.090593  0.085989  0.000436  0.976396  0.001
H  H107  1  0.59972831  0.22231761  0.92465077  1  0.006693  0.000894  0.090581  0.085952  0.000436  0.976422  0.001
H  H108  1  0.87441247  0.51095530  0.05186819  1  0.011227  2.5e-05  0.090129  0.088104  -2e-05  0.982005  0.0
H  H109  1  0.48904327  0.12558402  0.94813144  1  0.011214  2.5e-05  0.090131  0.088095  -2e-05  0.98203  0.0
H  H110  1  0.79562708  0.38518190  0.23764833  1  0.020078  0.000241  0.092245  0.090337  8.7e-05  0.979375  0.0
H  H111  1  0.61481510  0.20437167  0.76235250  1  0.020016  0.000241  0.09223  0.0903  8.7e-05  0.979335  0.0
H  H112  1  0.83941676  0.26450991  0.20962912  1  0.016428  -4.6e-05  0.092796  0.094614  -0.000108  0.994867  0.0
H  H113  1  0.73548443  0.16058329  0.79036596  1  0.016539  -4.6e-05  0.092795  0.094579  -0.000108  0.994867  0.0
H  H114  1  0.99684280  0.46957911  0.16071418  1  0.04666  0.000259  0.115093  0.078724  -8e-06  0.953196  0.0
H  H115  1  0.53041328  0.00315194  0.83928955  1  0.046553  0.000259  0.115081  0.078691  -8e-06  0.953128  0.0
Ru  Ru116  1  0.02361116  0.97637598  0.50000257  1  0.921613  0.0027  0.545037  0.118067  0.002658  5.804738  0.003
Ru  Ru117  1  0.29912009  0.70088889  0.00000209  1  0.907408  0.001441  0.537931  0.114256  0.001365  5.767668  0.001
C  C118  1  0.90320802  0.02271706  0.44227258  1  0.708873  0.000346  -0.037078  -0.028688  0.000222  3.985084  0.0
C  C119  1  0.97728076  0.09678775  0.55772797  1  0.70872  0.000346  -0.03698  -0.028462  0.000222  3.984802  0.0
C  C120  1  0.13098408  0.08137074  0.36045402  1  0.746716  -0.001608  -0.021202  0.012895  -0.002327  3.944447  -0.001
C  C121  1  0.91862868  0.86901735  0.63954707  1  0.746774  -0.001607  -0.021263  0.012845  -0.002326  3.9445  -0.001
C  C122  1  0.16085040  0.95488895  0.53884053  1  0.711398  -0.001064  -0.037734  -0.026259  -0.001619  3.973631  -0.001
C  C123  1  0.04509589  0.83912459  0.46117789  1  0.711007  -0.001066  -0.037797  -0.026313  -0.001621  3.973893  -0.001
C  C124  1  0.03968297  0.00983143  0.83048881  1  0.259906  0.001272  -0.000971  0.131729  0.000533  3.818815  0.0
C  C125  1  0.99017828  0.96031816  0.16950459  1  0.261156  0.001271  -0.001028  0.131371  0.000533  3.819425  0.0
C  C126  1  0.96533618  0.10724282  0.82709570  1  -0.056355  0.004242  -0.170444  -0.219516  0.003251  3.930728  0.003
C  C127  1  0.89276866  0.03466666  0.17288668  1  -0.057001  0.004243  -0.170639  -0.219812  0.003251  3.931319  0.003
C  C128  1  0.99780401  0.18653793  0.86824667  1  0.002222  0.001789  -0.167433  -0.141084  0.001085  3.959501  0.001
C  C129  1  0.81348074  0.00219934  0.13173258  1  0.003288  0.001788  -0.167524  -0.141345  0.001085  3.959663  0.001
C  C130  1  0.12431683  0.22828715  0.81476694  1  -0.029226  0.001793  -0.16695  -0.144834  0.001079  3.953312  0.001
C  C131  1  0.77172222  0.87568415  0.18522894  1  -0.029357  0.001793  -0.166914  -0.144834  0.001079  3.953223  0.001
C  C132  1  0.19745875  0.12976448  0.82063204  1  -0.027384  0.00466  -0.165115  -0.203434  0.003548  3.922261  0.003
C  C133  1  0.87023699  0.80253482  0.17937218  1  -0.026905  0.004658  -0.165022  -0.203135  0.003547  3.922239  0.003
C  C134  1  0.16619244  0.05413122  0.77581461  1  0.328236  0.001224  0.001107  0.130876  0.000588  3.825596  0.0
C  C135  1  0.94587129  0.83380285  0.22418363  1  0.327796  0.001226  0.001098  0.130877  0.000588  3.82576  0.0
C  C136  1  0.14698266  0.66465801  0.69326946  1  0.313226  0.001191  -0.001751  0.125848  0.000364  3.827085  0.0
C  C137  1  0.33534511  0.85301208  0.30673589  1  0.313063  0.001189  -0.001708  0.125824  0.000363  3.827201  0.0
C  C138  1  0.10052878  0.55825758  0.69243393  1  -0.056397  0.005314  -0.165095  -0.198673  0.004027  3.924972  0.004
C  C139  1  0.44175230  0.89947002  0.30756757  1  -0.05636  0.005314  -0.165157  -0.198893  0.004026  3.925272  0.004
C  C140  1  0.19607992  0.51396979  0.62368650  1  -0.013438  0.002104  -0.168237  -0.149289  0.001288  3.96181  0.002
C  C141  1  0.48603830  0.80392411  0.37631032  1  -0.013862  0.002104  -0.168221  -0.149084  0.001287  3.961863  0.002
C  C142  1  0.29515753  0.48891089  0.65847210  1  -0.009096  0.002239  -0.166146  -0.138563  0.001367  3.945062  0.002
C  C143  1  0.51109240  0.70484626  0.34152393  1  -0.009097  0.002239  -0.166065  -0.138425  0.001367  3.944903  0.002
C  C144  1  0.34171802  0.59261117  0.66418600  1  -0.044552  0.005554  -0.169268  -0.214627  0.004148  3.923839  0.004
C  C145  1  0.40739625  0.65828017  0.33581362  1  -0.044626  0.005555  -0.169283  -0.214676  0.004149  3.923995  0.004
C  C146  1  0.24762794  0.64504004  0.72591820  1  0.300351  0.000753  0.0005  0.136559  0.000147  3.814104  -0.001
C  C147  1  0.35495947  0.75237364  0.27408314  1  0.300192  0.000754  0.000465  0.136541  0.000146  3.814224  -0.001
C  C148  1  0.15797610  0.71833406  0.96859670  1  0.70035  -0.001133  -0.042792  -0.037349  -0.001712  4.016693  -0.001
C  C149  1  0.28165995  0.84204745  0.03140575  1  0.700745  -0.001132  -0.042772  -0.037406  -0.001712  4.016215  -0.001
C  C150  1  0.19298679  0.59989476  0.14269886  1  0.724376  -0.001341  -0.02671  -0.01012  -0.001948  3.975507  -0.001
C  C151  1  0.40010814  0.80702278  0.85729962  1  0.724416  -0.001341  -0.026771  -0.010141  -0.001947  3.975917  -0.001
C  C152  1  0.42025542  0.65323986  0.05922858  1  0.690068  0.00041  -0.044877  -0.052601  0.000295  3.991931  0.0
C  C153  1  0.34675736  0.57976350  0.94077110  1  0.690019  0.00041  -0.044756  -0.052252  0.000295  3.991152  0.0
C  C154  1  0.23571469  0.29174686  0.41250059  1  0.292249  0.00177  -0.003139  0.122967  0.000821  3.828244  0.0
C  C155  1  0.70824992  0.76429162  0.58749696  1  0.332413  0.001764  -0.003144  0.122938  0.000823  3.828213  0.0
C  C156  1  0.23666945  0.29772093  0.50955232  1  -0.031322  0.005487  -0.166932  -0.204476  0.004145  3.929011  0.004
C  C157  1  0.70226976  0.76333418  0.49045119  1  -0.031388  0.005487  -0.166898  -0.204428  0.004144  3.928968  0.004
C  C158  1  0.34833736  0.26282765  0.52091312  1  -0.012465  0.002157  -0.167745  -0.15139  0.001352  3.952562  0.002
C  C159  1  0.73716377  0.65166418  0.47909309  1  -0.012686  0.002157  -0.167766  -0.151459  0.001352  3.952566  0.002
C  C160  1  0.44983783  0.33877196  0.42677301  1  -0.010811  0.00182  -0.164038  -0.137531  0.0011  3.949178  0.001
C  C161  1  0.66121854  0.55016641  0.57322682  1  -0.010739  0.001821  -0.163992  -0.137476  0.0011  3.949233  0.001
C  C162  1  0.44905693  0.33936324  0.32661338  1  -0.011387  0.00503  -0.163015  -0.207496  0.003757  3.91966  0.004
C  C163  1  0.66063104  0.55094724  0.67339184  1  -0.011726  0.005031  -0.162886  -0.207538  0.003758  3.919653  0.004
C  C164  1  0.33525697  0.36867722  0.31771485  1  0.305572  0.000922  0.000997  0.132863  0.000285  3.821715  -0.001
C  C165  1  0.63131137  0.66474465  0.68229390  1  0.305819  0.000922  0.000908  0.13286  0.000285  3.821578  -0.001
C  C166  1  0.07171963  0.34389807  0.10337304  1  0.310678  0.001456  0.003097  0.145825  0.000774  3.808272  0.0
C  C167  1  0.65610276  0.92827801  0.89662743  1  0.31094  0.001456  0.003131  0.145864  0.000774  3.808192  0.0
C  C168  1  0.07148120  0.40554289  0.99620025  1  -0.064748  0.004234  -0.166172  -0.2147  0.003187  3.917833  0.003
C  C169  1  0.59446344  0.92851892  0.00380284  1  -0.064948  0.004236  -0.166145  -0.214687  0.003188  3.917839  0.003
C  C170  1  0.95512301  0.38396361  0.99624556  1  -0.01806  0.001811  -0.167763  -0.144709  0.00117  3.96764  0.001
C  C171  1  0.61604511  0.04487761  0.00375078  1  -0.017986  0.001811  -0.167793  -0.144823  0.00117  3.96809  0.001
C  C172  1  0.86097603  0.41842855  0.07472440  1  0.019927  0.00203  -0.165604  -0.142819  0.001278  3.949539  0.002
C  C173  1  0.58157086  0.13902183  0.92527472  1  0.019904  0.00203  -0.165574  -0.142767  0.001278  3.949731  0.002
C  C174  1  0.86088913  0.35677512  0.18238554  1  -0.017351  0.004529  -0.162642  -0.201959  0.003463  3.928223  0.003
C  C175  1  0.64322017  0.13911237  0.81761582  1  -0.017407  0.004529  -0.162621  -0.201839  0.003463  3.928232  0.003
C  C176  1  0.97736076  0.37823450  0.18204055  1  0.322729  0.001791  -0.002289  0.120684  0.00093  3.817908  0.0
C  C177  1  0.62176010  0.02264050  0.81796196  1  0.322766  0.001792  -0.002268  0.120844  0.00093  3.817616  0.0
N  N178  1  0.83920227  0.06018063  0.40186463  1  -1.421775  0.001745  -0.42941  -0.479051  0.00096  3.006988  0.001
N  N179  1  0.93980779  0.16078171  0.59814941  1  -1.421526  0.001745  -0.429442  -0.479145  0.00096  3.006995  0.001
N  N180  1  0.19348956  0.14131725  0.27644713  1  -1.469159  -0.000746  -0.438345  -0.520072  -0.001215  3.155105  0.001
N  N181  1  0.85868411  0.80649273  0.72355338  1  -1.468993  -0.000745  -0.438321  -0.52005  -0.001215  3.154782  0.001
N  N182  1  0.24328634  0.94976402  0.55698473  1  -1.408949  -0.000871  -0.431385  -0.493579  -0.001186  3.091253  0.0
N  N183  1  0.05024573  0.75671271  0.44298878  1  -1.408654  -0.00087  -0.431345  -0.493614  -0.001186  3.091494  0.0
N  N184  1  0.01872819  0.93682605  0.78266122  1  -1.095832  0.096345  -0.631917  -0.580933  0.063015  3.398814  0.079
N  N185  1  0.06318194  0.98126774  0.21733617  1  -1.095512  0.09634  -0.63193  -0.580976  0.063012  3.39912  0.079
N  N186  1  0.23127665  0.95552379  0.78062612  1  -1.118207  0.097423  -0.63696  -0.57927  0.063533  3.408887  0.08
N  N187  1  0.04448038  0.76871889  0.21937429  1  -1.118017  0.09742  -0.636981  -0.579299  0.063533  3.408844  0.08
N  N188  1  0.06363493  0.71282047  0.76078745  1  -1.140741  0.109457  -0.640345  -0.585058  0.07127  3.414027  0.088
N  N189  1  0.28717725  0.93636141  0.23921551  1  -1.140472  0.109452  -0.640324  -0.584998  0.071267  3.413787  0.088
N  N190  1  0.28641234  0.75505700  0.71948364  1  -1.123071  0.110639  -0.637017  -0.584445  0.072124  3.397087  0.09
N  N191  1  0.24494025  0.71358186  0.28052444  1  -1.122848  0.110643  -0.63707  -0.584502  0.072128  3.397231  0.09
N  N192  1  0.07169352  0.72291233  0.95633610  1  -1.410327  -0.000768  -0.436604  -0.497904  -0.001005  3.111684  0.0
N  N193  1  0.27708051  0.92833620  0.04366005  1  -1.410802  -0.000768  -0.436622  -0.497869  -0.001005  3.111339  0.0
N  N194  1  0.13041293  0.54465763  0.22806130  1  -1.446741  -0.0003  -0.427201  -0.500823  -0.000944  3.127875  0.001
N  N195  1  0.45532626  0.86960229  0.77194193  1  -1.446793  -0.000302  -0.427103  -0.500798  -0.000945  3.128227  0.001
N  N196  1  0.48004671  0.61311418  0.10348049  1  -1.397471  0.001698  -0.427913  -0.45754  0.000982  2.977585  0.001
N  N197  1  0.38689763  0.51994149  0.89654657  1  -1.397612  0.001698  -0.428082  -0.457879  0.000982  2.976802  0.001
N  N198  1  0.18100694  0.36601605  0.10837662  1  -1.104818  0.094076  -0.637223  -0.585935  0.061425  3.404929  0.077
N  N199  1  0.63397944  0.81898841  0.89163096  1  -1.104582  0.094083  -0.637293  -0.586035  0.061429  3.405196  0.077
N  N200  1  0.98597382  0.31827387  0.28255200  1  -1.072211  0.102839  -0.621667  -0.576518  0.06727  3.366963  0.084
N  N201  1  0.68171687  0.01402510  0.71745061  1  -1.072632  0.102841  -0.621625  -0.576598  0.067272  3.366864  0.084
N  N202  1  0.13073853  0.32513312  0.39607955  1  -1.1141  0.107055  -0.640864  -0.587304  0.069654  3.417946  0.087
N  N203  1  0.67486202  0.86926542  0.60392024  1  -1.114419  0.10705  -0.640846  -0.58729  0.069653  3.417974  0.087
N  N204  1  0.32676810  0.36455635  0.22539388  1  -1.110922  0.10383  -0.62217  -0.577554  0.067873  3.343075  0.085
N  N205  1  0.63543506  0.67322840  0.77461035  1  -1.110871  0.103823  -0.621981  -0.577172  0.06787  3.343127  0.085
