# generated using pymatgen
data_AgH6C5S4NO3
_symmetry_space_group_name_H-M   'P 1'
_cell_length_a   7.68990672
_cell_length_b   9.12086914
_cell_length_c   14.41919092
_cell_angle_alpha   90.00100636
_cell_angle_beta   91.65614933
_cell_angle_gamma   89.99748235
_symmetry_Int_Tables_number   1
_chemical_formula_structural   AgH6C5S4NO3
_chemical_formula_sum   'Ag4 H24 C20 S16 N4 O12'
_cell_volume   1010.91987111
_cell_formula_units_Z   4
loop_
 _symmetry_equiv_pos_site_id
 _symmetry_equiv_pos_as_xyz
  1  'x, y, z'
loop_
 _atom_site_type_symbol
 _atom_site_label
 _atom_site_symmetry_multiplicity
 _atom_site_fract_x
 _atom_site_fract_y
 _atom_site_fract_z
 _atom_site_occupancy
 _atom_site_hle17_bader_spin_density
 _atom_site_hle17_ddec_charge
 _atom_site_hle17_ddec_spin_density
 _atom_site_hle17_ddec_sum_bond_order
 _atom_site_hle17_magmom
 _atom_site_hse06_10hf_bader_charge
 _atom_site_hse06_10hf_bader_spin_density
 _atom_site_hse06_10hf_ddec_charge
 _atom_site_hse06_10hf_ddec_spin_density
 _atom_site_hse06_10hf_ddec_sum_bond_order
 _atom_site_hse06_10hf_magmom
 _atom_site_hse06_bader_spin_density
 _atom_site_hse06_ddec_charge
 _atom_site_hse06_ddec_spin_density
 _atom_site_hse06_ddec_sum_bond_order
 _atom_site_hse06_magmom
 _atom_site_pbe_bader_spin_density
 _atom_site_pbe_cm5_charge
 _atom_site_pbe_ddec_charge
 _atom_site_pbe_ddec_spin_density
 _atom_site_pbe_ddec_sum_bond_order
 _atom_site_pbe_magmom
Ag  Ag0  1  0.57856288  0.50730630  0.87281456  1  0  0.492825  0  1.444821  0  0.610475  0  0.374275  0  1.88488  0  0  0.402659  0  1.837795  0  0  0.392884  0.354168  0  1.917745  0
Ag  Ag1  1  0.07857529  0.99271374  0.87281518  1  0  0.492859  0  1.444579  0  0.610455  0  0.374351  0  1.884646  0  0  0.402734  0  1.837576  0  0  0.392911  0.354239  0  1.917495  0
Ag  Ag2  1  0.42140812  0.49270118  0.12719233  1  0  0.492858  0  1.4448  0  0.610479  0  0.374318  0  1.884895  0  0  0.402701  0  1.837806  0  0  0.392943  0.354347  0  1.917699  0
Ag  Ag3  1  0.92143751  0.00730361  0.12718644  1  0  0.492771  0  1.444826  0  0.61048  0  0.374259  0  1.884862  0  0  0.40265  0  1.837771  0  0  0.392852  0.354278  0  1.917675  0
H  H4  1  0.44916559  0.70635368  0.58932481  1  0  0.112875  0  0.993322  0  0.110829  0  0.122242  0  1.071554  0  0  0.123232  0  1.072763  0  0  0.07845  0.121516  0  1.070804  0
H  H5  1  0.94920263  0.79363289  0.58933194  1  0  0.112997  0  0.993358  0  0.111188  0  0.12225  0  1.071689  0  0  0.123239  0  1.072894  0  0  0.078439  0.121525  0  1.070936  0
H  H6  1  0.55081751  0.29361981  0.41066779  1  0  0.112858  0  0.993271  0  0.111191  0  0.122168  0  1.071577  0  0  0.123158  0  1.072781  0  0  0.078385  0.121437  0  1.070831  0
H  H7  1  0.05079184  0.20637459  0.41067342  1  0  0.112998  0  0.993233  0  0.111013  0  0.122279  0  1.071544  0  0  0.123267  0  1.07275  0  0  0.078434  0.121551  0  1.070796  0
H  H8  1  0.52011989  0.76678244  0.70439609  1  0  0.135701  0  0.943329  0  0.11622  0  0.155347  0  1.001236  0  0  0.156754  0  1.001238  0  0  0.094316  0.154253  0  1.001382  0
H  H9  1  0.02012263  0.73322289  0.70440890  1  0  0.135676  0  0.943423  0  0.116105  0  0.15535  0  1.001273  0  0  0.156756  0  1.001276  0  0  0.094348  0.154257  0  1.00142  0
H  H10  1  0.47987506  0.23320859  0.29559194  1  0  0.135743  0  0.94328  0  0.116009  0  0.155406  0  1.001171  0  0  0.156813  0  1.001172  0  0  0.09438  0.154316  0  1.001299  0
H  H11  1  0.97986149  0.26679446  0.29559413  1  0  0.135694  0  0.943265  0  0.115887  0  0.15536  0  1.001159  0  0  0.156766  0  1.001163  0  0  0.094351  0.154278  0  1.001288  0
H  H12  1  0.30273808  0.70589080  0.68360243  1  0  0.142468  0  0.944861  0  0.123063  0  0.164352  0  0.999672  0  0  0.165653  0  1.000048  0  0  0.097612  0.163356  0  0.99953  0
H  H13  1  0.80273533  0.79410633  0.68358853  1  0  0.142549  0  0.944787  0  0.123158  0  0.164495  0  0.999493  0  0  0.165795  0  0.999867  0  0  0.097654  0.163498  0  0.999352  0
H  H14  1  0.69725780  0.29409584  0.31639879  1  0  0.142583  0  0.944738  0  0.123115  0  0.164517  0  0.999469  0  0  0.165818  0  0.99984  0  0  0.097666  0.163531  0  0.999305  0
H  H15  1  0.19724904  0.20589676  0.31640550  1  0  0.142507  0  0.944904  0  0.123333  0  0.164428  0  0.999661  0  0  0.165726  0  1.000037  0  0  0.097612  0.163443  0  0.999497  0
H  H16  1  0.14024166  0.40668007  0.83083691  1  0  0.117831  0  0.986252  0  0.11232  0  0.130348  0  1.062317  0  0  0.131581  0  1.062662  0  0  0.082077  0.129439  0  1.062196  0
H  H17  1  0.64023232  0.09332860  0.83080678  1  0  0.117921  0  0.986122  0  0.111707  0  0.130452  0  1.06219  0  0  0.131687  0  1.062532  0  0  0.082128  0.129542  0  1.062064  0
H  H18  1  0.85974712  0.59329013  0.16918635  1  0  0.117865  0  0.985977  0  0.112554  0  0.130338  0  1.06212  0  0  0.131568  0  1.062474  0  0  0.0821  0.129433  0  1.061985  0
H  H19  1  0.35977247  0.90669313  0.16915442  1  0  0.117591  0  0.98612  0  0.112628  0  0.130196  0  1.062148  0  0  0.131427  0  1.06249  0  0  0.082007  0.129293  0  1.062028  0
H  H20  1  0.02459988  0.40737675  0.93630797  1  0  0.154226  0  0.938161  0  0.15361  0  0.172125  0  0.996083  0  0  0.174225  0  0.995638  0  0  0.103965  0.170541  0  0.996513  0
H  H21  1  0.52457765  0.09267563  0.93627476  1  0  0.154157  0  0.938457  0  0.153199  0  0.172074  0  0.996398  0  0  0.174174  0  0.995955  0  0  0.10394  0.170485  0  0.996834  0
H  H22  1  0.97539664  0.59262306  0.06371755  1  0  0.154111  0  0.938303  0  0.154044  0  0.171982  0  0.996297  0  0  0.174086  0  0.995861  0  0  0.103873  0.170371  0  0.996766  0
H  H23  1  0.47543881  0.90738886  0.06368810  1  0  0.154277  0  0.938083  0  0.153674  0  0.172161  0  0.996038  0  0  0.17426  0  0.995596  0  0  0.103955  0.170561  0  0.996503  0
H  H24  1  0.00322795  0.56163106  0.85858845  1  0  0.13824  0  0.966014  0  0.077946  0  0.152815  0  1.029902  0  0  0.154169  0  1.030601  0  0  0.094727  0.151761  0  1.02955  0
H  H25  1  0.50320909  0.93839804  0.85857020  1  0  0.138384  0  0.965861  0  0.078178  0  0.152954  0  1.0298  0  0  0.154307  0  1.0305  0  0  0.094824  0.151896  0  1.029452  0
H  H26  1  0.99679749  0.43836216  0.14142664  1  0  0.138209  0  0.966014  0  0.07772  0  0.152715  0  1.030028  0  0  0.154065  0  1.03073  0  0  0.094701  0.151696  0  1.029602  0
H  H27  1  0.49679250  0.06163904  0.14141313  1  0  0.138207  0  0.966053  0  0.077848  0  0.15277  0  1.029956  0  0  0.154123  0  1.030657  0  0  0.09468  0.151753  0  1.029537  0
C  C28  1  0.43798958  0.69066788  0.66418040  1  0  -0.325998  0  3.611019  0  -0.264965  0  -0.40022  0  3.865354  0  0  -0.401039  0  3.872616  0  0  -0.238969  -0.399442  0  3.860192  0
C  C29  1  0.93800256  0.80933336  0.66418228  1  0  -0.326187  0  3.611152  0  -0.265497  0  -0.400356  0  3.865564  0  0  -0.40119  0  3.872865  0  0  -0.239009  -0.399597  0  3.860441  0
C  C30  1  0.56199610  0.30931438  0.33581297  1  0  -0.326203  0  3.610775  0  -0.264879  0  -0.400417  0  3.865133  0  0  -0.401244  0  3.872411  0  0  -0.239047  -0.399625  0  3.859973  0
C  C31  1  0.06198414  0.19068399  0.33582151  1  0  -0.326285  0  3.61097  0  -0.264901  0  -0.40045  0  3.865319  0  0  -0.401292  0  3.87264  0  0  -0.239011  -0.399658  0  3.860135  0
C  C32  1  0.02139099  0.44297104  0.86383017  1  0  -0.328782  0  3.589439  0  -0.217584  0  -0.40458  0  3.844002  0  0  -0.405421  0  3.85022  0  0  -0.239432  -0.403841  0  3.839794  0
C  C33  1  0.52137301  0.05706070  0.86380083  1  0  -0.329003  0  3.589672  0  -0.216592  0  -0.404785  0  3.844072  0  0  -0.405631  0  3.850292  0  0  -0.239578  -0.404071  0  3.839934  0
C  C34  1  0.97861735  0.55702218  0.13619146  1  0  -0.328628  0  3.58927  0  -0.217917  0  -0.404325  0  3.843819  0  0  -0.405185  0  3.850071  0  0  -0.239357  -0.403565  0  3.839601  0
C  C35  1  0.47862642  0.94297638  0.13616580  1  0  -0.328573  0  3.589109  0  -0.217639  0  -0.404447  0  3.843719  0  0  -0.405284  0  3.849936  0  0  -0.239318  -0.403658  0  3.839399  0
C  C36  1  0.83384414  0.41837860  0.69877210  1  0  -0.096248  0  3.810925  0  -0.241327  0  -0.083389  0  4.093829  0  0  -0.080973  0  4.113578  0  0  -0.03466  -0.085173  0  4.080465  0
C  C37  1  0.33382524  0.08163194  0.69875501  1  0  -0.096559  0  3.81116  0  -0.24149  0  -0.083757  0  4.094179  0  0  -0.081343  0  4.113924  0  0  -0.034779  -0.085543  0  4.080825  0
C  C38  1  0.16615787  0.58161462  0.30124315  1  0  -0.096491  0  3.811142  0  -0.241382  0  -0.083671  0  4.094143  0  0  -0.081261  0  4.113891  0  0  -0.0348  -0.085456  0  4.080826  0
C  C39  1  0.66617636  0.91836677  0.30122763  1  0  -0.09617  0  3.811187  0  -0.241451  0  -0.083248  0  4.093874  0  0  -0.080864  0  4.113724  0  0  -0.034619  -0.085026  0  4.080506  0
C  C40  1  0.69508472  0.47898885  0.65163829  1  0  -0.096527  0  3.826703  0  -0.203795  0  -0.081272  0  4.108632  0  0  -0.07932  0  4.12851  0  0  -0.035508  -0.082763  0  4.095283  0
C  C41  1  0.19506737  0.02099825  0.65162612  1  0  -0.09644  0  3.826589  0  -0.203774  0  -0.081121  0  4.108357  0  0  -0.079157  0  4.128221  0  0  -0.035485  -0.082616  0  4.095002  0
C  C42  1  0.30491476  0.52100109  0.34837412  1  0  -0.096428  0  3.82675  0  -0.203668  0  -0.081112  0  4.108488  0  0  -0.079146  0  4.128352  0  0  -0.035424  -0.082611  0  4.095128  0
C  C43  1  0.80492748  0.97899278  0.34836537  1  0  -0.096634  0  3.826522  0  -0.204118  0  -0.081351  0  4.108447  0  0  -0.079402  0  4.128313  0  0  -0.035477  -0.082844  0  4.095094  0
C  C44  1  0.94765745  0.48175725  0.53541671  1  0  -0.107413  0  3.805244  0  -0.189611  0  -0.095361  0  4.092024  0  0  -0.091727  0  4.107999  0  0  -0.045756  -0.097849  0  4.08126  0
C  C45  1  0.44762748  0.01819701  0.53539520  1  0  -0.10767  0  3.805555  0  -0.295835  0  -0.095424  0  4.092254  0  0  -0.091776  0  4.108221  0  0  -0.045806  -0.097909  0  4.081485  0
C  C46  1  0.05235885  0.51820747  0.46459955  1  0  -0.107696  0  3.805746  0  -0.295685  0  -0.09542  0  4.092304  0  0  -0.091771  0  4.108268  0  0  -0.045766  -0.097906  0  4.081539  0
C  C47  1  0.55233533  0.98173043  0.46457821  1  0  -0.107313  0  3.805043  0  -0.18979  0  -0.095359  0  4.092021  0  0  -0.091722  0  4.107995  0  0  -0.045761  -0.097849  0  4.08125  0
S  S48  1  0.48807470  0.50275217  0.69575009  1  0  0.054401  0  2.815302  0  0.142782  0  0.063213  0  3.243995  0  0  0.058417  0  3.239104  0  0  0.003356  0.066616  0  3.247512  0
S  S49  1  0.98806822  0.99725464  0.69574387  1  0  0.054406  0  2.815339  0  0.143058  0  0.063229  0  3.243951  0  0  0.058428  0  3.23907  0  0  0.003372  0.066637  0  3.247465  0
S  S50  1  0.51192501  0.49723777  0.30425401  1  0  0.054429  0  2.815262  0  0.14267  0  0.063244  0  3.243921  0  0  0.05845  0  3.23903  0  0  0.003365  0.066658  0  3.247405  0
S  S51  1  0.01193042  0.00276600  0.30425187  1  0  0.054523  0  2.815236  0  0.14274  0  0.06335  0  3.243868  0  0  0.058556  0  3.238986  0  0  0.003376  0.066765  0  3.247357  0
S  S52  1  0.83206731  0.35267384  0.81256248  1  0  0.093447  0  2.791801  0  0.142225  0  0.112773  0  3.217391  0  0  0.108379  0  3.208455  0  0  0.020314  0.115804  0  3.223791  0
S  S53  1  0.33205207  0.14735324  0.81253094  1  0  0.093673  0  2.792195  0  0.141961  0  0.113033  0  3.217806  0  0  0.108642  0  3.208874  0  0  0.020414  0.116063  0  3.224197  0
S  S54  1  0.16791617  0.64733474  0.18746412  1  0  0.093606  0  2.792018  0  0.141856  0  0.112958  0  3.217598  0  0  0.108568  0  3.208666  0  0  0.020398  0.11595  0  3.224033  0
S  S55  1  0.66794601  0.85266520  0.18743774  1  0  0.093433  0  2.791885  0  0.14187  0  0.11278  0  3.217447  0  0  0.108389  0  3.208513  0  0  0.020325  0.115784  0  3.223878  0
S  S56  1  0.72315367  0.51923824  0.53381665  1  0  0.091676  0  2.588976  0  0.194634  0  0.0894  0  2.94081  0  0  0.08659  0  2.943907  0  0  0.051241  0.091279  0  2.938811  0
S  S57  1  0.22312919  0.98071703  0.53380727  1  0  0.091631  0  2.589185  0  0.195384  0  0.089322  0  2.940938  0  0  0.086518  0  2.944005  0  0  0.051211  0.091204  0  2.938936  0
S  S58  1  0.27687317  0.48073964  0.46619501  1  0  0.091705  0  2.588984  0  0.195302  0  0.089381  0  2.940721  0  0  0.086579  0  2.943789  0  0  0.051219  0.091263  0  2.938717  0
S  S59  1  0.77684734  0.01922576  0.46618796  1  0  0.091581  0  2.588737  0  0.194795  0  0.089328  0  2.940603  0  0  0.08654  0  2.943667  0  0  0.051157  0.091175  0  2.938684  0
S  S60  1  0.02365256  0.39075885  0.63616156  1  0  0.102953  0  2.557801  0  0.19488  0  0.096237  0  2.906949  0  0  0.092272  0  2.9116  0  0  0.050983  0.098817  0  2.904031  0
S  S61  1  0.52362183  0.10924207  0.63612348  1  0  0.10289  0  2.558015  0  0.195245  0  0.096145  0  2.907151  0  0  0.092175  0  2.911801  0  0  0.050904  0.098728  0  2.904231  0
S  S62  1  0.97636583  0.60924096  0.36387349  1  0  0.102932  0  2.558072  0  0.195281  0  0.096138  0  2.907224  0  0  0.092173  0  2.911872  0  0  0.050892  0.098715  0  2.904304  0
S  S63  1  0.47638281  0.89071607  0.36384328  1  0  0.103011  0  2.558307  0  0.195291  0  0.096294  0  2.907545  0  0  0.092332  0  2.912203  0  0  0.051063  0.09887  0  2.904627  0
N  N64  1  0.76891764  0.80215263  0.93432856  1  0  0.68442  0  4.129291  0  0.842411  0  0.71064  0  4.418472  0  0  0.739692  0  4.426675  0  0  0.09126  0.691046  0  4.412164  0
N  N65  1  0.26890496  0.69788271  0.93435035  1  0  0.68407  0  4.128538  0  0.841387  0  0.710263  0  4.41776  0  0  0.739306  0  4.425973  0  0  0.091121  0.690689  0  4.411468  0
N  N66  1  0.23110296  0.19787349  0.06567324  1  0  0.684246  0  4.128664  0  0.841734  0  0.710389  0  4.417923  0  0  0.739438  0  4.426138  0  0  0.091261  0.692489  0  4.411292  0
N  N67  1  0.73108666  0.30214889  0.06566396  1  0  0.684263  0  4.129009  0  0.841905  0  0.71041  0  4.418278  0  0  0.739462  0  4.426491  0  0  0.091176  0.692509  0  4.41164  0
O  O68  1  0.80067748  0.75154932  0.85488256  1  0  -0.472222  0  1.788229  0  -0.557099  0  -0.451226  0  2.021068  0  0  -0.468444  0  2.014836  0  0  -0.190801  -0.439101  0  2.025213  0
O  O69  1  0.30068926  0.74850002  0.85491795  1  0  -0.471584  0  1.787935  0  -0.5567  0  -0.450707  0  2.020872  0  0  -0.467917  0  2.01464  0  0  -0.190424  -0.438605  0  2.025025  0
O  O70  1  0.19935251  0.24846254  0.14510905  1  0  -0.471732  0  1.788808  0  -0.556838  0  -0.45079  0  2.021788  0  0  -0.467958  0  2.01549  0  0  -0.190536  -0.439421  0  2.025919  0
O  O71  1  0.69934611  0.25153377  0.14511471  1  0  -0.472107  0  1.788065  0  -0.557007  0  -0.451177  0  2.021044  0  0  -0.468394  0  2.014808  0  0  -0.190825  -0.4398  0  2.025176  0
O  O72  1  0.66891211  0.73583818  0.98771437  1  0  -0.434149  0  1.806982  0  -0.532127  0  -0.411276  0  2.034549  0  0  -0.428247  0  2.029083  0  0  -0.174097  -0.399485  0  2.038369  0
O  O73  1  0.16886485  0.76415980  0.98773885  1  0  -0.434113  0  1.806971  0  -0.531711  0  -0.411275  0  2.034677  0  0  -0.428242  0  2.029217  0  0  -0.174065  -0.399444  0  2.038443  0
O  O74  1  0.33111799  0.26417477  0.01227309  1  0  -0.434022  0  1.806353  0  -0.531904  0  -0.411245  0  2.034059  0  0  -0.428229  0  2.028607  0  0  -0.174054  -0.400156  0  2.037821  0
O  O75  1  0.83110460  0.23583123  0.01227702  1  0  -0.434143  0  1.806796  0  -0.53202  0  -0.41127  0  2.034408  0  0  -0.428249  0  2.028955  0  0  -0.174039  -0.400161  0  2.038151  0
O  O76  1  0.83762810  0.92432864  0.96038084  1  0  -0.459573  0  1.938186  0  -0.562223  0  -0.416468  0  2.205101  0  0  -0.438485  0  2.194623  0  0  -0.201963  -0.400785  0  2.211817  0
O  O77  1  0.33764755  0.57568837  0.96039995  1  0  -0.459841  0  1.93759  0  -0.562103  0  -0.416484  0  2.20431  0  0  -0.438498  0  2.193818  0  0  -0.20216  -0.400818  0  2.211038  0
O  O78  1  0.16237073  0.07568103  0.03960797  1  0  -0.459934  0  1.937664  0  -0.562208  0  -0.416559  0  2.204418  0  0  -0.438575  0  2.193922  0  0  -0.202176  -0.401644  0  2.211206  0
O  O79  1  0.66235439  0.42430705  0.03961807  1  0  -0.45961  0  1.938458  0  -0.562001  0  -0.41631  0  2.205216  0  0  -0.438319  0  2.194735  0  0  -0.201919  -0.4014  0  2.211993  0
