# generated using pymatgen
data_NaH7C6NClO8
_symmetry_space_group_name_H-M   'P 1'
_cell_length_a   5.94160810
_cell_length_b   7.36102139
_cell_length_c   12.25794657
_cell_angle_alpha   100.45713978
_cell_angle_beta   103.98922659
_cell_angle_gamma   97.55949568
_symmetry_Int_Tables_number   1
_chemical_formula_structural   NaH7C6NClO8
_chemical_formula_sum   'Na2 H14 C12 N2 Cl2 O16'
_cell_volume   502.85650083
_cell_formula_units_Z   2
loop_
 _symmetry_equiv_pos_site_id
 _symmetry_equiv_pos_as_xyz
  1  'x, y, z'
loop_
 _atom_site_type_symbol
 _atom_site_label
 _atom_site_symmetry_multiplicity
 _atom_site_fract_x
 _atom_site_fract_y
 _atom_site_fract_z
 _atom_site_occupancy
 _atom_site_hle17_bader_spin_density
 _atom_site_hle17_ddec_charge
 _atom_site_hle17_ddec_spin_density
 _atom_site_hle17_ddec_sum_bond_order
 _atom_site_hle17_magmom
 _atom_site_hse06_10hf_bader_spin_density
 _atom_site_hse06_10hf_ddec_charge
 _atom_site_hse06_10hf_ddec_spin_density
 _atom_site_hse06_10hf_ddec_sum_bond_order
 _atom_site_hse06_10hf_magmom
 _atom_site_hse06_bader_spin_density
 _atom_site_hse06_ddec_charge
 _atom_site_hse06_ddec_spin_density
 _atom_site_hse06_ddec_sum_bond_order
 _atom_site_hse06_magmom
 _atom_site_pbe_bader_spin_density
 _atom_site_pbe_cm5_charge
 _atom_site_pbe_ddec_charge
 _atom_site_pbe_ddec_spin_density
 _atom_site_pbe_ddec_sum_bond_order
 _atom_site_pbe_magmom
Na  Na0  1  0.50000425  0.50000370  0.50000161  1  0  0.915625  0  0.346512  0  0  0.88025  0  0.48775  0  0  0.889349  0  0.466357  0  0  0.648624  0.873427  0  0.503185  0
Na  Na1  1  0.49999616  0.00000172  0.49999609  1  0  0.908344  0  0.337338  0  0  0.864482  0  0.483547  0  0  0.874984  0  0.461117  0  0  0.639001  0.856759  0  0.499566  0
H  H2  1  0.95952924  0.07115884  0.26277629  1  0  0.377782  0  0.922507  0  0  0.340208  0  1.011813  0  0  0.354375  0  0.998778  0  0  0.304496  0.330356  0  1.020702  0
H  H3  1  0.04048563  0.92883739  0.73722163  1  0  0.377879  0  0.92246  0  0  0.340306  0  1.011738  0  0  0.354468  0  0.998705  0  0  0.304487  0.330453  0  1.020637  0
H  H4  1  0.35364400  0.33249532  0.20639092  1  0  0.127576  0  0.957748  0  0  0.127789  0  1.030027  0  0  0.132277  0  1.026506  0  0  0.117889  0.124653  0  1.032446  0
H  H5  1  0.64635933  0.66750503  0.79361497  1  0  0.127559  0  0.957853  0  0  0.127782  0  1.030135  0  0  0.132268  0  1.026616  0  0  0.117886  0.124645  0  1.032553  0
H  H6  1  0.24358036  0.36399606  0.99993742  1  0  0.118586  0  0.945087  0  0  0.125377  0  1.009582  0  0  0.128774  0  1.006994  0  0  0.110415  0.12302  0  1.011204  0
H  H7  1  0.75640794  0.63598314  0.00006268  1  0  0.118684  0  0.945041  0  0  0.125365  0  1.009607  0  0  0.128763  0  1.007019  0  0  0.110429  0.123019  0  1.011217  0
H  H8  1  0.50185976  0.25884248  0.87488375  1  0  0.129026  0  0.933216  0  0  0.136256  0  0.992361  0  0  0.139639  0  0.990555  0  0  0.117862  0.133767  0  0.993906  0
H  H9  1  0.49812719  0.74114654  0.12511888  1  0  0.129013  0  0.933103  0  0  0.136256  0  0.992232  0  0  0.139639  0  0.990425  0  0  0.117865  0.133765  0  0.993785  0
H  H10  1  0.85232869  0.11944341  0.95899967  1  0  0.126515  0  0.943684  0  0  0.128985  0  1.014451  0  0  0.133625  0  1.009973  0  0  0.132046  0.12572  0  1.017442  0
H  H11  1  0.14766403  0.88055548  0.04100148  1  0  0.126383  0  0.943805  0  0  0.128866  0  1.01455  0  0  0.133508  0  1.010069  0  0  0.132004  0.125629  0  1.017511  0
H  H12  1  0.22603884  0.25743607  0.60318787  1  0  0.426164  0  0.873839  0  0  0.397598  0  0.933837  0  0  0.407272  0  0.919461  0  0  0.293072  0.390742  0  0.944009  0
H  H13  1  0.77396718  0.74257553  0.39681387  1  0  0.426253  0  0.873716  0  0  0.397665  0  0.933743  0  0  0.407348  0  0.91936  0  0  0.293155  0.390814  0  0.943908  0
H  H14  1  0.12184323  0.19107683  0.46889073  1  0  0.425491  0  0.874902  0  0  0.397287  0  0.933593  0  0  0.407552  0  0.918301  0  0  0.297661  0.390069  0  0.94434  0
H  H15  1  0.87816202  0.80893057  0.53110557  1  0  0.425457  0  0.874944  0  0  0.397267  0  0.933606  0  0  0.407531  0  0.918314  0  0  0.297674  0.390047  0  0.94436  0
C  C16  1  0.65281001  0.21095977  0.19089533  1  0  -0.039508  0  3.647198  0  0  -0.040932  0  3.894435  0  0  -0.042668  0  3.911266  0  0  0.102888  -0.03981  0  3.883453  0
C  C17  1  0.34718678  0.78905035  0.80911162  1  0  -0.039577  0  3.647405  0  0  -0.041012  0  3.894724  0  0  -0.042748  0  3.911555  0  0  0.102931  -0.03989  0  3.88374  0
C  C18  1  0.71580677  0.18728015  0.31228910  1  0  0.656019  0  3.851404  0  0  0.603002  0  4.15217  0  0  0.637377  0  4.140507  0  0  0.240102  0.579646  0  4.15971  0
C  C19  1  0.28419899  0.81271461  0.68771079  1  0  0.656422  0  3.850981  0  0  0.603351  0  4.151843  0  0  0.637725  0  4.140175  0  0  0.240183  0.579994  0  4.159388  0
C  C20  1  0.45769709  0.28845370  0.14805710  1  0  -0.052642  0  3.696973  0  0  -0.080027  0  3.958899  0  0  -0.080536  0  3.974283  0  0  -0.060155  -0.079899  0  3.948513  0
C  C21  1  0.54230901  0.71155791  0.85194220  1  0  -0.052572  0  3.696841  0  0  -0.08001  0  3.958715  0  0  -0.080523  0  3.974107  0  0  -0.060162  -0.079874  0  3.948313  0
C  C22  1  0.39750411  0.30526250  0.03401518  1  0  -0.01885  0  3.671131  0  0  -0.047651  0  3.93964  0  0  -0.044606  0  3.954386  0  0  -0.069779  -0.049327  0  3.929287  0
C  C23  1  0.60249516  0.69472799  0.96599323  1  0  -0.018991  0  3.671031  0  0  -0.047628  0  3.939417  0  0  -0.044582  0  3.95416  0  0  -0.069752  -0.049313  0  3.929063  0
C  C24  1  0.53984184  0.24636245  0.96425379  1  0  -0.066786  0  3.715164  0  0  -0.085158  0  3.97957  0  0  -0.087867  0  3.996686  0  0  -0.06838  -0.083599  0  3.968153  0
C  C25  1  0.46013886  0.75362093  0.03574174  1  0  -0.066814  0  3.715671  0  0  -0.085219  0  3.979979  0  0  -0.087923  0  3.997092  0  0  -0.068441  -0.083662  0  3.968577  0
C  C26  1  0.73435943  0.17068652  0.00800540  1  0  0.020808  0  3.578049  0  0  -0.024388  0  3.849302  0  0  -0.018618  0  3.861184  0  0  0.045756  -0.027843  0  3.841124  0
C  C27  1  0.26563851  0.82929834  0.99200468  1  0  0.021026  0  3.578207  0  0  -0.024139  0  3.849396  0  0  -0.018364  0  3.861266  0  0  0.045815  -0.027619  0  3.841208  0
N  N28  1  0.78710178  0.15150470  0.11884936  1  0  0.248826  0  3.664101  0  0  0.295205  0  3.925372  0  0  0.29532  0  3.949462  0  0  -0.107846  0.294444  0  3.909301  0
N  N29  1  0.21290658  0.84850270  0.88115793  1  0  0.248804  0  3.664165  0  0  0.295123  0  3.925469  0  0  0.295236  0  3.949559  0  0  -0.107907  0.294362  0  3.909403  0
Cl  Cl30  1  0.91671628  0.35071171  0.73438781  1  0  1.406654  0  6.192395  0  0  1.341858  0  6.759595  0  0  1.394515  0  6.735716  0  0  0.740778  1.305588  0  6.774751  0
Cl  Cl31  1  0.08328611  0.64929006  0.26560425  1  0  1.406713  0  6.192637  0  0  1.341954  0  6.759791  0  0  1.394625  0  6.735883  0  0  0.740711  1.305675  0  6.774954  0
O  O32  1  0.97035129  0.07055307  0.15504240  1  0  -0.466675  0  1.82049  0  0  -0.423196  0  2.041125  0  0  -0.448585  0  2.04311  0  0  -0.208754  -0.405377  0  2.039159  0
O  O33  1  0.02964671  0.92944586  0.84495696  1  0  -0.466846  0  1.820413  0  0  -0.423283  0  2.040966  0  0  -0.448668  0  2.042948  0  0  -0.208782  -0.405461  0  2.038996  0
O  O34  1  0.89478578  0.10073388  0.34079284  1  0  -0.556733  0  2.15611  0  0  -0.493394  0  2.374824  0  0  -0.517973  0  2.360627  0  0  -0.297961  -0.476555  0  2.384207  0
O  O35  1  0.10521016  0.89927204  0.65921110  1  0  -0.55698  0  2.155821  0  0  -0.493648  0  2.374549  0  0  -0.518224  0  2.360346  0  0  -0.298045  -0.476811  0  2.383937  0
O  O36  1  0.60246115  0.24218427  0.38011405  1  0  -0.611822  0  1.933232  0  0  -0.575566  0  2.166798  0  0  -0.594723  0  2.153784  0  0  -0.350453  -0.562407  0  2.175511  0
O  O37  1  0.39753660  0.75781464  0.61989263  1  0  -0.611862  0  1.933375  0  0  -0.575566  0  2.166928  0  0  -0.59472  0  2.153913  0  0  -0.350384  -0.562412  0  2.175642  0
O  O38  1  0.91250617  0.42669022  0.85168451  1  0  -0.528433  0  1.872907  0  0  -0.491775  0  2.115648  0  0  -0.510129  0  2.105951  0  0  -0.294437  -0.47909  0  2.121915  0
O  O39  1  0.08747176  0.57328051  0.14830849  1  0  -0.528643  0  1.873145  0  0  -0.491953  0  2.115821  0  0  -0.51034  0  2.106149  0  0  -0.29449  -0.479225  0  2.122041  0
O  O40  1  0.75552476  0.16957441  0.68914006  1  0  -0.573483  0  1.827272  0  0  -0.54406  0  2.069369  0  0  -0.559217  0  2.054532  0  0  -0.347819  -0.533419  0  2.079174  0
O  O41  1  0.24448929  0.83042325  0.31084077  1  0  -0.573431  0  1.827292  0  0  -0.544026  0  2.069381  0  0  -0.559181  0  2.054537  0  0  -0.347782  -0.533385  0  2.079192  0
O  O42  1  0.84670390  0.48184203  0.66138792  1  0  -0.578638  0  1.841787  0  0  -0.557985  0  2.095026  0  0  -0.572673  0  2.079324  0  0  -0.333681  -0.547554  0  2.105261  0
O  O43  1  0.15329983  0.51817517  0.33861577  1  0  -0.578562  0  1.841795  0  0  -0.557924  0  2.094988  0  0  -0.572609  0  2.079278  0  0  -0.333626  -0.547521  0  2.105286  0
O  O44  1  0.15810747  0.32480924  0.73556799  1  0  -0.553987  0  1.891146  0  0  -0.513337  0  2.12621  0  0  -0.531215  0  2.114495  0  0  -0.297752  -0.500869  0  2.133932  0
O  O45  1  0.84190905  0.67521788  0.26443265  1  0  -0.553977  0  1.891044  0  0  -0.513349  0  2.126126  0  0  -0.531225  0  2.114402  0  0  -0.297713  -0.500882  0  2.133857  0
O  O46  1  0.27147307  0.23426402  0.53030429  1  0  -0.927864  0  1.770388  0  0  -0.888478  0  1.942344  0  0  -0.904095  0  1.909201  0  0  -0.70976  -0.877368  0  1.965505  0
O  O47  1  0.72852770  0.76573914  0.46969343  1  0  -0.92793  0  1.770284  0  0  -0.888529  0  1.942279  0  0  -0.904157  0  1.909108  0  0  -0.709864  -0.877425  0  1.965433  0
