# generated using pymatgen
data_CuH4C16(BrN2)4
_symmetry_space_group_name_H-M   'P 1'
_cell_length_a   3.94529967
_cell_length_b   15.35218339
_cell_length_c   15.35259702
_cell_angle_alpha   89.00706064
_cell_angle_beta   82.59476270
_cell_angle_gamma   82.66930289
_symmetry_Int_Tables_number   1
_chemical_formula_structural   CuH4C16(BrN2)4
_chemical_formula_sum   'Cu2 H8 C32 Br8 N16'
_cell_volume   914.59734074
_cell_formula_units_Z   2
loop_
 _symmetry_equiv_pos_site_id
 _symmetry_equiv_pos_as_xyz
  1  'x, y, z'
loop_
 _atom_site_type_symbol
 _atom_site_label
 _atom_site_symmetry_multiplicity
 _atom_site_fract_x
 _atom_site_fract_y
 _atom_site_fract_z
 _atom_site_occupancy
 _atom_site_pbe_cm5_charge
 _atom_site_pbe_ddec_charge
 _atom_site_pbe_ddec_spin_density
 _atom_site_pbe_ddec_sum_bond_order
 _atom_site_pbe_magmom
Cu  Cu0  1  0.12425789  0.25001486  0.75029291  1  0.755896  0.808849  0.01032  2.614148  0.005
Cu  Cu1  1  0.87574478  0.74998384  0.24970470  1  0.755911  0.808896  0.010254  2.614172  0.005
H  H2  1  0.71810523  0.55466841  0.14700846  1  0.109602  0.142977  -7.5e-05  1.015719  0.0
H  H3  1  0.77298418  0.14703367  0.94522317  1  0.109174  0.142406  -9.8e-05  1.016253  0.0
H  H4  1  0.41943434  0.94575206  0.35282010  1  0.109661  0.143079  -1.9e-05  1.015593  0.0
H  H5  1  0.86371527  0.35296735  0.55473761  1  0.109438  0.142638  -9.7e-05  1.015568  0.0
H  H6  1  0.28184504  0.44532976  0.85298259  1  0.109616  0.142839  -7.5e-05  1.015722  0.0
H  H7  1  0.22706681  0.85297485  0.05478100  1  0.109198  0.142473  -9.8e-05  1.016192  0.0
H  H8  1  0.58053184  0.05424213  0.64718277  1  0.109623  0.143034  -1.9e-05  1.015664  0.0
H  H9  1  0.13633951  0.64703319  0.44526459  1  0.109374  0.142606  -9.7e-05  1.015608  0.0
C  C10  1  0.74464186  0.57541553  0.00643709  1  0.12726  0.234403  0.007763  4.050774  0.004
C  C11  1  0.81996320  0.00647531  0.92455304  1  0.128864  0.235505  0.008046  4.054259  0.004
C  C12  1  0.32591704  0.92462692  0.49335506  1  0.128018  0.234937  0.004014  4.050103  0.002
C  C13  1  0.75046436  0.49355028  0.57538884  1  0.128103  0.235312  0.007966  4.051302  0.004
C  C14  1  0.25530414  0.42458312  0.99355133  1  0.12736  0.234285  0.007758  4.050493  0.004
C  C15  1  0.18007748  0.99353687  0.07544916  1  0.128852  0.235708  0.008049  4.054152  0.004
C  C16  1  0.67404782  0.07536727  0.50665044  1  0.128035  0.234932  0.004011  4.049931  0.002
C  C17  1  0.24958868  0.50644618  0.42461468  1  0.128064  0.235166  0.007968  4.051499  0.004
C  C18  1  0.84170535  0.52949335  0.08326465  1  -0.097845  -0.216074  0.002462  3.941032  0.001
C  C19  1  0.87125124  0.08328408  0.97044645  1  -0.097256  -0.214415  0.002777  3.939993  0.001
C  C20  1  0.45417693  0.97076839  0.41662080  1  -0.097712  -0.216036  0.001021  3.939845  0.0
C  C21  1  0.92413890  0.41670087  0.52954814  1  -0.097533  -0.21496  0.002096  3.940816  0.001
C  C22  1  0.15823473  0.47050579  0.91672442  1  -0.097847  -0.215659  0.002468  3.940815  0.001
C  C23  1  0.12878870  0.91672468  0.02955378  1  -0.097261  -0.214484  0.002774  3.940083  0.001
C  C24  1  0.54577590  0.02922538  0.58338405  1  -0.097835  -0.216114  0.001024  3.939855  0.0
C  C25  1  0.07591168  0.58329616  0.47045407  1  -0.097549  -0.215107  0.002096  3.94069  0.001
C  C26  1  0.91572841  0.54305002  0.92220409  1  -0.009971  0.049147  0.005346  3.911902  0.003
C  C27  1  0.95850270  0.92221719  0.95704275  1  -0.009941  0.048871  0.005396  3.910692  0.003
C  C28  1  0.38037969  0.95680213  0.57772416  1  -0.009003  0.049826  0.002852  3.908997  0.002
C  C29  1  0.83809894  0.57780611  0.54291134  1  -0.009425  0.049124  0.005691  3.909574  0.003
C  C30  1  0.08421445  0.45694790  0.07778696  1  -0.009913  0.049253  0.005353  3.911711  0.003
C  C31  1  0.04153582  0.07779426  0.04296011  1  -0.009995  0.048773  0.005395  3.910613  0.003
C  C32  1  0.61957247  0.04319098  0.42228332  1  -0.008896  0.049997  0.002856  3.908621  0.002
C  C33  1  0.16195591  0.42218979  0.45709481  1  -0.009505  0.049008  0.005688  3.909923  0.003
C  C34  1  0.33782500  0.67959231  0.08108424  1  0.305136  0.448531  -0.001315  4.203487  -0.002
C  C35  1  0.51655161  0.08120808  0.82048168  1  0.305379  0.448723  -0.001403  4.204422  -0.002
C  C36  1  0.09804295  0.82051308  0.41846756  1  0.304978  0.448596  -0.0006  4.203378  -0.001
C  C37  1  0.41755454  0.41886988  0.67963374  1  0.305754  0.449477  -0.001331  4.203478  -0.002
C  C38  1  0.66213683  0.32040701  0.91891206  1  0.305207  0.448689  -0.00132  4.203159  -0.002
C  C39  1  0.48348925  0.91879677  0.17952447  1  0.305337  0.448544  -0.0014  4.20449  -0.002
C  C40  1  0.90193625  0.17948153  0.58153400  1  0.3049  0.448444  -0.000603  4.20326  -0.001
C  C41  1  0.58247415  0.58112835  0.32036387  1  0.305762  0.4497  -0.001329  4.203424  -0.002
Br  Br42  1  0.79986025  0.60106294  0.81867741  1  0.068094  -0.0013  0.002665  1.722941  0.002
Br  Br43  1  0.89997111  0.81868252  0.89922409  1  0.069035  -0.000335  0.002614  1.721815  0.002
Br  Br44  1  0.21808864  0.89854289  0.68105783  1  0.069043  -6.2e-05  0.001854  1.721119  0.001
Br  Br45  1  0.61890655  0.68123432  0.60098288  1  0.067809  -0.001762  0.003152  1.721811  0.002
Br  Br46  1  0.20007828  0.39894092  0.18131561  1  0.068123  -0.001251  0.002669  1.722904  0.002
Br  Br47  1  0.10009612  0.18132316  0.10077877  1  0.068998  -0.000363  0.002615  1.721908  0.002
Br  Br48  1  0.78184477  0.10145217  0.31894242  1  0.068992  -0.000171  0.001856  1.720927  0.001
Br  Br49  1  0.38113466  0.31876376  0.39902064  1  0.067785  -0.00175  0.003152  1.721791  0.002
N  N50  1  0.17346708  0.71965160  0.14066873  1  -0.399861  -0.527748  0.011943  3.272268  0.009
N  N51  1  0.38945048  0.14074977  0.78085461  1  -0.399175  -0.526436  0.012671  3.274544  0.01
N  N52  1  0.03233191  0.78063656  0.35888704  1  -0.397981  -0.525493  0.005675  3.271664  0.004
N  N53  1  0.31073042  0.35928268  0.71936492  1  -0.399278  -0.526856  0.011728  3.273527  0.009
N  N54  1  0.82652819  0.28034751  0.85932757  1  -0.399845  -0.527711  0.011963  3.271808  0.009
N  N55  1  0.61057032  0.85925702  0.21914694  1  -0.399073  -0.526262  0.012652  3.274747  0.01
N  N56  1  0.96765857  0.21936180  0.64111517  1  -0.397888  -0.525331  0.005687  3.271395  0.004
N  N57  1  0.68928883  0.64071318  0.28063072  1  -0.399236  -0.526957  0.011717  3.273674  0.009
N  N58  1  0.50422116  0.64560463  0.00945009  1  -0.294619  -0.336011  0.015066  3.464515  0.012
N  N59  1  0.65011704  0.00954730  0.85430659  1  -0.294296  -0.335504  0.016082  3.465681  0.013
N  N60  1  0.15926330  0.85434261  0.49016486  1  -0.293655  -0.33443  0.007249  3.464249  0.006
N  N61  1  0.51343080  0.49054157  0.64568920  1  -0.293605  -0.334975  0.015171  3.464804  0.012
N  N62  1  0.49572416  0.35439338  0.99054096  1  -0.294755  -0.336221  0.015075  3.464774  0.012
N  N63  1  0.34992460  0.99046357  0.14569627  1  -0.294367  -0.335599  0.016079  3.46542  0.013
N  N64  1  0.84070340  0.14565296  0.50983932  1  -0.293627  -0.334353  0.007254  3.464272  0.006
N  N65  1  0.48661483  0.50945464  0.35431432  1  -0.293634  -0.335017  0.015168  3.464715  0.012
