# generated using pymatgen
data_ZnH3C9NO4
_symmetry_space_group_name_H-M   'P 1'
_cell_length_a   8.29320890
_cell_length_b   9.32034085
_cell_length_c   16.08463227
_cell_angle_alpha   90.03068185
_cell_angle_beta   90.00719925
_cell_angle_gamma   89.95865751
_symmetry_Int_Tables_number   1
_chemical_formula_structural   ZnH3C9NO4
_chemical_formula_sum   'Zn2 H6 C18 N2 O8'
_cell_volume   1243.26972318
_cell_formula_units_Z   2
loop_
 _symmetry_equiv_pos_site_id
 _symmetry_equiv_pos_as_xyz
  1  'x, y, z'
loop_
 _atom_site_type_symbol
 _atom_site_label
 _atom_site_symmetry_multiplicity
 _atom_site_fract_x
 _atom_site_fract_y
 _atom_site_fract_z
 _atom_site_occupancy
 _atom_site_pbe_bader_charge
 _atom_site_pbe_bader_spin_density
 _atom_site_pbe_cm5_charge
 _atom_site_pbe_ddec_charge
 _atom_site_pbe_ddec_spin_density
 _atom_site_pbe_ddec_sum_bond_order
 _atom_site_pbe_magmom
Zn  Zn0  1  0.65870765  0.49993435  0.49992380  1  1.293333  0  0.681823  0.845096  0  2.411674  0
Zn  Zn1  1  0.34129247  0.50006450  0.50007674  1  1.317753  0  0.681841  0.845112  0  2.411625  0
H  H2  1  0.35015470  0.70835542  0.05195548  1  0.081795  0  0.104477  0.092463  0  0.987211  0
H  H3  1  0.64984542  0.29164773  0.94804507  1  0.08179  0  0.104518  0.092511  0  0.987202  0
H  H4  1  0.62651773  0.71993029  0.94800072  1  0.061805  0  0.104584  0.092498  0  0.987118  0
H  H5  1  0.37348239  0.28007178  0.05199921  1  0.061832  0  0.104597  0.092515  0  0.987113  0
H  H6  1  0.22050822  0.48816347  0.95012472  1  0.089148  0  0.103532  0.091817  0  0.98777  0
H  H7  1  0.77949311  0.51183967  0.04987521  1  0.089142  0  0.103542  0.091832  0  0.987738  0
C  C8  1  0.49997732  0.93485643  0.50000616  1  0.021686  0  -0.020211  -0.108245  0  3.914081  0
C  C9  1  0.58339728  0.38416047  0.97204331  1  -0.031175  0  -0.066664  -0.073128  0  3.627281  0
C  C10  1  0.49958372  0.49990405  0.24925438  1  0.116874  0  -0.055735  -0.203148  0  3.99496  0
C  C11  1  0.50041640  0.50009588  0.75074617  1  0.116882  0  -0.055742  -0.203081  0  3.994933  0
C  C12  1  0.65542342  0.50658991  0.02703300  1  -0.058126  0  -0.069682  -0.079926  0  3.634148  0
C  C13  1  0.34457670  0.49341216  0.97296692  1  -0.057775  0  -0.069681  -0.079875  0  3.634122  0
C  C14  1  0.50199637  0.50021207  0.08554292  1  0.090821  0  0.008599  0.119865  0  3.793705  0
C  C15  1  0.49800375  0.49979000  0.91445701  1  0.090821  0  0.00859  0.119784  0  3.793859  0
C  C16  1  0.50085925  0.50005331  0.17345847  1  -0.317432  0  -0.025644  -0.03698  0  4.082604  0
C  C17  1  0.49914087  0.49994768  0.82654145  1  -0.317454  0  -0.025658  -0.03701  0  4.082628  0
C  C18  1  0.50001918  0.06514242  0.49999376  1  -0.220611  0  -0.020055  -0.108047  0  3.914019  0
C  C19  1  0.50000705  0.77948656  0.50001553  1  1.686764  0  0.23132  0.673827  0  4.203231  0
C  C20  1  0.49998825  0.22051230  0.49998564  1  1.686758  0  0.231362  0.67381  0  4.203195  0
C  C21  1  0.49949826  0.49989691  0.33862602  1  1.56913  0  0.223309  0.68067  0  4.210363  0
C  C22  1  0.50050186  0.50010194  0.66137390  1  1.569039  0  0.223286  0.680487  0  4.210451  0
C  C23  1  0.57043403  0.62228574  0.97204350  1  -0.004723  0  -0.066437  -0.073056  0  3.627562  0
C  C24  1  0.42956609  0.37771633  0.02795704  1  -0.005107  0  -0.066443  -0.07308  0  3.627487  0
C  C25  1  0.41660284  0.61584268  0.02795661  1  -0.031241  0  -0.066577  -0.073061  0  3.627209  0
N  N26  1  0.06680039  0.50005643  0.50005697  1  -0.094753  0  0.098566  0.133407  0  2.911054  0
N  N27  1  0.93319852  0.49994564  0.49994357  1  0.174614  0  0.099065  0.133815  0  2.911049  0
O  O28  1  0.63771087  0.71852213  0.49994008  1  -1.135008  0  -0.309107  -0.53428  0  2.243001  0
O  O29  1  0.36228805  0.28147672  0.50006171  1  -1.13516  0  -0.309118  -0.534265  0  2.243034  0
O  O30  1  0.36236386  0.71861957  0.50009438  1  -1.134605  0  -0.309043  -0.534179  0  2.243401  0
O  O31  1  0.63763385  0.28138036  0.49990554  1  -1.134441  0  -0.30906  -0.534198  0  2.243397  0
O  O32  1  0.63717389  0.49989317  0.37451053  1  -1.129892  0  -0.31716  -0.543661  0  2.25141  0
O  O33  1  0.36282864  0.50010568  0.62549001  1  -1.129857  0  -0.317127  -0.543555  0  2.251436  0
O  O34  1  0.36191251  0.49992403  0.37459955  1  -1.131351  0  -0.316948  -0.543417  0  2.252127  0
O  O35  1  0.63808882  0.50007268  0.62540037  1  -1.131275  0  -0.316918  -0.543318  0  2.252094  0
