# generated using pymatgen
data_CuH7C8N5Cl2
_symmetry_space_group_name_H-M   'P 1'
_cell_length_a   6.63763251
_cell_length_b   10.75522359
_cell_length_c   14.28160461
_cell_angle_alpha   96.50976058
_cell_angle_beta   90.00021817
_cell_angle_gamma   90.00017866
_symmetry_Int_Tables_number   1
_chemical_formula_structural   CuH7C8N5Cl2
_chemical_formula_sum   'Cu4 H28 C32 N20 Cl8'
_cell_volume   1012.97913019
_cell_formula_units_Z   4
loop_
 _symmetry_equiv_pos_site_id
 _symmetry_equiv_pos_as_xyz
  1  'x, y, z'
loop_
 _atom_site_type_symbol
 _atom_site_label
 _atom_site_symmetry_multiplicity
 _atom_site_fract_x
 _atom_site_fract_y
 _atom_site_fract_z
 _atom_site_occupancy
 _atom_site_hle17_ddec_charge
 _atom_site_hle17_ddec_spin_density
 _atom_site_hle17_ddec_sum_bond_order
 _atom_site_hle17_magmom
 _atom_site_hse06_10hf_ddec_charge
 _atom_site_hse06_10hf_ddec_spin_density
 _atom_site_hse06_10hf_ddec_sum_bond_order
 _atom_site_hse06_10hf_magmom
 _atom_site_hse06_ddec_charge
 _atom_site_hse06_ddec_spin_density
 _atom_site_hse06_ddec_sum_bond_order
 _atom_site_hse06_magmom
 _atom_site_pbe_cm5_charge
 _atom_site_pbe_ddec_charge
 _atom_site_pbe_ddec_spin_density
 _atom_site_pbe_ddec_sum_bond_order
 _atom_site_pbe_magmom
Cu  Cu0  1  0.33217331  0.84515729  0.74165025  1  0.727707  -0.588284  1.960744  -0.403  0.717905  -0.713533  2.364582  -0.537  0.813254  -0.815875  2.28315  -0.639  0.584924  0.666201  -0.620768  2.415291  -0.456
Cu  Cu1  1  0.16783254  0.84515891  0.24164614  1  0.727644  0.588272  1.960738  0.403  0.717916  0.713534  2.36458  0.537  0.81322  0.815878  2.283145  0.639  0.584908  0.66619  0.620764  2.415261  0.456
Cu  Cu2  1  0.66782691  0.15484302  0.25835138  1  0.727764  -0.588304  1.960746  -0.403  0.717906  -0.713531  2.364592  -0.537  0.813252  -0.815877  2.28318  -0.639  0.584931  0.666208  -0.620768  2.415304  -0.456
Cu  Cu3  1  0.83216768  0.15483764  0.75835308  1  0.727671  0.588276  1.960749  0.403  0.717905  0.713528  2.364592  0.537  0.813219  0.815873  2.283162  0.639  0.584913  0.666184  0.620748  2.415276  0.456
H  H4  1  0.35404545  0.51217682  0.55159683  1  0.302743  -0.000203  0.932679  0.0  0.269498  -0.000224  1.019688  0.0  0.280032  -0.000123  1.010895  0.0  0.304258  0.262106  -0.000329  1.025803  0.0
H  H5  1  0.14595867  0.51217935  0.05159905  1  0.302642  0.000203  0.932825  0.0  0.269484  0.000224  1.019724  0.0  0.280019  0.000123  1.010927  0.0  0.304267  0.262096  0.000329  1.02584  0.0
H  H6  1  0.64595025  0.48782348  0.44840410  1  0.302723  -0.000204  0.932696  0.0  0.269472  -0.000224  1.019725  0.0  0.280005  -0.000123  1.010932  0.0  0.304241  0.262077  -0.000329  1.025833  0.0
H  H7  1  0.85404005  0.48782095  0.94839978  1  0.302691  0.000203  0.932819  0.0  0.269516  0.000224  1.019723  0.0  0.280051  0.000123  1.010926  0.0  0.304262  0.262128  0.000329  1.02584  0.0
H  H8  1  0.86057993  0.69545617  0.42864728  1  0.07629  -0.000626  0.978616  -0.001  0.077236  -0.000314  1.056723  0.0  0.080595  -0.000158  1.052018  0.0  0.10594  0.074837  -0.000454  1.059955  0.0
H  H9  1  0.63942783  0.69545505  0.92865039  1  0.076287  0.000623  0.978668  0.001  0.077259  0.000314  1.056736  0.0  0.08062  0.000158  1.05203  0.0  0.105945  0.074862  0.000454  1.059965  0.0
H  H10  1  0.13941728  0.30454600  0.57135241  1  0.076262  -0.000628  0.978651  -0.001  0.077192  -0.000314  1.056771  0.0  0.080546  -0.000158  1.052074  0.0  0.105916  0.074792  -0.000454  1.060002  0.0
H  H11  1  0.36057541  0.30454338  0.07135038  1  0.076312  0.000626  0.978659  0.001  0.077245  0.000314  1.056766  0.0  0.080605  0.000158  1.052059  0.0  0.10594  0.074854  0.000454  1.05999  0.0
H  H12  1  0.83649837  0.92695757  0.48768524  1  0.135667  -0.000322  0.950169  0.0  0.141473  -0.000302  1.012105  0.0  0.146551  -0.000242  1.009328  0.0  0.10476  0.137792  -0.000332  1.014184  0.0
H  H13  1  0.66351103  0.92695838  0.98768646  1  0.135665  0.000324  0.950186  0.0  0.141447  0.000302  1.012149  0.0  0.146525  0.000242  1.009374  0.0  0.104781  0.137763  0.000332  1.014223  0.0
H  H14  1  0.16349883  0.07304366  0.51231577  1  0.135655  -0.000321  0.950169  0.0  0.141452  -0.000302  1.012117  0.0  0.14653  -0.000242  1.009341  0.0  0.104754  0.13777  -0.000332  1.014195  0.0
H  H15  1  0.33648768  0.07304006  0.01231571  1  0.135632  0.000323  0.950205  0.0  0.141412  0.000302  1.012166  0.0  0.14649  0.000242  1.009392  0.0  0.10476  0.137731  0.000332  1.01424  0.0
H  H16  1  0.58354591  0.98750195  0.61642852  1  0.077977  -0.00089  0.982027  -0.001  0.082991  -0.000878  1.054176  -0.001  0.084449  -0.000665  1.052337  -0.001  0.102613  0.081232  -0.001032  1.05644  -0.001
H  H17  1  0.91645624  0.98750602  0.11643065  1  0.077979  0.000889  0.982086  0.001  0.082959  0.000878  1.054259  0.001  0.084418  0.000665  1.052419  0.001  0.102585  0.081203  0.001033  1.05652  0.001
H  H18  1  0.41645129  0.01249742  0.38357373  1  0.077997  -0.000892  0.982015  -0.001  0.08302  -0.000878  1.054113  -0.001  0.084479  -0.000665  1.052273  -0.001  0.102614  0.081266  -0.001033  1.056378  -0.001
H  H19  1  0.08353795  0.01249523  0.88357246  1  0.077962  0.00089  0.982015  0.001  0.082938  0.000878  1.054192  0.001  0.084395  0.000665  1.052354  0.001  0.102592  0.081185  0.001033  1.056451  0.001
H  H20  1  0.75825761  0.44455453  0.65943265  1  0.080922  -0.000659  0.94776  -0.001  0.087431  -0.000363  1.014758  0.0  0.090427  -0.000219  1.011175  0.0  0.104714  0.085235  -0.000463  1.017529  -0.001
H  H21  1  0.74174365  0.44455072  0.15943381  1  0.080931  0.000661  0.947722  0.001  0.087439  0.000363  1.014715  0.0  0.090437  0.000219  1.011128  0.0  0.104703  0.085248  0.000463  1.017485  0.001
H  H22  1  0.24173658  0.55545138  0.34056805  1  0.080949  -0.000662  0.947867  -0.001  0.087478  -0.000362  1.014835  0.0  0.090471  -0.000218  1.011259  0.0  0.104712  0.085283  -0.000463  1.017604  -0.001
H  H23  1  0.25826109  0.55544490  0.84056462  1  0.080934  0.00066  0.947749  0.001  0.087445  0.000363  1.014746  0.0  0.090443  0.000219  1.011159  0.0  0.104702  0.085247  0.000463  1.017525  0.001
H  H24  1  0.64892889  0.64755066  0.75910301  1  0.114646  0.000177  0.966737  0.0  0.115526  7.4e-05  1.045227  0.0  0.119076  8.3e-05  1.043702  0.0  0.104073  0.112239  7.4e-05  1.047633  0.0
H  H25  1  0.85107121  0.64754335  0.25910617  1  0.114635  -0.000178  0.966804  0.0  0.115532  -7.4e-05  1.045299  0.0  0.119081  -8.3e-05  1.04378  0.0  0.104088  0.112247  -7.4e-05  1.04769  0.0
H  H26  1  0.35106982  0.35245713  0.24089715  1  0.114626  0.000178  0.966774  0.0  0.115531  7.4e-05  1.045247  0.0  0.119079  8.3e-05  1.043729  0.0  0.104079  0.112246  7.4e-05  1.047651  0.0
H  H27  1  0.14893052  0.35245133  0.74089289  1  0.114583  -0.000177  0.96687  0.0  0.115544  -7.4e-05  1.045277  0.0  0.119095  -8.3e-05  1.043751  0.0  0.1041  0.112254  -7.4e-05  1.047683  0.0
H  H28  1  0.90185393  0.82285549  0.77728504  1  0.08761  -0.00101  0.969062  -0.002  0.093986  -0.001173  1.036862  -0.002  0.096059  -0.00085  1.033909  -0.001  0.106743  0.092108  -0.001371  1.039313  -0.002
H  H29  1  0.59815022  0.82285323  0.27728818  1  0.087674  0.001011  0.969074  0.002  0.094043  0.001173  1.036844  0.002  0.096115  0.00085  1.033894  0.001  0.10676  0.092154  0.001371  1.039323  0.002
H  H30  1  0.09814629  0.17714856  0.22271550  1  0.087651  -0.001013  0.96907  -0.002  0.094014  -0.001173  1.036878  -0.002  0.096088  -0.00085  1.033924  -0.001  0.106776  0.092133  -0.001371  1.039341  -0.002
H  H31  1  0.40185301  0.17714239  0.72271026  1  0.08772  0.001012  0.969119  0.002  0.094101  0.001173  1.036905  0.002  0.096176  0.00085  1.033949  0.001  0.106763  0.092222  0.001371  1.039349  0.002
C  C32  1  0.47149297  0.69035596  0.56827127  1  0.574042  0.003857  3.78081  0.003  0.529293  0.000972  4.054687  0.0  0.556283  0.001446  4.063396  0.001  0.348327  0.511751  0.000465  4.048507  0.0
C  C33  1  0.02851219  0.69035636  0.06827311  1  0.573962  -0.003841  3.78091  -0.003  0.529224  -0.000973  4.054777  0.0  0.556209  -0.001444  4.063479  -0.001  0.348306  0.511679  -0.000466  4.048593  0.0
C  C34  1  0.52850725  0.30964247  0.43172880  1  0.574061  0.003869  3.780871  0.003  0.529339  0.000973  4.054738  0.0  0.556329  0.001446  4.063441  0.001  0.348378  0.511798  0.000466  4.048562  0.0
C  C35  1  0.97148954  0.30964300  0.93172634  1  0.574069  -0.003854  3.780776  -0.003  0.52924  -0.000973  4.054757  0.0  0.556226  -0.001445  4.063462  -0.001  0.348316  0.511695  -0.000465  4.048567  0.0
C  C36  1  0.74324170  0.73233246  0.47761055  1  0.206405  0.004546  3.672292  0.004  0.171527  0.002073  3.928655  0.002  0.18646  0.002226  3.939307  0.002  0.067014  0.161791  0.001823  3.921209  0.002
C  C37  1  0.75676815  0.73233347  0.97761405  1  0.206326  -0.004522  3.67239  -0.004  0.171411  -0.002074  3.928761  -0.002  0.186341  -0.002225  3.939406  -0.002  0.066989  0.161673  -0.001823  3.921308  -0.002
C  C38  1  0.25675400  0.26766878  0.52238906  1  0.206429  0.004566  3.672168  0.004  0.17157  0.002073  3.928537  0.002  0.186505  0.002227  3.939183  0.002  0.067061  0.161835  0.001823  3.921086  0.002
C  C39  1  0.24323508  0.26766590  0.02238750  1  0.206229  -0.004542  3.672402  -0.004  0.171354  -0.002074  3.928752  -0.002  0.186287  -0.002225  3.939394  -0.002  0.066945  0.161612  -0.001823  3.921304  -0.002
C  C40  1  0.73382615  0.85873116  0.51195878  1  -0.17686  -0.005992  3.680462  -0.006  -0.187142  -0.003379  3.928918  -0.004  -0.200455  -0.002951  3.947324  -0.003  -0.088883  -0.178647  -0.003589  3.916812  -0.004
C  C41  1  0.76618504  0.85872928  0.01195944  1  -0.176706  0.005969  3.68042  0.006  -0.186979  0.00338  3.928892  0.004  -0.200293  0.002949  3.947302  0.003  -0.088841  -0.178483  0.003589  3.916779  0.004
C  C42  1  0.26617105  0.14126914  0.48804075  1  -0.176761  -0.006015  3.680457  -0.006  -0.187026  -0.00338  3.928864  -0.004  -0.200339  -0.002952  3.947268  -0.003  -0.088813  -0.17853  -0.003589  3.916761  -0.004
C  C43  1  0.23381669  0.14127009  0.98804141  1  -0.176699  0.005988  3.68048  0.006  -0.186944  0.00338  3.928903  0.004  -0.200259  0.00295  3.947314  0.003  -0.08881  -0.178451  0.003589  3.916796  0.004
C  C44  1  0.59282143  0.89224559  0.58165248  1  0.209344  0.004114  3.666418  0.004  0.176003  0.001232  3.917148  0.002  0.190624  0.001837  3.933869  0.003  0.063333  0.166527  0.000704  3.907116  0.001
C  C45  1  0.90718297  0.89224776  0.08165514  1  0.20924  -0.004097  3.666412  -0.004  0.175933  -0.001234  3.917123  -0.002  0.190557  -0.001835  3.933839  -0.003  0.063317  0.166453  -0.000704  3.907085  -0.001
C  C46  1  0.40717729  0.10775565  0.41834853  1  0.209226  0.004136  3.666551  0.004  0.175898  0.001233  3.917277  0.002  0.19052  0.001837  3.933997  0.003  0.063249  0.166421  0.000704  3.907248  0.001
C  C47  1  0.09281424  0.10775161  0.91834851  1  0.209273  -0.004113  3.666314  -0.004  0.175954  -0.001234  3.917042  -0.002  0.190578  -0.001836  3.933762  -0.003  0.063297  0.166472  -0.000704  3.907006  -0.001
C  C48  1  0.15540596  0.61705717  0.63686393  1  0.568817  0.002561  3.762964  0.002  0.530125  -0.000348  4.028724  0.0  0.556945  0.000488  4.037432  0.001  0.353934  0.512366  -0.001042  4.022762  -0.001
C  C49  1  0.34459788  0.61705547  0.13686825  1  0.568942  -0.002573  3.762777  -0.002  0.530174  0.000349  4.028725  0.0  0.557073  -0.000489  4.037325  -0.001  0.353955  0.512401  0.001041  4.022766  0.001
C  C50  1  0.84459124  0.38294313  0.36313559  1  0.568857  0.002588  3.763033  0.002  0.530176  -0.000349  4.028788  0.0  0.556991  0.000489  4.037504  0.001  0.353962  0.512441  -0.001042  4.022795  -0.001
C  C51  1  0.65540536  0.38294296  0.86312971  1  0.568909  -0.002572  3.762892  -0.002  0.530192  0.000348  4.028695  0.0  0.557046  -0.000487  4.037356  -0.001  0.353976  0.512424  0.001042  4.02273  0.001
C  C52  1  0.85366538  0.52809573  0.66931340  1  0.19624  0.004526  3.691125  0.004  0.164597  0.001708  3.952584  0.002  0.179496  0.001984  3.963626  0.002  0.062376  0.154685  0.001289  3.944787  0.001
C  C53  1  0.64632886  0.52809264  0.16931305  1  0.196172  -0.004539  3.691255  -0.004  0.164555  -0.001707  3.952684  -0.002  0.179453  -0.001985  3.963726  -0.002  0.062402  0.154634  -0.001289  3.944889  -0.001
C  C54  1  0.14633183  0.47190831  0.33068784  1  0.196054  0.004561  3.691147  0.004  0.164382  0.001707  3.952636  0.002  0.179282  0.001986  3.963677  0.002  0.062332  0.154468  0.001288  3.944837  0.001
C  C55  1  0.35367136  0.47190484  0.83068344  1  0.196219  -0.004535  3.6912  -0.004  0.164575  -0.001708  3.952684  -0.002  0.179475  -0.001984  3.963724  -0.002  0.062375  0.154661  -0.001289  3.944891  -0.001
C  C56  1  0.79443241  0.63797866  0.72404243  1  -0.199278  -0.006247  3.720945  -0.007  -0.214492  -0.003439  3.981756  -0.004  -0.228818  -0.002948  4.003957  -0.004  -0.100798  -0.205169  -0.003733  3.967428  -0.004
C  C57  1  0.70556735  0.63797383  0.22404414  1  -0.199215  0.006261  3.721086  0.007  -0.214478  0.003439  3.981864  0.004  -0.228805  0.00295  4.004063  0.004  -0.100828  -0.205154  0.003734  3.967529  0.004
C  C58  1  0.20556630  0.36202538  0.27595741  1  -0.19911  -0.006284  3.720969  -0.007  -0.214326  -0.003439  3.981718  -0.004  -0.228652  -0.00295  4.003917  -0.004  -0.100745  -0.205002  -0.003733  3.967391  -0.004
C  C59  1  0.29443739  0.36202084  0.77595141  1  -0.199171  0.00626  3.720924  0.007  -0.214467  0.003439  3.98177  0.004  -0.228795  0.002949  4.003974  0.004  -0.10083  -0.205146  0.003734  3.967431  0.004
C  C60  1  0.93326081  0.73452256  0.73481607  1  0.200578  0.004013  3.685061  0.004  0.167121  0.000239  3.93413  0.001  0.182316  0.001116  3.950393  0.002  0.059694  0.15739  -0.00045  3.923778  0.0
C  C61  1  0.56673953  0.73452118  0.23482202  1  0.200429  -0.004025  3.684972  -0.004  0.167074  -0.000237  3.93404  -0.001  0.182268  -0.001118  3.9503  -0.002  0.059714  0.157332  0.00045  3.923682  0.0
C  C62  1  0.06673941  0.26548054  0.26518369  1  0.200473  0.004049  3.68512  0.004  0.167018  0.000238  3.934173  0.001  0.182213  0.001118  3.950432  0.002  0.059629  0.157281  -0.00045  3.923823  0.0
C  C63  1  0.43326521  0.26547537  0.76517579  1  0.200416  -0.004028  3.685123  -0.004  0.166987  -0.000238  3.934221  -0.001  0.182179  -0.001117  3.950484  -0.002  0.05969  0.157252  0.00045  3.923861  0.0
N  N64  1  0.33364699  0.60172548  0.58821699  1  -0.493557  0.001991  3.302996  0.001  -0.438233  0.001108  3.552048  0.0  -0.463113  0.001183  3.556199  0.0  -0.378066  -0.421198  0.001037  3.548846  0.0
N  N65  1  0.16635638  0.60172712  0.08822058  1  -0.493485  -0.001989  3.303082  -0.001  -0.438188  -0.001107  3.552101  0.0  -0.463089  -0.001184  3.556219  0.0  -0.378019  -0.421158  -0.001037  3.548896  0.0
N  N66  1  0.66635022  0.39827482  0.41178393  1  -0.493562  0.001994  3.302957  0.001  -0.438255  0.001108  3.552011  0.0  -0.463134  0.001184  3.556164  0.0  -0.378075  -0.421219  0.001037  3.548811  0.0
N  N67  1  0.83364384  0.39827318  0.91177895  1  -0.493686  -0.00199  3.303078  -0.001  -0.438344  -0.001108  3.552077  0.0  -0.463231  -0.001184  3.556208  0.0  -0.378079  -0.421316  -0.001037  3.548873  0.0
N  N68  1  0.46617076  0.80782361  0.61280515  1  -0.43712  -0.054559  3.253151  -0.066  -0.382844  -0.047945  3.543363  -0.062  -0.41864  -0.041565  3.558503  -0.057  -0.351615  -0.363089  -0.049627  3.535954  -0.062
N  N69  1  0.03383234  0.80782402  0.11280630  1  -0.437076  0.054547  3.253058  0.066  -0.382824  0.047947  3.543281  0.062  -0.418596  0.041564  3.558379  0.057  -0.35165  -0.363062  0.049633  3.535854  0.062
N  N70  1  0.53382946  0.19217669  0.38719578  1  -0.437162  -0.054574  3.253333  -0.066  -0.382888  -0.047944  3.543529  -0.062  -0.418681  -0.041564  3.558665  -0.057  -0.351639  -0.363135  -0.049626  3.536129  -0.062
N  N71  1  0.96616638  0.19217441  0.88719377  1  -0.437011  0.054562  3.252906  0.066  -0.382729  0.047948  3.543158  0.062  -0.418497  0.041565  3.558254  0.057  -0.351619  -0.362967  0.049635  3.535728  0.062
N  N72  1  0.61144159  0.64883008  0.50391600  1  -0.431926  -0.008633  3.070879  -0.01  -0.376052  -0.005557  3.326492  -0.007  -0.396776  -0.004307  3.337065  -0.006  -0.310047  -0.362063  -0.006503  3.318704  -0.008
N  N73  1  0.88856546  0.64882754  0.00391893  1  -0.431793  0.008613  3.070838  0.01  -0.375911  0.005559  3.326394  0.007  -0.396665  0.004305  3.337049  0.006  -0.310005  -0.361922  0.006503  3.318612  0.008
N  N74  1  0.38855561  0.35116928  0.49608345  1  -0.431913  -0.008647  3.070772  -0.01  -0.376071  -0.005557  3.326389  -0.007  -0.396806  -0.004308  3.336987  -0.006  -0.310079  -0.362081  -0.006504  3.318608  -0.008
N  N75  1  0.11143627  0.35117089  0.99608114  1  -0.431754  0.008628  3.070764  0.01  -0.375875  0.005559  3.326352  0.007  -0.396629  0.004306  3.337002  0.006  -0.309972  -0.361887  0.006503  3.318572  0.008
N  N76  1  0.11548861  0.72364808  0.69297921  1  -0.421313  -0.070739  3.285011  -0.085  -0.364093  -0.06114  3.564385  -0.078  -0.401426  -0.053163  3.58173  -0.072  -0.35157  -0.342562  -0.062591  3.555288  -0.077
N  N77  1  0.38451773  0.72364739  0.19298159  1  -0.42126  0.070747  3.284773  0.085  -0.364183  0.061136  3.564314  0.078  -0.401534  0.053162  3.581619  0.072  -0.351613  -0.342633  0.062597  3.555187  0.077
N  N78  1  0.88451161  0.27635129  0.30702094  1  -0.421283  -0.070766  3.285033  -0.085  -0.36405  -0.061138  3.564362  -0.078  -0.401381  -0.053165  3.581711  -0.072  -0.351549  -0.342525  -0.062592  3.555259  -0.077
N  N79  1  0.61548852  0.27635010  0.80701630  1  -0.421242  0.070749  3.28498  0.085  -0.364094  0.061138  3.564433  0.078  -0.401431  0.053163  3.58176  0.072  -0.351571  -0.342551  0.062598  3.55531  0.077
N  N80  1  0.03115353  0.51749335  0.62540791  1  -0.40385  -0.012589  2.990426  -0.014  -0.365118  -0.007682  3.258097  -0.009  -0.38436  -0.005451  3.268014  -0.007  -0.31059  -0.351521  -0.009684  3.250558  -0.011
N  N81  1  0.46884519  0.51748911  0.12541013  1  -0.403911  0.012599  2.990472  0.014  -0.365136  0.007679  3.258163  0.009  -0.3844  0.005451  3.268049  0.007  -0.310655  -0.351538  0.009682  3.250624  0.011
N  N82  1  0.96884217  0.48250695  0.37459162  1  -0.403835  -0.012619  2.990439  -0.014  -0.365111  -0.007681  3.258124  -0.009  -0.384353  -0.005453  3.268043  -0.007  -0.310606  -0.351522  -0.009684  3.250574  -0.011
N  N83  1  0.53115804  0.48250838  0.87458565  1  -0.403937  0.012599  2.990611  0.014  -0.365192  0.00768  3.25829  0.009  -0.384444  0.00545  3.268193  0.007  -0.310644  -0.351593  0.009682  3.250744  0.011
Cl  Cl84  1  0.58444153  0.97618069  0.79940666  1  -0.504295  -0.116566  1.103791  -0.131  -0.506373  -0.073283  1.419163  -0.086  -0.545366  -0.057987  1.392755  -0.069  -0.276719  -0.480558  -0.079149  1.437279  -0.092
Cl  Cl85  1  0.91556357  0.97618100  0.29940637  1  -0.504284  0.116579  1.103766  0.131  -0.506351  0.073288  1.4191  0.086  -0.54534  0.057992  1.392691  0.069  -0.276721  -0.480531  0.07915  1.437213  0.092
Cl  Cl86  1  0.41555718  0.02382055  0.20059505  1  -0.504305  -0.116563  1.103803  -0.131  -0.506378  -0.073284  1.419171  -0.086  -0.54537  -0.057988  1.392766  -0.069  -0.276714  -0.480557  -0.079149  1.43729  -0.092
Cl  Cl87  1  0.08443665  0.02382117  0.70059541  1  -0.504291  0.11657  1.103783  0.131  -0.506367  0.073284  1.419145  0.086  -0.545361  0.057989  1.39274  0.069  -0.276714  -0.480556  0.079148  1.437255  0.092
Cl  Cl88  1  0.27068952  0.79675133  0.88984125  1  -0.490824  -0.13991  0.940805  -0.156  -0.490394  -0.082219  1.21747  -0.098  -0.523625  -0.064762  1.197593  -0.08  -0.304408  -0.471469  -0.087467  1.23168  -0.101
Cl  Cl89  1  0.22930826  0.79675217  0.38984277  1  -0.490777  0.139914  0.940715  0.156  -0.490373  0.082218  1.217364  0.098  -0.523593  0.064759  1.197477  0.08  -0.304402  -0.471444  0.087467  1.23156  0.101
Cl  Cl90  1  0.72930919  0.20324897  0.11016108  1  -0.490818  -0.139906  0.940822  -0.156  -0.49037  -0.08222  1.217487  -0.098  -0.523602  -0.064763  1.197614  -0.08  -0.304395  -0.471446  -0.08747  1.231699  -0.101
Cl  Cl91  1  0.77069196  0.20324907  0.61015823  1  -0.490791  0.139918  0.94074  0.156  -0.490372  0.082221  1.217387  0.098  -0.523596  0.064762  1.197512  0.08  -0.304408  -0.471451  0.087475  1.231583  0.101
