# generated using pymatgen
data_ZnH11C13N4O5
_symmetry_space_group_name_H-M   'P 1'
_cell_length_a   7.36249374
_cell_length_b   9.93815817
_cell_length_c   10.67299851
_cell_angle_alpha   113.50451821
_cell_angle_beta   101.86588091
_cell_angle_gamma   92.97685765
_symmetry_Int_Tables_number   1
_chemical_formula_structural   ZnH11C13N4O5
_chemical_formula_sum   'Zn2 H22 C26 N8 O10'
_cell_volume   692.99146220
_cell_formula_units_Z   2
loop_
 _symmetry_equiv_pos_site_id
 _symmetry_equiv_pos_as_xyz
  1  'x, y, z'
loop_
 _atom_site_type_symbol
 _atom_site_label
 _atom_site_symmetry_multiplicity
 _atom_site_fract_x
 _atom_site_fract_y
 _atom_site_fract_z
 _atom_site_occupancy
 _atom_site_pbe_bader_spin_density
 _atom_site_pbe_cm5_charge
 _atom_site_pbe_ddec_charge
 _atom_site_pbe_ddec_spin_density
 _atom_site_pbe_ddec_sum_bond_order
 _atom_site_pbe_magmom
Zn  Zn0  1  0.93292140  0.28437521  0.62988516  1  0  0.699506  0.835734  0  2.331656  0
Zn  Zn1  1  0.06707755  0.71562525  0.37011502  1  0  0.69951  0.835798  0  2.331566  0
H  H2  1  0.19601896  0.12165073  0.64074298  1  0  0.29812  0.40161  0  0.93794  0
H  H3  1  0.80398137  0.87834973  0.35925646  1  0  0.298119  0.40162  0  0.937924  0
H  H4  1  0.01630420  0.03957855  0.66415116  1  0  0.2962  0.399816  0  0.938467  0
H  H5  1  0.98369380  0.96042414  0.33584878  1  0  0.296231  0.399843  0  0.938429  0
H  H6  1  0.18096377  0.89015087  0.15149263  1  0  0.116635  0.123954  0  1.010033  0
H  H7  1  0.81903933  0.10984957  0.84850627  1  0  0.116654  0.123974  0  1.010036  0
H  H8  1  0.04066119  0.89154401  0.99465996  1  0  0.116105  0.105573  0  0.979107  0
H  H9  1  0.95934257  0.10845976  0.00534120  1  0  0.116126  0.105597  0  0.979126  0
H  H10  1  0.90397420  0.64801461  0.79727928  1  0  0.125712  0.086366  0  1.075492  0
H  H11  1  0.09602242  0.35198809  0.20272141  1  0  0.1257  0.086336  0  1.075432  0
H  H12  1  0.38513465  0.65711838  0.09844803  1  0  0.125404  0.129828  0  1.023223  0
H  H13  1  0.61486524  0.34287986  0.90155052  1  0  0.125388  0.129801  0  1.023262  0
H  H14  1  0.25925172  0.36467524  0.89583940  1  0  0.118645  0.117338  0  1.014542  0
H  H15  1  0.74074423  0.63532414  0.10415901  1  0  0.118659  0.11736  0  1.014504  0
H  H16  1  0.55568248  0.41821712  0.23107038  1  0  0.119097  0.092428  0  0.991948  0
H  H17  1  0.44431296  0.58178670  0.76893337  1  0  0.119085  0.092409  0  0.99194  0
H  H18  1  0.19024406  0.94985708  0.83083952  1  0  0.095641  0.106329  0  1.059075  0
H  H19  1  0.80976065  0.05014446  0.16916095  1  0  0.095638  0.106303  0  1.059069  0
H  H20  1  0.52866408  0.93614398  0.20563299  1  0  0.095721  0.102607  0  1.051531  0
H  H21  1  0.47134158  0.06385534  0.79436584  1  0  0.095739  0.102651  0  1.051535  0
H  H22  1  0.85358732  0.39285930  0.38255137  1  0  0.121492  0.100451  0  1.014455  0
H  H23  1  0.14641046  0.60714229  0.61744907  1  0  0.12148  0.100423  0  1.014499  0
C  C24  1  0.17072291  0.86043543  0.03955628  1  0  -0.049149  -0.122846  0  3.861539  0
C  C25  1  0.82928085  0.13956834  0.96044489  1  0  -0.04917  -0.122933  0  3.861547  0
C  C26  1  0.37394337  0.26588978  0.40810027  1  0  0.135036  0.084147  0  3.907512  0
C  C27  1  0.62605768  0.73410733  0.59189990  1  0  0.135061  0.084194  0  3.907378  0
C  C28  1  0.53878525  0.24867638  0.48993590  1  0  0.122963  0.043657  0  3.912309  0
C  C29  1  0.46121559  0.75131963  0.51006382  1  0  0.12297  0.043645  0  3.912239  0
C  C30  1  0.34049045  0.93504640  0.02029514  1  0  -0.018542  0.080618  0  3.986506  0
C  C31  1  0.65951265  0.06495404  0.97970375  1  0  -0.018586  0.080583  0  3.986416  0
C  C32  1  0.02025555  0.60906428  0.84824946  1  0  0.139387  0.087529  0  3.908266  0
C  C33  1  0.97974245  0.39093842  0.15175048  1  0  0.139379  0.087497  0  3.908315  0
C  C34  1  0.27163409  0.61017471  0.00405105  1  0  0.002426  -0.105244  0  3.927355  0
C  C35  1  0.72836463  0.38982465  0.99594682  1  0  0.002462  -0.105265  0  3.927426  0
C  C36  1  0.18035689  0.22418339  0.42181426  1  0  0.215757  0.569521  0  4.267981  0
C  C37  1  0.81964256  0.77581263  0.57818621  1  0  0.215826  0.569719  0  4.267994  0
C  C38  1  0.20768848  0.46745399  0.90452744  1  0  -0.006462  -0.041679  0  4.000989  0
C  C39  1  0.79230769  0.53254650  0.09547049  1  0  -0.006482  -0.041696  0  4.00102  0
C  C40  1  0.54384384  0.18216229  0.59578061  1  0  0.211121  0.55425  0  4.256205  0
C  C41  1  0.45615977  0.81783370  0.40421856  1  0  0.211095  0.554154  0  4.256416  0
C  C42  1  0.54994415  0.36903063  0.30542065  1  0  0.061507  0.071251  0  3.928396  0
C  C43  1  0.45005480  0.63096983  0.69458047  1  0  0.061525  0.071269  0  3.928376  0
C  C44  1  0.32606583  0.97234288  0.90550499  1  0  -0.101702  -0.146746  0  3.992363  0
C  C45  1  0.67393567  0.02765646  0.09449420  1  0  -0.101695  -0.146732  0  3.992313  0
C  C46  1  0.51572524  0.96340704  0.11491479  1  0  -0.100189  -0.131399  0  3.972269  0
C  C47  1  0.48427742  0.03659119  0.88508228  1  0  -0.100206  -0.13147  0  3.972273  0
C  C48  1  0.71544282  0.35501265  0.38781711  1  0  0.061571  0.068085  0  3.910094  0
C  C49  1  0.28455474  0.64498782  0.61218382  1  0  0.06156  0.068106  0  3.910132  0
N  N50  1  0.70721377  0.29612087  0.47956556  1  0  -0.305794  -0.221251  0  3.575845  0
N  N51  1  0.29278473  0.70387738  0.52043373  1  0  -0.305747  -0.221238  0  3.575813  0
N  N52  1  0.38068682  0.32642798  0.31613051  1  0  -0.28528  -0.232014  0  3.286093  0
N  N53  1  0.61931191  0.67357137  0.68387016  1  0  -0.285287  -0.232017  0  3.286098  0
N  N54  1  0.15174309  0.69780593  0.96694312  1  0  -0.23337  0.064171  0  3.745151  0
N  N55  1  0.84825607  0.30219565  0.03305657  1  0  -0.233359  0.06437  0  3.745083  0
N  N56  1  0.05071155  0.46823614  0.80788310  1  0  -0.361695  -0.292195  0  3.591245  0
N  N57  1  0.94928324  0.53176435  0.19211557  1  0  -0.361681  -0.292215  0  3.591334  0
O  O58  1  0.70451323  0.19747993  0.67668482  1  0  -0.309947  -0.534244  0  2.330576  0
O  O59  1  0.29548484  0.80251609  0.32331358  1  0  -0.309994  -0.534256  0  2.33053  0
O  O60  1  0.13298525  0.32047233  0.52645560  1  0  -0.319739  -0.571653  0  2.349605  0
O  O61  1  0.86701647  0.67952811  0.47354684  1  0  -0.319743  -0.571688  0  2.349669  0
O  O62  1  0.08407862  0.10601064  0.32734659  1  0  -0.302378  -0.539793  0  2.236228  0
O  O63  1  0.91591850  0.89398761  0.67265344  1  0  -0.302435  -0.539964  0  2.236277  0
O  O64  1  0.07951091  0.13646237  0.67508542  1  0  -0.578256  -0.752752  0  2.146361  0
O  O65  1  0.92048964  0.86353919  0.32491540  1  0  -0.578279  -0.752801  0  2.146347  0
O  O66  1  0.39333634  0.11770054  0.59660921  1  0  -0.305539  -0.533422  0  2.246753  0
O  O67  1  0.60666311  0.88229547  0.40338939  1  0  -0.305542  -0.533405  0  2.246965  0
