# generated using pymatgen
data_TlH9C8O
_symmetry_space_group_name_H-M   'P 1'
_cell_length_a   6.87121951
_cell_length_b   14.41734652
_cell_length_c   14.41726349
_cell_angle_alpha   117.46872925
_cell_angle_beta   99.13092871
_cell_angle_gamma   99.13011185
_symmetry_Int_Tables_number   1
_chemical_formula_structural   TlH9C8O
_chemical_formula_sum   'Tl6 H54 C48 O6'
_cell_volume   1206.54303428
_cell_formula_units_Z   6
loop_
 _symmetry_equiv_pos_site_id
 _symmetry_equiv_pos_as_xyz
  1  'x, y, z'
loop_
 _atom_site_type_symbol
 _atom_site_label
 _atom_site_symmetry_multiplicity
 _atom_site_fract_x
 _atom_site_fract_y
 _atom_site_fract_z
 _atom_site_occupancy
 _atom_site_hle17_bader_spin_density
 _atom_site_hle17_ddec_charge
 _atom_site_hle17_ddec_spin_density
 _atom_site_hle17_ddec_sum_bond_order
 _atom_site_hle17_magmom
 _atom_site_hse06_10hf_bader_spin_density
 _atom_site_hse06_10hf_ddec_charge
 _atom_site_hse06_10hf_ddec_spin_density
 _atom_site_hse06_10hf_ddec_sum_bond_order
 _atom_site_hse06_10hf_magmom
 _atom_site_hse06_bader_spin_density
 _atom_site_hse06_ddec_charge
 _atom_site_hse06_ddec_spin_density
 _atom_site_hse06_ddec_sum_bond_order
 _atom_site_hse06_magmom
 _atom_site_pbe_bader_spin_density
 _atom_site_pbe_cm5_charge
 _atom_site_pbe_ddec_charge
 _atom_site_pbe_ddec_spin_density
 _atom_site_pbe_ddec_sum_bond_order
 _atom_site_pbe_magmom
Tl  Tl0  1  0.40486128  0.74745902  0.13122345  1  0  0.785365  0  0.819138  0  0  0.682322  0  1.099902  0  0  0.708906  0  1.081613  0  0  0.420345  0.662761  0  1.11271  0
Tl  Tl1  1  0.65680130  0.38434148  0.25294478  1  0  0.785267  0  0.819913  0  0  0.682199  0  1.100671  0  0  0.708751  0  1.082432  0  0  0.420313  0.662728  0  1.113408  0
Tl  Tl2  1  0.15680798  0.25294854  0.38434156  1  0  0.785252  0  0.819941  0  0  0.682183  0  1.100718  0  0  0.708733  0  1.082478  0  0  0.420307  0.662712  0  1.113457  0
Tl  Tl3  1  0.27375283  0.86863937  0.61580863  1  0  0.785715  0  0.818958  0  0  0.682697  0  1.099752  0  0  0.709271  0  1.08148  0  0  0.4206  0.66315  0  1.112521  0
Tl  Tl4  1  0.90489078  0.13123117  0.74746892  1  0  0.785373  0  0.819171  0  0  0.682332  0  1.09995  0  0  0.708918  0  1.081653  0  0  0.42034  0.662769  0  1.11276  0
Tl  Tl5  1  0.77376125  0.61580848  0.86863577  1  0  0.785657  0  0.819022  0  0  0.682616  0  1.09982  0  0  0.709191  0  1.081546  0  0  0.420571  0.663071  0  1.112594  0
H  H6  1  0.25468458  0.02377317  0.31126891  1  0  0.077039  0  0.983617  0  0  0.089323  0  1.048423  0  0  0.09083  0  1.049461  0  0  0.090583  0.088271  0  1.047701  0
H  H7  1  0.23127417  0.28738118  0.97629989  1  0  0.077015  0  0.983433  0  0  0.089164  0  1.048634  0  0  0.0907  0  1.0496  0  0  0.090276  0.08807  0  1.047996  0
H  H8  1  0.73129568  0.97630838  0.28738193  1  0  0.077029  0  0.983299  0  0  0.089168  0  1.048518  0  0  0.090711  0  1.049494  0  0  0.090292  0.088073  0  1.04788  0
H  H9  1  0.94502993  0.68889631  0.71289471  1  0  0.076575  0  0.983722  0  0  0.089117  0  1.048497  0  0  0.090668  0  1.049444  0  0  0.09041  0.087973  0  1.047932  0
H  H10  1  0.75470609  0.31127523  0.02378990  1  0  0.077034  0  0.983599  0  0  0.089263  0  1.048454  0  0  0.090757  0  1.049503  0  0  0.090589  0.088211  0  1.04773  0
H  H11  1  0.44503758  0.71289032  0.68888782  1  0  0.0766  0  0.983806  0  0  0.089208  0  1.048499  0  0  0.09075  0  1.049454  0  0  0.090437  0.08806  0  1.047937  0
H  H12  1  0.33698525  0.94313067  0.42622845  1  0  0.077859  0  0.99166  0  0  0.091415  0  1.051234  0  0  0.09438  0  1.049651  0  0  0.090808  0.089286  0  1.052474  0
H  H13  1  0.39463491  0.48270718  0.05644905  1  0  0.077817  0  0.991802  0  0  0.091508  0  1.051035  0  0  0.094491  0  1.049489  0  0  0.091194  0.089341  0  1.052278  0
H  H14  1  0.89467161  0.05646035  0.48270720  1  0  0.0778  0  0.991825  0  0  0.091588  0  1.05095  0  0  0.094556  0  1.049419  0  0  0.09119  0.089419  0  1.052196  0
H  H15  1  0.91287250  0.57391488  0.51754963  1  0  0.077657  0  0.991195  0  0  0.091096  0  1.050859  0  0  0.094138  0  1.049213  0  0  0.090929  0.088921  0  1.052124  0
H  H16  1  0.83700213  0.42622370  0.94313195  1  0  0.077904  0  0.991688  0  0  0.09154  0  1.051156  0  0  0.094507  0  1.049573  0  0  0.090819  0.08941  0  1.052397  0
H  H17  1  0.41288462  0.51754775  0.57390472  1  0  0.077556  0  0.991171  0  0  0.09102  0  1.050808  0  0  0.094061  0  1.049165  0  0  0.090944  0.088846  0  1.052072  0
H  H18  1  0.15729943  0.75004810  0.36177746  1  0  0.069477  0  0.993215  0  0  0.082699  0  1.059755  0  0  0.084637  0  1.059553  0  0  0.087782  0.081164  0  1.060184  0
H  H19  1  0.40754228  0.61146157  0.24940587  1  0  0.069326  0  0.992482  0  0  0.082431  0  1.059286  0  0  0.084348  0  1.059078  0  0  0.087682  0.080964  0  1.059668  0
H  H20  1  0.90755281  0.24941814  0.61145938  1  0  0.069463  0  0.992798  0  0  0.082532  0  1.059598  0  0  0.08445  0  1.059391  0  0  0.08777  0.081068  0  1.059976  0
H  H21  1  0.79647042  0.63803931  0.38865037  1  0  0.069363  0  0.993851  0  0  0.08248  0  1.060598  0  0  0.084389  0  1.060383  0  0  0.087834  0.081017  0  1.060967  0
H  H22  1  0.65732875  0.36176699  0.75004987  1  0  0.069317  0  0.993301  0  0  0.082544  0  1.059865  0  0  0.084482  0  1.059664  0  0  0.087742  0.081035  0  1.060269  0
H  H23  1  0.29650884  0.38865061  0.63803588  1  0  0.06925  0  0.993756  0  0  0.082365  0  1.060545  0  0  0.084275  0  1.06033  0  0  0.087803  0.080905  0  1.060922  0
H  H24  1  0.91827465  0.58542919  0.23431832  1  0  0.088012  0  0.983474  0  0  0.11116  0  1.048853  0  0  0.11123  0  1.050629  0  0  0.082859  0.111103  0  1.047586  0
H  H25  1  0.33403397  0.64872836  0.41436818  1  0  0.087865  0  0.982529  0  0  0.111434  0  1.047375  0  0  0.11149  0  1.049194  0  0  0.082943  0.111377  0  1.046085  0
H  H26  1  0.83404140  0.41436788  0.64873037  1  0  0.087857  0  0.982511  0  0  0.111438  0  1.047338  0  0  0.111496  0  1.049155  0  0  0.08293  0.11138  0  1.046051  0
H  H27  1  0.68439255  0.76533160  0.35108873  1  0  0.08837  0  0.982689  0  0  0.111811  0  1.047719  0  0  0.111849  0  1.049531  0  0  0.082917  0.111725  0  1.046494  0
H  H28  1  0.41832421  0.23430068  0.58542585  1  0  0.08791  0  0.983464  0  0  0.111109  0  1.048841  0  0  0.111179  0  1.050621  0  0  0.082856  0.111051  0  1.047576  0
H  H29  1  0.18441976  0.35108787  0.76531790  1  0  0.088418  0  0.982694  0  0  0.111905  0  1.047606  0  0  0.111944  0  1.049414  0  0  0.082976  0.111827  0  1.046376  0
H  H30  1  0.89583084  0.55551361  0.09878445  1  0  0.10357  0  0.954822  0  0  0.128599  0  1.014104  0  0  0.129625  0  1.013605  0  0  0.08976  0.127836  0  1.01445  0
H  H31  1  0.33717881  0.54272607  0.44423235  1  0  0.103835  0  0.956185  0  0  0.128401  0  1.015927  0  0  0.129452  0  1.015405  0  0  0.0897  0.127599  0  1.016326  0
H  H32  1  0.83718041  0.44423290  0.54272164  1  0  0.103768  0  0.956186  0  0  0.128334  0  1.015949  0  0  0.129385  0  1.015429  0  0  0.089682  0.127532  0  1.016347  0
H  H33  1  0.79647516  0.90098075  0.45640489  1  0  0.104484  0  0.954719  0  0  0.129335  0  1.014088  0  0  0.130415  0  1.013547  0  0  0.08985  0.128524  0  1.014477  0
H  H34  1  0.39589405  0.09877137  0.55552378  1  0  0.103546  0  0.955072  0  0  0.128549  0  1.014373  0  0  0.129568  0  1.01389  0  0  0.089756  0.127789  0  1.014714  0
H  H35  1  0.29650350  0.45639904  0.90096497  1  0  0.104549  0  0.954726  0  0  0.129395  0  1.014085  0  0  0.130468  0  1.013556  0  0  0.08992  0.128581  0  1.014476  0
H  H36  1  0.69753135  0.59423812  0.15800161  1  0  0.087231  0  0.993911  0  0  0.106388  0  1.067128  0  0  0.107263  0  1.066897  0  0  0.082537  0.105722  0  1.067351  0
H  H37  1  0.10233820  0.56494588  0.40516691  1  0  0.087527  0  0.993315  0  0  0.107094  0  1.066283  0  0  0.107931  0  1.066108  0  0  0.08281  0.106463  0  1.066455  0
H  H38  1  0.60232910  0.40516977  0.56494698  1  0  0.087454  0  0.993263  0  0  0.10708  0  1.06618  0  0  0.107918  0  1.066006  0  0  0.082824  0.10645  0  1.066354  0
H  H39  1  0.53931207  0.84134370  0.43592409  1  0  0.08715  0  0.993534  0  0  0.10647  0  1.066938  0  0  0.107325  0  1.066715  0  0  0.082637  0.105811  0  1.06714  0
H  H40  1  0.19756750  0.15797954  0.59422535  1  0  0.087216  0  0.993896  0  0  0.106344  0  1.067182  0  0  0.107223  0  1.066944  0  0  0.082545  0.105679  0  1.067403  0
H  H41  1  0.03934953  0.43591565  0.84133667  1  0  0.087228  0  0.993497  0  0  0.106542  0  1.066864  0  0  0.107392  0  1.066648  0  0  0.082676  0.105884  0  1.067063  0
H  H42  1  0.03598181  0.01865780  0.15974085  1  0  0.082719  0  0.978501  0  0  0.106361  0  1.043034  0  0  0.106724  0  1.043915  0  0  0.083518  0.106006  0  1.042559  0
H  H43  1  0.01718974  0.14141933  0.98175073  1  0  0.082831  0  0.979077  0  0  0.106219  0  1.043785  0  0  0.106581  0  1.044676  0  0  0.083554  0.105857  0  1.043322  0
H  H44  1  0.51717188  0.98175084  0.14142068  1  0  0.08297  0  0.979061  0  0  0.106398  0  1.043682  0  0  0.106761  0  1.044571  0  0  0.083624  0.106035  0  1.043222  0
H  H45  1  0.87723709  0.84031908  0.85890191  1  0  0.082379  0  0.978087  0  0  0.10607  0  1.042539  0  0  0.106428  0  1.043413  0  0  0.083397  0.105701  0  1.042091  0
H  H46  1  0.53599508  0.15974603  0.01867237  1  0  0.082665  0  0.978467  0  0  0.106317  0  1.043029  0  0  0.106678  0  1.043911  0  0  0.083489  0.105962  0  1.042554  0
H  H47  1  0.37722952  0.85889580  0.84030730  1  0  0.082508  0  0.978097  0  0  0.106244  0  1.042483  0  0  0.106605  0  1.043352  0  0  0.083473  0.105872  0  1.042039  0
H  H48  1  0.80560764  0.91265931  0.08363947  1  0  0.096498  0  0.970004  0  0  0.115899  0  1.037308  0  0  0.117675  0  1.036085  0  0  0.086213  0.114541  0  1.038272  0
H  H49  1  0.89249265  0.17155497  0.08777445  1  0  0.096754  0  0.969215  0  0  0.11571  0  1.036939  0  0  0.117448  0  1.035765  0  0  0.086102  0.114378  0  1.037863  0
H  H50  1  0.39248331  0.08777191  0.17155877  1  0  0.096921  0  0.969221  0  0  0.115838  0  1.036951  0  0  0.117573  0  1.035776  0  0  0.086139  0.114511  0  1.037872  0
H  H51  1  0.72218369  0.91611537  0.82871668  1  0  0.095913  0  0.970642  0  0  0.115265  0  1.037939  0  0  0.117017  0  1.036752  0  0  0.085699  0.113909  0  1.038876  0
H  H52  1  0.30562599  0.08365168  0.91266922  1  0  0.096524  0  0.96991  0  0  0.115911  0  1.037242  0  0  0.117692  0  1.03601  0  0  0.086178  0.114553  0  1.038206  0
H  H53  1  0.22216677  0.82871726  0.91610290  1  0  0.095967  0  0.970413  0  0  0.115303  0  1.037748  0  0  0.117044  0  1.036569  0  0  0.085724  0.113943  0  1.038691  0
H  H54  1  0.03285857  0.89653391  0.04403209  1  0  0.093747  0  0.959589  0  0  0.117021  0  1.02318  0  0  0.117965  0  1.022767  0  0  0.087786  0.116268  0  1.023543  0
H  H55  1  0.13559642  0.14774079  0.10402551  1  0  0.092237  0  0.960367  0  0  0.115586  0  1.023929  0  0  0.116549  0  1.023481  0  0  0.087129  0.114813  0  1.024328  0
H  H56  1  0.63555632  0.10401782  0.14773544  1  0  0.092389  0  0.960488  0  0  0.115752  0  1.024002  0  0  0.116715  0  1.023553  0  0  0.087217  0.11498  0  1.024401  0
H  H57  1  0.98899420  0.95615642  0.85230087  1  0  0.092832  0  0.959199  0  0  0.116093  0  1.022984  0  0  0.117055  0  1.022534  0  0  0.087488  0.115305  0  1.023402  0
H  H58  1  0.53287117  0.04404270  0.89655188  1  0  0.093616  0  0.959564  0  0  0.116981  0  1.023082  0  0  0.117925  0  1.022669  0  0  0.087762  0.116228  0  1.023446  0
H  H59  1  0.48898785  0.85229708  0.95614573  1  0  0.092905  0  0.959156  0  0  0.116175  0  1.022943  0  0  0.117138  0  1.022489  0  0  0.087534  0.115387  0  1.02336  0
C  C60  1  0.91057663  0.77389815  0.15109011  1  0  0.212611  0  3.929649  0  0  0.196452  0  4.171817  0  0  0.208075  0  4.192323  0  0  0.061495  0.188854  0  4.156876  0
C  C61  1  0.13630178  0.37741118  0.22616748  1  0  0.213258  0  3.930448  0  0  0.19771  0  4.172247  0  0  0.209346  0  4.192699  0  0  0.061901  0.190089  0  4.157396  0
C  C62  1  0.63630527  0.22617971  0.37742158  1  0  0.213065  0  3.930443  0  0  0.197514  0  4.172303  0  0  0.209152  0  4.19275  0  0  0.061766  0.189895  0  4.157446  0
C  C63  1  0.76016721  0.84881504  0.62272658  1  0  0.212559  0  3.928587  0  0  0.196248  0  4.17115  0  0  0.207872  0  4.191645  0  0  0.06109  0.188648  0  4.156268  0
C  C64  1  0.41060206  0.15109261  0.77390588  1  0  0.212879  0  3.929659  0  0  0.196849  0  4.171818  0  0  0.208483  0  4.192321  0  0  0.061638  0.189252  0  4.156869  0
C  C65  1  0.26017678  0.62272899  0.84880526  1  0  0.212291  0  3.929146  0  0  0.19607  0  4.171601  0  0  0.207693  0  4.192098  0  0  0.060971  0.18847  0  4.156722  0
C  C66  1  0.02097806  0.88208659  0.18573629  1  0  -0.01195  0  3.796709  0  0  0.023517  0  4.02274  0  0  0.017863  0  4.050189  0  0  -0.037089  0.027087  0  4.004045  0
C  C67  1  0.13877394  0.30383595  0.11809818  1  0  -0.012524  0  3.796892  0  0  0.02279  0  4.022771  0  0  0.017153  0  4.050177  0  0  -0.037147  0.026321  0  4.004163  0
C  C68  1  0.63876732  0.11810534  0.30384166  1  0  -0.0121  0  3.796511  0  0  0.023169  0  4.022442  0  0  0.017527  0  4.049865  0  0  -0.036965  0.026701  0  4.003825  0
C  C69  1  0.83617771  0.81427335  0.69636294  1  0  -0.012483  0  3.796207  0  0  0.022597  0  4.02311  0  0  0.016961  0  4.050508  0  0  -0.037437  0.02614  0  4.004462  0
C  C70  1  0.52101068  0.18574184  0.88209834  1  0  -0.012062  0  3.796608  0  0  0.023161  0  4.022953  0  0  0.017483  0  4.050433  0  0  -0.037224  0.026731  0  4.004255  0
C  C71  1  0.33618324  0.69636603  0.81426921  1  0  -0.012184  0  3.796167  0  0  0.022886  0  4.023029  0  0  0.017246  0  4.050441  0  0  -0.037356  0.02643  0  4.004377  0
C  C72  1  0.17156858  0.94085018  0.28454739  1  0  -0.138647  0  3.84579  0  0  -0.157033  0  4.087807  0  0  -0.15851  0  4.113092  0  0  -0.107568  -0.155651  0  4.070372  0
C  C73  1  0.23094734  0.34364476  0.05914541  1  0  -0.138259  0  3.844124  0  0  -0.156507  0  4.085865  0  0  -0.158001  0  4.111178  0  0  -0.107224  -0.155128  0  4.068434  0
C  C74  1  0.73095601  0.05916211  0.34365561  1  0  -0.138403  0  3.844498  0  0  -0.15663  0  4.086304  0  0  -0.158142  0  4.111639  0  0  -0.107297  -0.155247  0  4.068863  0
C  C75  1  0.88840592  0.71553410  0.65658202  1  0  -0.138107  0  3.84357  0  0  -0.156539  0  4.08538  0  0  -0.158072  0  4.110715  0  0  -0.107166  -0.155122  0  4.067988  0
C  C76  1  0.67157581  0.28454603  0.94087030  1  0  -0.138473  0  3.84547  0  0  -0.156734  0  4.087551  0  0  -0.158196  0  4.112835  0  0  -0.107501  -0.155354  0  4.070113  0
C  C77  1  0.38842346  0.65658572  0.71552466  1  0  -0.138368  0  3.843273  0  0  -0.15685  0  4.085086  0  0  -0.158374  0  4.110423  0  0  -0.107239  -0.155429  0  4.067692  0
C  C78  1  0.21952455  0.89546345  0.34954665  1  0  -0.148145  0  3.921075  0  0  -0.158843  0  4.17191  0  0  -0.164591  0  4.197575  0  0  -0.125551  -0.15495  0  4.154248  0
C  C79  1  0.32441289  0.45391538  0.10425771  1  0  -0.147772  0  3.919741  0  0  -0.158437  0  4.17037  0  0  -0.164226  0  4.195976  0  0  -0.125697  -0.154467  0  4.15274  0
C  C80  1  0.82443129  0.10426048  0.45391409  1  0  -0.147753  0  3.919472  0  0  -0.158477  0  4.170078  0  0  -0.164253  0  4.19569  0  0  -0.125702  -0.154509  0  4.15245  0
C  C81  1  0.87153965  0.65048652  0.54633891  1  0  -0.147292  0  3.919475  0  0  -0.157711  0  4.170095  0  0  -0.163507  0  4.195701  0  0  -0.125869  -0.153784  0  4.152475  0
C  C82  1  0.71954496  0.34954845  0.89547815  1  0  -0.148511  0  3.92057  0  0  -0.159284  0  4.171451  0  0  -0.165034  0  4.197105  0  0  -0.125685  -0.155388  0  4.153796  0
C  C83  1  0.37155783  0.54633505  0.65048216  1  0  -0.146913  0  3.919366  0  0  -0.157356  0  4.169982  0  0  -0.163148  0  4.195584  0  0  -0.125742  -0.153429  0  4.152362  0
C  C84  1  0.11878557  0.78801064  0.31344061  1  0  -0.15792  0  3.884021  0  0  -0.174498  0  4.122493  0  0  -0.17637  0  4.148164  0  0  -0.112252  -0.172821  0  4.104819  0
C  C85  1  0.33074994  0.52529593  0.21158112  1  0  -0.158544  0  3.883492  0  0  -0.174856  0  4.122551  0  0  -0.1767  0  4.148179  0  0  -0.11238  -0.173236  0  4.104862  0
C  C86  1  0.83076182  0.21159592  0.52530728  1  0  -0.158728  0  3.883379  0  0  -0.175024  0  4.12248  0  0  -0.176866  0  4.148094  0  0  -0.112469  -0.173405  0  4.104796  0
C  C87  1  0.80633387  0.68643537  0.47485329  1  0  -0.158332  0  3.884899  0  0  -0.174847  0  4.123623  0  0  -0.176684  0  4.149268  0  0  -0.111879  -0.173237  0  4.105935  0
C  C88  1  0.61880467  0.31343581  0.78801338  1  0  -0.157555  0  3.883756  0  0  -0.174108  0  4.122259  0  0  -0.175976  0  4.14793  0  0  -0.112148  -0.172454  0  4.104578  0
C  C89  1  0.30636735  0.47485737  0.68642481  1  0  -0.158452  0  3.884923  0  0  -0.174948  0  4.123686  0  0  -0.176788  0  4.149334  0  0  -0.112052  -0.173344  0  4.106004  0
C  C90  1  0.96790821  0.72594546  0.21506601  1  0  -0.011087  0  3.805755  0  0  0.026618  0  4.027694  0  0  0.020977  0  4.055502  0  0  -0.038704  0.030274  0  4.008525  0
C  C91  1  0.24153204  0.48919486  0.27380828  1  0  -0.010307  0  3.804236  0  0  0.026347  0  4.027266  0  0  0.020744  0  4.054982  0  0  -0.038752  0.029942  0  4.008199  0
C  C92  1  0.74153264  0.27380871  0.48919388  1  0  -0.010183  0  3.804529  0  0  0.026465  0  4.02755  0  0  0.020863  0  4.055263  0  0  -0.038736  0.030061  0  4.008481  0
C  C93  1  0.75338897  0.78474723  0.51091245  1  0  -0.010794  0  3.805678  0  0  0.02672  0  4.028049  0  0  0.021097  0  4.055812  0  0  -0.038847  0.030354  0  4.00895  0
C  C94  1  0.46794710  0.21506516  0.72595344  1  0  -0.011133  0  3.806088  0  0  0.026506  0  4.028072  0  0  0.020862  0  4.05588  0  0  -0.038642  0.030162  0  4.008904  0
C  C95  1  0.25341120  0.51091578  0.78474233  1  0  -0.010495  0  3.805243  0  0  0.02693  0  4.027665  0  0  0.021311  0  4.05542  0  0  -0.038742  0.030564  0  4.008569  0
C  C96  1  0.86451504  0.60985619  0.17531588  1  0  -0.308007  0  3.76898  0  0  -0.395325  0  4.006836  0  0  -0.39567  0  4.017359  0  0  -0.244272  -0.39476  0  3.999453  0
C  C97  1  0.25386432  0.56558349  0.38978548  1  0  -0.309004  0  3.76826  0  0  -0.396355  0  4.00602  0  0  -0.396724  0  4.01654  0  0  -0.244777  -0.395747  0  3.998625  0
C  C98  1  0.75386444  0.38978433  0.56558367  1  0  -0.308903  0  3.768043  0  0  -0.396304  0  4.00583  0  0  -0.396676  0  4.016354  0  0  -0.244723  -0.395695  0  3.998435  0
C  C99  1  0.68929463  0.82431113  0.43436593  1  0  -0.309334  0  3.768739  0  0  -0.397025  0  4.006343  0  0  -0.397377  0  4.01686  0  0  -0.244558  -0.39642  0  3.998993  0
C  C100  1  0.36455065  0.17530004  0.60985643  1  0  -0.307914  0  3.769261  0  0  -0.395248  0  4.007114  0  0  -0.395593  0  4.01764  0  0  -0.244332  -0.394687  0  3.999735  0
C  C101  1  0.18932054  0.43436327  0.82430401  1  0  -0.309592  0  3.768701  0  0  -0.39726  0  4.006417  0  0  -0.397607  0  4.016932  0  0  -0.244711  -0.39666  0  3.999064  0
C  C102  1  0.97131279  0.93042062  0.11533827  1  0  -0.299584  0  3.764816  0  0  -0.382237  0  4.000084  0  0  -0.382804  0  4.010472  0  0  -0.240101  -0.381512  0  3.992963  0
C  C103  1  0.04059745  0.18525382  0.06999497  1  0  -0.298625  0  3.76359  0  0  -0.380657  0  3.998917  0  0  -0.381197  0  4.009245  0  0  -0.239482  -0.379959  0  3.991863  0
C  C104  1  0.54057948  0.06999431  0.18525496  1  0  -0.299207  0  3.763939  0  0  -0.381246  0  3.999318  0  0  -0.381781  0  4.009635  0  0  -0.239703  -0.38055  0  3.992265  0
C  C105  1  0.85656996  0.88465300  0.81492454  1  0  -0.298014  0  3.76311  0  0  -0.380295  0  3.998158  0  0  -0.380856  0  4.008553  0  0  -0.239033  -0.379547  0  3.991061  0
C  C106  1  0.47133127  0.11534816  0.93043758  1  0  -0.299399  0  3.76456  0  0  -0.382097  0  3.999912  0  0  -0.382657  0  4.010304  0  0  -0.239989  -0.38137  0  3.992785  0
C  C107  1  0.35656464  0.81492359  0.88464083  1  0  -0.298327  0  3.763034  0  0  -0.380662  0  3.998075  0  0  -0.38121  0  4.008479  0  0  -0.239192  -0.379908  0  3.990989  0
O  O108  1  0.75517617  0.71952305  0.06242135  1  0  -0.699102  0  2.038935  0  0  -0.610082  0  2.284069  0  0  -0.638481  0  2.28237  0  0  -0.358417  -0.589664  0  2.283983  0
O  O109  1  0.03516260  0.34333604  0.28071899  1  0  -0.698878  0  2.039426  0  0  -0.610004  0  2.284493  0  0  -0.63839  0  2.282793  0  0  -0.358232  -0.589611  0  2.284421  0
O  O110  1  0.53515106  0.28071907  0.34333196  1  0  -0.698877  0  2.039364  0  0  -0.609962  0  2.284382  0  0  -0.638347  0  2.282676  0  0  -0.358239  -0.589573  0  2.284313  0
O  O111  1  0.69304195  0.93741425  0.65679490  1  0  -0.69816  0  2.036171  0  0  -0.609132  0  2.281765  0  0  -0.637473  0  2.279953  0  0  -0.357705  -0.588697  0  2.2816  0
O  O112  1  0.25519734  0.06242690  0.71954064  1  0  -0.699241  0  2.039156  0  0  -0.610236  0  2.284281  0  0  -0.638634  0  2.282574  0  0  -0.358461  -0.589819  0  2.284192  0
O  O113  1  0.19303894  0.65678767  0.93739906  1  0  -0.698096  0  2.036416  0  0  -0.609082  0  2.28195  0  0  -0.637418  0  2.280125  0  0  -0.357636  -0.588646  0  2.281785  0
