# generated using pymatgen
data_CdHC2SN3
_symmetry_space_group_name_H-M   'P 1'
_cell_length_a   6.02575122
_cell_length_b   6.70050838
_cell_length_c   11.38262204
_cell_angle_alpha   90.00039558
_cell_angle_beta   89.99996054
_cell_angle_gamma   112.44909877
_symmetry_Int_Tables_number   1
_chemical_formula_structural   CdHC2SN3
_chemical_formula_sum   'Cd4 H4 C8 S4 N12'
_cell_volume   424.75277643
_cell_formula_units_Z   4
loop_
 _symmetry_equiv_pos_site_id
 _symmetry_equiv_pos_as_xyz
  1  'x, y, z'
loop_
 _atom_site_type_symbol
 _atom_site_label
 _atom_site_symmetry_multiplicity
 _atom_site_fract_x
 _atom_site_fract_y
 _atom_site_fract_z
 _atom_site_occupancy
 _atom_site_hle17_bader_spin_density
 _atom_site_hle17_ddec_charge
 _atom_site_hle17_ddec_spin_density
 _atom_site_hle17_ddec_sum_bond_order
 _atom_site_hle17_magmom
 _atom_site_hse06_10hf_bader_spin_density
 _atom_site_hse06_10hf_ddec_charge
 _atom_site_hse06_10hf_ddec_spin_density
 _atom_site_hse06_10hf_ddec_sum_bond_order
 _atom_site_hse06_10hf_magmom
 _atom_site_hse06_bader_spin_density
 _atom_site_hse06_ddec_charge
 _atom_site_hse06_ddec_spin_density
 _atom_site_hse06_ddec_sum_bond_order
 _atom_site_hse06_magmom
 _atom_site_pbe_bader_spin_density
 _atom_site_pbe_cm5_charge
 _atom_site_pbe_ddec_charge
 _atom_site_pbe_ddec_spin_density
 _atom_site_pbe_ddec_sum_bond_order
 _atom_site_pbe_magmom
Cd  Cd0  1  0.25175003  0.74488156  0.38919813  1  0  0.946875  0  1.804095  0  0  0.741167  0  2.262927  0  0  0.788395  0  2.227156  0  0  0.711451  0.707614  0  2.287146  0
Cd  Cd1  1  0.74825159  0.75512332  0.88919897  1  0  0.946901  0  1.803989  0  0  0.741196  0  2.262825  0  0  0.788426  0  2.227049  0  0  0.711475  0.707642  0  2.287047  0
Cd  Cd2  1  0.74825046  0.25513139  0.61080266  1  0  0.946936  0  1.804113  0  0  0.741255  0  2.262932  0  0  0.78848  0  2.22715  0  0  0.711517  0.707707  0  2.287156  0
Cd  Cd3  1  0.25174957  0.24487987  0.11080445  1  0  0.946843  0  1.804139  0  0  0.741163  0  2.262944  0  0  0.788385  0  2.227171  0  0  0.71146  0.707614  0  2.287167  0
H  H4  1  0.84816773  0.53988626  0.16064678  1  0  0.073832  0  1.020668  0  0  0.081924  0  1.092439  0  0  0.083655  0  1.090521  0  0  0.106141  0.080618  0  1.093688  0
H  H5  1  0.15181527  0.96010101  0.66063771  1  0  0.073836  0  1.020457  0  0  0.081838  0  1.092337  0  0  0.083559  0  1.090444  0  0  0.106095  0.080539  0  1.093561  0
H  H6  1  0.15181450  0.46009284  0.83936191  1  0  0.073925  0  1.02039  0  0  0.08185  0  1.092335  0  0  0.083553  0  1.090493  0  0  0.106117  0.080553  0  1.093561  0
H  H7  1  0.84817525  0.03988934  0.33936131  1  0  0.073833  0  1.020647  0  0  0.08191  0  1.092452  0  0  0.083638  0  1.090539  0  0  0.106118  0.08061  0  1.093684  0
C  C8  1  0.76421347  0.46802378  0.24270068  1  0  0.21681  0  3.757886  0  0  0.15458  0  4.029058  0  0  0.169679  0  4.044086  0  0  0.125499  0.144614  0  4.018547  0
C  C9  1  0.23579159  0.03196977  0.74270856  1  0  0.216735  0  3.758386  0  0  0.154588  0  4.029554  0  0  0.169688  0  4.044576  0  0  0.125515  0.144624  0  4.019046  0
C  C10  1  0.23578248  0.53197136  0.75728693  1  0  0.216675  0  3.758341  0  0  0.154608  0  4.029494  0  0  0.169707  0  4.044515  0  0  0.12559  0.144639  0  4.018987  0
C  C11  1  0.76421403  0.96802846  0.25730188  1  0  0.216846  0  3.757807  0  0  0.154589  0  4.029031  0  0  0.169692  0  4.044065  0  0  0.125527  0.144621  0  4.018522  0
C  C12  1  0.50818194  0.28132666  0.37122871  1  0  0.34103  0  3.887498  0  0  0.310567  0  4.168948  0  0  0.329281  0  4.183818  0  0  0.184484  0.297809  0  4.158497  0
C  C13  1  0.49182776  0.21867842  0.87122939  1  0  0.341066  0  3.887486  0  0  0.310586  0  4.168973  0  0  0.329292  0  4.183852  0  0  0.184526  0.297827  0  4.158526  0
C  C14  1  0.49183387  0.71869093  0.62876768  1  0  0.341112  0  3.887618  0  0  0.310605  0  4.169125  0  0  0.329323  0  4.183996  0  0  0.184475  0.297845  0  4.158672  0
C  C15  1  0.50817714  0.78131820  0.12877227  1  0  0.341026  0  3.88756  0  0  0.310543  0  4.169034  0  0  0.329244  0  4.18393  0  0  0.184473  0.297791  0  4.15857  0
S  S16  1  0.25233492  0.11556180  0.44258278  1  0  -0.490292  0  2.217954  0  0  -0.440474  0  2.603118  0  0  -0.460031  0  2.59297  0  0  -0.218242  -0.425959  0  2.609355  0
S  S17  1  0.74767620  0.38445078  0.94257881  1  0  -0.490361  0  2.218022  0  0  -0.440531  0  2.60319  0  0  -0.460076  0  2.593044  0  0  -0.218297  -0.426012  0  2.609429  0
S  S18  1  0.74767266  0.88445591  0.55742064  1  0  -0.490323  0  2.21804  0  0  -0.440485  0  2.603209  0  0  -0.460039  0  2.593057  0  0  -0.218242  -0.425969  0  2.609449  0
S  S19  1  0.25232403  0.61555405  0.05741758  1  0  -0.490317  0  2.218038  0  0  -0.44049  0  2.603196  0  0  -0.460036  0  2.593055  0  0  -0.218268  -0.425974  0  2.609429  0
N  N20  1  0.71798205  0.38178404  0.42730122  1  0  -0.335051  0  3.155538  0  0  -0.263582  0  3.431558  0  0  -0.282346  0  3.449755  0  0  -0.272004  -0.250432  0  3.41894  0
N  N21  1  0.28202853  0.11822345  0.92729888  1  0  -0.334995  0  3.155644  0  0  -0.263527  0  3.431674  0  0  -0.282288  0  3.449872  0  0  -0.271967  -0.250376  0  3.419056  0
N  N22  1  0.28202904  0.61823036  0.57270747  1  0  -0.335168  0  3.155644  0  0  -0.26368  0  3.431664  0  0  -0.282448  0  3.449862  0  0  -0.271986  -0.250526  0  3.419046  0
N  N23  1  0.71797241  0.88178299  0.07269839  1  0  -0.334941  0  3.155624  0  0  -0.263467  0  3.431628  0  0  -0.282226  0  3.449831  0  0  -0.271935  -0.250319  0  3.419006  0
N  N24  1  0.53206018  0.33239805  0.25421885  1  0  -0.470307  0  3.200603  0  0  -0.377092  0  3.477569  0  0  -0.403103  0  3.490976  0  0  -0.369141  -0.359366  0  3.467826  0
N  N25  1  0.46793502  0.16759582  0.75422198  1  0  -0.470328  0  3.200855  0  0  -0.377102  0  3.477803  0  0  -0.403112  0  3.491219  0  0  -0.369163  -0.359369  0  3.468047  0
N  N26  1  0.46793363  0.66759224  0.74576260  1  0  -0.470291  0  3.200956  0  0  -0.377047  0  3.477858  0  0  -0.403074  0  3.491287  0  0  -0.369147  -0.359308  0  3.468098  0
N  N27  1  0.53206186  0.83239767  0.24577968  1  0  -0.470414  0  3.20072  0  0  -0.377165  0  3.477679  0  0  -0.403186  0  3.491107  0  0  -0.369177  -0.35942  0  3.467903  0
N  N28  1  0.88157019  0.50054221  0.34447343  1  0  -0.282887  0  3.206516  0  0  -0.207086  0  3.49465  0  0  -0.225516  0  3.513212  0  0  -0.268222  -0.19491  0  3.481732  0
N  N29  1  0.11843882  0.99946028  0.84447064  1  0  -0.282851  0  3.207058  0  0  -0.207072  0  3.495206  0  0  -0.225496  0  3.513757  0  0  -0.268173  -0.194899  0  3.482291  0
N  N30  1  0.11842740  0.49945290  0.65552560  1  0  -0.282825  0  3.207022  0  0  -0.207042  0  3.495117  0  0  -0.225461  0  3.513665  0  0  -0.268268  -0.194873  0  3.48221  0
N  N31  1  0.88156582  0.00052822  0.15552926  1  0  -0.282932  0  3.206606  0  0  -0.207128  0  3.49476  0  0  -0.225558  0  3.51332  0  0  -0.26823  -0.194954  0  3.481841  0
