# generated using pymatgen
data_Al3H19C54(O7F3)2
_symmetry_space_group_name_H-M   'P 1'
_cell_length_a   12.25296874
_cell_length_b   12.16301053
_cell_length_c   27.25800625
_cell_angle_alpha   89.64440550
_cell_angle_beta   90.25551322
_cell_angle_gamma   125.16648477
_symmetry_Int_Tables_number   1
_chemical_formula_structural   Al3H19C54(O7F3)2
_chemical_formula_sum   'Al6 H38 C108 O28 F12'
_cell_volume   3320.82541953
_cell_formula_units_Z   2
loop_
 _symmetry_equiv_pos_site_id
 _symmetry_equiv_pos_as_xyz
  1  'x, y, z'
loop_
 _atom_site_type_symbol
 _atom_site_label
 _atom_site_symmetry_multiplicity
 _atom_site_fract_x
 _atom_site_fract_y
 _atom_site_fract_z
 _atom_site_occupancy
 _atom_site_pbe_bader_charge
 _atom_site_pbe_bader_spin_density
 _atom_site_pbe_cm5_charge
 _atom_site_pbe_ddec_charge
 _atom_site_pbe_ddec_spin_density
 _atom_site_pbe_ddec_sum_bond_order
 _atom_site_pbe_magmom
Al  Al0  1  0.45519214  0.23734992  0.74940862  1  2.498603  0  0.396724  1.692206  0  2.55028  0
Al  Al1  1  0.75801920  0.49798707  0.75036550  1  2.473654  0  0.509078  1.665485  0  2.495121  0
Al  Al2  1  0.71104211  0.22677178  0.74966252  1  2.471086  0  0.507012  1.667372  0  2.498283  0
Al  Al3  1  0.23779460  0.45325146  0.25156947  1  2.497107  0  0.39736  1.691389  0  2.548862  0
Al  Al4  1  0.49718026  0.75785401  0.25033637  1  2.47361  0  0.508645  1.665994  0  2.496046  0
Al  Al5  1  0.22809508  0.71123027  0.24981855  1  2.483162  0  0.507213  1.6686  0  2.495232  0
H  H6  1  0.01578394  0.20179958  0.03820146  1  0.079069  0  0.101402  0.099686  0  1.013472  0
H  H7  1  0.20208724  0.99423016  0.44645445  1  0.086635  0  0.103741  0.104071  0  1.004101  0
H  H8  1  0.82953176  0.84397628  0.04579207  1  0.082047  0  0.102237  0.102177  0  1.003913  0
H  H9  1  0.02103805  0.21047217  0.46373086  1  0.064952  0  0.102496  0.1009  0  1.013744  0
H  H10  1  0.20225995  0.99718025  0.05116793  1  0.064552  0  0.10333  0.103358  0  1.004751  0
H  H11  1  0.82491873  0.84344589  0.45542665  1  0.084708  0  0.102908  0.102708  0  1.00301  0
H  H12  1  0.20869393  0.01637861  0.53691468  1  0.069261  0  0.102449  0.100764  0  1.014176  0
H  H13  1  0.99256844  0.19563682  0.94778364  1  0.06709  0  0.103745  0.103554  0  1.004834  0
H  H14  1  0.84088269  0.82848645  0.54552557  1  0.061775  0  0.102875  0.102812  0  1.002798  0
H  H15  1  0.20805632  0.01784477  0.96061169  1  0.068233  0  0.101647  0.099736  0  1.014631  0
H  H16  1  0.99868500  0.20487186  0.55420045  1  0.071442  0  0.104295  0.104703  0  1.00365  0
H  H17  1  0.84630509  0.82687601  0.95609322  1  0.065243  0  0.102154  0.101641  0  1.005451  0
H  H18  1  0.05053549  0.66973389  0.12298632  1  0.114902  0  0.113433  0.125241  0  0.996791  0
H  H19  1  0.62964982  0.94173438  0.37681440  1  0.125751  0  0.11347  0.125886  0  1.000701  0
H  H20  1  0.31310827  0.37542842  0.12288140  1  0.10412  0  0.115272  0.126726  0  0.999273  0
H  H21  1  0.04839812  0.67393914  0.37611855  1  0.10388  0  0.113108  0.124811  0  0.997519  0
H  H22  1  0.62533492  0.93785385  0.12287003  1  0.112915  0  0.11304  0.125132  0  1.001996  0
H  H23  1  0.31112746  0.37120219  0.37883160  1  0.140247  0  0.120316  0.136332  0  0.986997  0
H  H24  1  0.67535087  0.05304151  0.62255163  1  0.116315  0  0.112776  0.124373  0  0.996752  0
H  H25  1  0.93882894  0.62588459  0.87698863  1  0.102815  0  0.112701  0.124589  0  1.004193  0
H  H26  1  0.37267785  0.31254946  0.62407718  1  0.15112  0  0.120891  0.136013  0  0.986491  0
H  H27  1  0.66899395  0.04440979  0.87638360  1  0.105064  0  0.11374  0.125492  0  0.995509  0
H  H28  1  0.93675878  0.63014432  0.62199035  1  0.117593  0  0.113433  0.125655  0  1.001212  0
H  H29  1  0.37569097  0.31249245  0.87885966  1  0.146903  0  0.116191  0.128774  0  0.996821  0
H  H30  1  0.00938671  0.75683468  0.04624779  1  0.069616  0  0.10165  0.103008  0  1.007107  0
H  H31  1  0.75041799  0.98262577  0.45610169  1  0.060697  0  0.100514  0.101382  0  1.017006  0
H  H32  1  0.22193266  0.24203157  0.04573440  1  0.067688  0  0.102062  0.102007  0  1.006319  0
H  H33  1  0.00487839  0.75954670  0.45207361  1  0.048176  0  0.102148  0.103398  0  1.005027  0
H  H34  1  0.74422135  0.97481653  0.04355716  1  0.05839  0  0.099689  0.100285  0  1.021063  0
H  H35  1  0.22143973  0.23722982  0.45647982  1  0.07913  0  0.103653  0.104074  0  1.001519  0
H  H36  1  0.76168513  0.01299652  0.54610716  1  0.080581  0  0.101531  0.103006  0  1.007919  0
H  H37  1  0.97853710  0.74610360  0.95620063  1  0.056278  0  0.100097  0.100752  0  1.019539  0
H  H38  1  0.23905770  0.22057479  0.54676714  1  0.052944  0  0.103612  0.104429  0  1.000867  0
H  H39  1  0.75462366  0.00345062  0.95337959  1  0.060155  0  0.101524  0.102737  0  1.008411  0
H  H40  1  0.97458100  0.74927530  0.54205638  1  0.070374  0  0.100173  0.101074  0  1.018667  0
H  H41  1  0.24006881  0.22374806  0.95582576  1  0.063394  0  0.102286  0.102759  0  1.003961  0
H  H42  1  0.23199609  0.09680838  0.77430280  1  0.592194  0  0.289391  0.380319  0  0.928818  0
H  H43  1  0.11374507  0.23062430  0.22388374  1  0.574143  0  0.290003  0.380884  0  0.927635  0
C  C44  1  0.58262252  0.46897931  0.82196396  1  1.592983  0  0.27096  0.655044  0  4.086707  0
C  C45  1  0.88919869  0.43424032  0.68192178  1  1.564561  0  0.278596  0.671003  0  4.071033  0
C  C46  1  0.51672916  0.08696376  0.82042928  1  1.57632  0  0.270724  0.656728  0  4.09249  0
C  C47  1  0.57915621  0.47251216  0.68065346  1  1.593659  0  0.275858  0.655091  0  4.086019  0
C  C48  1  0.88963071  0.43013004  0.81789367  1  1.574197  0  0.278316  0.668164  0  4.075985  0
C  C49  1  0.52095125  0.09409155  0.67749102  1  1.585128  0  0.270162  0.652768  0  4.092683  0
C  C50  1  0.46877548  0.57819123  0.32146890  1  1.575663  0  0.274409  0.655065  0  4.088449  0
C  C51  1  0.43090434  0.89034783  0.18173096  1  1.559557  0  0.278032  0.668516  0  4.076907  0
C  C52  1  0.09273605  0.52007128  0.32185491  1  1.575329  0  0.271694  0.652415  0  4.091914  0
C  C53  1  0.47127921  0.58100106  0.17997605  1  1.600964  0  0.270937  0.656275  0  4.086358  0
C  C54  1  0.43362741  0.89091863  0.31759506  1  1.577175  0  0.277853  0.667875  0  4.074826  0
C  C55  1  0.09255107  0.51550240  0.17857658  1  1.581142  0  0.270589  0.657932  0  4.088624  0
C  C56  1  0.99058768  0.47249577  0.97128009  1  0.010571  0  0.010087  0.027893  0  3.916157  0
C  C57  1  0.48416938  0.01037247  0.52226524  1  -0.034288  0  0.009082  0.027184  0  3.916517  0
C  C58  1  0.54017906  0.52792785  0.97524743  1  0.00507  0  0.009974  0.026889  0  3.917884  0
C  C59  1  0.99114289  0.47840559  0.52885291  1  0.022841  0  0.010978  0.028106  0  3.914309  0
C  C60  1  0.48042827  0.00655936  0.97629336  1  -0.024037  0  0.009601  0.026267  0  3.917416  0
C  C61  1  0.53676709  0.52702147  0.52679972  1  0.048725  0  0.010097  0.027275  0  3.91541  0
C  C62  1  0.47771465  0.99284511  0.47056764  1  -0.014085  0  0.010089  0.026391  0  3.914569  0
C  C63  1  0.00833794  0.47854954  0.02300338  1  -0.001893  0  0.009817  0.028715  0  3.91457  0
C  C64  1  0.52587176  0.53730400  0.47528362  1  -0.040356  0  0.010232  0.02737  0  3.915316  0
C  C65  1  0.47447647  0.99004016  0.02809211  1  0.000619  0  0.010347  0.027847  0  3.914591  0
C  C66  1  0.00872989  0.48430080  0.47716014  1  -0.002685  0  0.009454  0.027742  0  3.916531  0
C  C67  1  0.52894151  0.53929695  0.02657717  1  0.019682  0  0.010214  0.028997  0  3.91641  0
C  C68  1  0.98703732  0.67242889  0.97534155  1  -0.080705  0  -0.090814  -0.126881  0  4.006524  0
C  C69  1  0.68340184  0.00764811  0.52468119  1  -0.053628  0  -0.089146  -0.124319  0  4.005825  0
C  C70  1  0.31976555  0.31039809  0.97615601  1  -0.05126  0  -0.089392  -0.125537  0  4.014493  0
C  C71  1  0.98428039  0.67629455  0.52344938  1  -0.014149  0  -0.090518  -0.126831  0  4.005472  0
C  C72  1  0.67744752  0.00002578  0.97458280  1  0.021711  0  -0.088848  -0.123839  0  4.004744  0
C  C73  1  0.31807447  0.30762170  0.52621745  1  -0.019406  0  -0.087943  -0.126392  0  4.010746  0
C  C74  1  0.67704145  0.99042711  0.47507810  1  -0.014419  0  -0.090167  -0.125683  0  4.004416  0
C  C75  1  0.00445185  0.67846735  0.02497527  1  0.022933  0  -0.089428  -0.12466  0  4.00432  0
C  C76  1  0.30805254  0.31709645  0.47673480  1  -0.050824  0  -0.089107  -0.126298  0  4.013571  0
C  C77  1  0.67157484  0.98386010  0.02430177  1  -0.038875  0  -0.090573  -0.126194  0  4.006001  0
C  C78  1  0.00143537  0.68209422  0.47383687  1  -0.031037  0  -0.089128  -0.124211  0  4.005654  0
C  C79  1  0.30948712  0.32073000  0.02545943  1  -0.006128  0  -0.089903  -0.127107  0  4.016061  0
C  C80  1  0.95392578  0.55669835  0.89618698  1  -0.027221  0  -0.071931  -0.114855  0  3.916622  0
C  C81  1  0.59405921  0.04079252  0.60080531  1  -0.042752  0  -0.072812  -0.117849  0  3.918839  0
C  C82  1  0.45191046  0.40128864  0.89928670  1  -0.050048  0  -0.069917  -0.112264  0  3.911524  0
C  C83  1  0.95290529  0.56165529  0.60327227  1  0.01908  0  -0.072456  -0.116007  0  3.916324  0
C  C84  1  0.58857096  0.03373842  0.89794503  1  0.035077  0  -0.072957  -0.116989  0  3.916277  0
C  C85  1  0.44830139  0.40150488  0.60335463  1  -0.044383  0  -0.06807  -0.113076  0  3.905646  0
C  C86  1  0.56093538  0.95657879  0.39580198  1  -0.023998  0  -0.072467  -0.11659  0  3.915767  0
C  C87  1  0.03868903  0.58834608  0.10135599  1  -0.015625  0  -0.072911  -0.117889  0  3.917572  0
C  C88  1  0.39982397  0.44754219  0.39921415  1  0.017823  0  -0.068496  -0.114219  0  3.907168  0
C  C89  1  0.55732968  0.95365877  0.10347832  1  0.006818  0  -0.072299  -0.115767  0  3.915013  0
C  C90  1  0.03750183  0.59303035  0.39817786  1  -0.011851  0  -0.072372  -0.117668  0  3.921029  0
C  C91  1  0.40219269  0.45122220  0.10251375  1  -0.010313  0  -0.070629  -0.112273  0  3.916958  0
C  C92  1  0.05050843  0.49368445  0.12592185  1  0.049819  0  -0.020624  -0.153009  0  3.991121  0
C  C93  1  0.45647775  0.94341330  0.36842932  1  0.025139  0  -0.023546  -0.162277  0  4.007832  0
C  C94  1  0.50191086  0.56576448  0.12836751  1  0.062818  0  -0.020872  -0.152114  0  3.992424  0
C  C95  1  0.05046411  0.49891995  0.37435497  1  0.042141  0  -0.021185  -0.154347  0  3.995601  0
C  C96  1  0.45405214  0.94263155  0.13057122  1  0.00664  0  -0.022337  -0.159732  0  4.003619  0
C  C97  1  0.49913458  0.56267315  0.37320690  1  0.036836  0  -0.020892  -0.155875  0  3.997949  0
C  C98  1  0.49970108  0.05176566  0.62503113  1  0.036412  0  -0.021521  -0.154805  0  3.995648  0
C  C99  1  0.94137337  0.45220143  0.86897235  1  0.043204  0  -0.023073  -0.16127  0  4.005845  0
C  C100  1  0.56285771  0.50209420  0.62892782  1  0.002466  0  -0.020905  -0.154856  0  3.997154  0
C  C101  1  0.49494602  0.04572838  0.87319235  1  0.0468  0  -0.02059  -0.15322  0  3.99099  0
C  C102  1  0.94158533  0.45772844  0.63103039  1  -0.011261  0  -0.023608  -0.162971  0  4.009047  0
C  C103  1  0.56728083  0.50008064  0.87354216  1  0.035343  0  -0.021536  -0.152636  0  3.9889  0
C  C104  1  0.97846682  0.56918512  0.94676684  1  0.046419  0  -0.00949  0.064531  0  4.047218  0
C  C105  1  0.58807090  0.01901402  0.55010280  1  0.025399  0  -0.01004  0.062636  0  4.042956  0
C  C106  1  0.43566582  0.41240859  0.94939019  1  0.026427  0  -0.010185  0.063043  0  4.049297  0
C  C107  1  0.97751341  0.57420008  0.55271276  1  0.003159  0  -0.009339  0.065117  0  4.046015  0
C  C108  1  0.58297464  0.01282037  0.94876852  1  -0.063625  0  -0.009497  0.063968  0  4.042531  0
C  C109  1  0.43277647  0.41124799  0.55295358  1  -0.016987  0  -0.009491  0.064809  0  4.044774  0
C  C110  1  0.57387934  0.98130373  0.44631542  1  -0.020718  0  -0.00913  0.065487  0  4.045838  0
C  C111  1  0.01658532  0.58263933  0.05062804  1  -0.047944  0  -0.009241  0.064546  0  4.041588  0
C  C112  1  0.41045569  0.43233693  0.44958057  1  -0.007754  0  -0.009147  0.065649  0  4.045256  0
C  C113  1  0.56983029  0.97725127  0.05279037  1  0.0338  0  -0.009382  0.064929  0  4.044725  0
C  C114  1  0.01527985  0.58731925  0.44884597  1  -0.004909  0  -0.010038  0.063145  0  4.044115  0
C  C115  1  0.41272378  0.43546452  0.05233833  1  -0.027445  0  -0.01024  0.06351  0  4.050336  0
C  C116  1  0.96047839  0.36256663  0.89344110  1  0.443779  0  0.115901  0.236373  0  3.988755  0
C  C117  1  0.39510053  0.03663024  0.59714317  1  0.461123  0  0.117294  0.236784  0  3.984147  0
C  C118  1  0.66568862  0.61508756  0.89931868  1  0.456217  0  0.112507  0.229624  0  3.988863  0
C  C119  1  0.96243579  0.36921367  0.60720848  1  0.441897  0  0.116104  0.235592  0  3.989077  0
C  C120  1  0.39174196  0.03305487  0.90084391  1  0.420579  0  0.116062  0.235537  0  3.979249  0
C  C121  1  0.66088061  0.61722146  0.60283879  1  0.497426  0  0.112354  0.229549  0  3.991383  0
C  C122  1  0.36747711  0.96233351  0.39260155  1  0.456543  0  0.11584  0.235287  0  3.987649  0
C  C123  1  0.03620771  0.38920410  0.09817013  1  0.434596  0  0.115563  0.235291  0  3.982772  0
C  C124  1  0.61397022  0.66158632  0.39884882  1  0.459012  0  0.112573  0.229934  0  3.990395  0
C  C125  1  0.36609563  0.96294115  0.10591405  1  0.448032  0  0.115803  0.235626  0  3.986896  0
C  C126  1  0.03720153  0.39496892  0.40271500  1  0.463331  0  0.117461  0.235526  0  3.986207  0
C  C127  1  0.61715599  0.66388638  0.10264572  1  0.40421  0  0.11274  0.229964  0  3.992818  0
C  C128  1  0.98396702  0.36893507  0.94409232  1  0.088258  0  -0.015091  -0.039596  0  4.057321  0
C  C129  1  0.38566125  0.01831977  0.54614913  1  0.053437  0  -0.015459  -0.039705  0  4.05528  0
C  C130  1  0.65609247  0.63214090  0.94967962  1  -0.006371  0  -0.017432  -0.040051  0  4.055186  0
C  C131  1  0.98620451  0.37583448  0.55664690  1  0.023328  0  -0.015603  -0.038455  0  4.054768  0
C  C132  1  0.38277422  0.01589650  0.95194642  1  0.079831  0  -0.016359  -0.039488  0  4.056212  0
C  C133  1  0.65172026  0.63281161  0.55224051  1  -0.005232  0  -0.016862  -0.041191  0  4.059148  0
C  C134  1  0.37435291  0.98591007  0.44319468  1  0.067987  0  -0.01478  -0.036849  0  4.050942  0
C  C135  1  0.01721263  0.37965472  0.04716599  1  0.028158  0  -0.016153  -0.041405  0  4.05744  0
C  C136  1  0.63039603  0.65285941  0.44941993  1  0.044536  0  -0.016679  -0.040995  0  4.056115  0
C  C137  1  0.37248148  0.98547565  0.05515339  1  0.048984  0  -0.015094  -0.038379  0  4.052577  0
C  C138  1  0.01887596  0.38611963  0.45372595  1  0.04528  0  -0.015627  -0.040204  0  4.056432  0
C  C139  1  0.63389046  0.65454399  0.05223701  1  0.04531  0  -0.017305  -0.042349  0  4.058215  0
C  C140  1  0.00982455  0.27680802  0.01896596  1  -0.016435  0  -0.086615  -0.106093  0  4.020989  0
C  C141  1  0.27899721  0.99773978  0.46804301  1  0.027941  0  -0.086291  -0.108156  0  4.011985  0
C  C142  1  0.74951589  0.75717946  0.02569066  1  -0.02127  0  -0.087885  -0.111219  0  4.021603  0
C  C143  1  0.01361898  0.28453747  0.48252219  1  0.026263  0  -0.086431  -0.1063  0  4.019071  0
C  C144  1  0.27809210  0.99878234  0.02984959  1  0.002563  0  -0.086497  -0.108053  0  4.014259  0
C  C145  1  0.74528246  0.75669441  0.47581073  1  0.012941  0  -0.087467  -0.110625  0  4.019287  0
C  C146  1  0.28310533  0.01080556  0.51779362  1  -0.062417  0  -0.086414  -0.106369  0  4.018379  0
C  C147  1  0.99621339  0.27293111  0.96920135  1  -0.048722  0  -0.087134  -0.108599  0  4.01744  0
C  C148  1  0.75451913  0.74807402  0.52542924  1  -0.072276  0  -0.087277  -0.111058  0  4.021913  0
C  C149  1  0.28171614  0.01095653  0.98001122  1  -0.045749  0  -0.086673  -0.106379  0  4.019398  0
C  C150  1  0.00038675  0.28093435  0.53226069  1  -0.05421  0  -0.08643  -0.10893  0  4.014123  0
C  C151  1  0.75916994  0.74736318  0.97623749  1  -0.018588  0  -0.088779  -0.113285  0  4.023389  0
O  O152  1  0.44202518  0.11449482  0.80065484  1  -1.237565  0  -0.218766  -0.579255  0  2.381933  0
O  O153  1  0.69294983  0.55352659  0.70168673  1  -1.266414  0  -0.245456  -0.61033  0  2.303832  0
O  O154  1  0.84602776  0.31729968  0.79792846  1  -1.253105  0  -0.230761  -0.591907  0  2.332005  0
O  O155  1  0.45013482  0.12822096  0.69528678  1  -1.230386  0  -0.211337  -0.561553  0  2.384876  0
O  O156  1  0.69454218  0.55187929  0.79995615  1  -1.263373  0  -0.247721  -0.60976  0  2.292829  0
O  O157  1  0.84553887  0.32069174  0.70180577  1  -1.244748  0  -0.232296  -0.598979  0  2.338068  0
O  O158  1  0.12414294  0.44703732  0.30375684  1  -1.226824  0  -0.210183  -0.556878  0  2.379733  0
O  O159  1  0.55261063  0.69482712  0.20131695  1  -1.272613  0  -0.246639  -0.608901  0  2.295356  0
O  O160  1  0.32158530  0.84755697  0.29741265  1  -1.263832  0  -0.231132  -0.596268  0  2.336654  0
O  O161  1  0.12267018  0.44177044  0.19772191  1  -1.233279  0  -0.21813  -0.577337  0  2.381787  0
O  O162  1  0.55022370  0.69137432  0.29956589  1  -1.259891  0  -0.245395  -0.610336  0  2.303407  0
O  O163  1  0.31823238  0.84650954  0.20131370  1  -1.250356  0  -0.231616  -0.594641  0  2.332516  0
O  O164  1  0.48644723  0.35915726  0.80448682  1  -1.244483  0  -0.214704  -0.562454  0  2.354047  0
O  O165  1  0.88131143  0.52507383  0.70130546  1  -1.256337  0  -0.233101  -0.592455  0  2.286515  0
O  O166  1  0.61749289  0.09949211  0.79928226  1  -1.269993  0  -0.245411  -0.602877  0  2.267694  0
O  O167  1  0.48198896  0.36504908  0.69942890  1  -1.247882  0  -0.206547  -0.538615  0  2.336107  0
O  O168  1  0.88247566  0.52202994  0.79859601  1  -1.259327  0  -0.233182  -0.592856  0  2.29309  0
O  O169  1  0.61723966  0.10044343  0.70041793  1  -1.27407  0  -0.249329  -0.610398  0  2.261018  0
O  O170  1  0.36045933  0.48083439  0.30355885  1  -1.232924  0  -0.207165  -0.541312  0  2.339742  0
O  O171  1  0.52132637  0.88266520  0.20139301  1  -1.254513  0  -0.232898  -0.59207  0  2.293498  0
O  O172  1  0.10179549  0.61884054  0.29910656  1  -1.272776  0  -0.24943  -0.610609  0  2.260142  0
O  O173  1  0.36346888  0.48355536  0.19813982  1  -1.244998  0  -0.215953  -0.565099  0  2.350349  0
O  O174  1  0.52413120  0.88274831  0.29853242  1  -1.261416  0  -0.233663  -0.592759  0  2.291349  0
O  O175  1  0.10263541  0.61518796  0.20019644  1  -1.263462  0  -0.246634  -0.605706  0  2.267916  0
O  O176  1  0.64359240  0.32159693  0.75033812  1  -1.612138  0  -0.39168  -1.267621  0  2.287489  0
O  O177  1  0.32194745  0.64289757  0.25014673  1  -1.611785  0  -0.390921  -1.267907  0  2.287548  0
O  O178  1  0.28259362  0.16075094  0.74827680  1  -1.383488  0  -0.580367  -0.996336  0  1.793179  0
O  O179  1  0.16047244  0.27928500  0.25332856  1  -1.364117  0  -0.579368  -0.995464  0  1.794512  0
F  F180  1  0.04236251  0.29199850  0.11971811  1  -0.625933  0  -0.082705  -0.120497  0  1.381983  0
F  F181  1  0.26785779  0.95568275  0.36765999  1  -0.62298  0  -0.082748  -0.117999  0  1.374108  0
F  F182  1  0.71865987  0.77553078  0.12579785  1  -0.62944  0  -0.088672  -0.126344  0  1.371722  0
F  F183  1  0.04389914  0.29834418  0.38187489  1  -0.621282  0  -0.074563  -0.107495  0  1.389023  0
F  F184  1  0.26790581  0.95885443  0.13058151  1  -0.625585  0  -0.085376  -0.121496  0  1.371043  0
F  F185  1  0.71506642  0.77339992  0.37547287  1  -0.630723  0  -0.086658  -0.123839  0  1.371571  0
F  F186  1  0.29809910  0.04092554  0.61849343  1  -0.619547  0  -0.07583  -0.109834  0  1.388191  0
F  F187  1  0.95435603  0.26279645  0.86869745  1  -0.626407  0  -0.083626  -0.119358  0  1.373246  0
F  F188  1  0.77211766  0.71944290  0.62581746  1  -0.629429  0  -0.086907  -0.124215  0  1.37076  0
F  F189  1  0.29557372  0.03936987  0.87915481  1  -0.628022  0  -0.081751  -0.119504  0  1.381852  0
F  F190  1  0.95788172  0.27036471  0.63252764  1  -0.622611  0  -0.083161  -0.118251  0  1.373634  0
F  F191  1  0.77818921  0.71593518  0.87632326  1  -0.635699  0  -0.088003  -0.126544  0  1.37338  0
