# generated using pymatgen
data_ZnH18C14S(NO)4
_symmetry_space_group_name_H-M   'P 1'
_cell_length_a   6.55537478
_cell_length_b   9.42269962
_cell_length_c   9.42281218
_cell_angle_alpha   81.45727933
_cell_angle_beta   87.77024709
_cell_angle_gamma   87.76997405
_symmetry_Int_Tables_number   1
_chemical_formula_structural   ZnH18C14S(NO)4
_chemical_formula_sum   'Zn1 H18 C14 S1 N4 O4'
_cell_volume   574.82406387
_cell_formula_units_Z   1
loop_
 _symmetry_equiv_pos_site_id
 _symmetry_equiv_pos_as_xyz
  1  'x, y, z'
loop_
 _atom_site_type_symbol
 _atom_site_label
 _atom_site_symmetry_multiplicity
 _atom_site_fract_x
 _atom_site_fract_y
 _atom_site_fract_z
 _atom_site_occupancy
 _atom_site_pbe_bader_charge
 _atom_site_pbe_bader_spin_density
 _atom_site_pbe_cm5_charge
 _atom_site_pbe_ddec_charge
 _atom_site_pbe_ddec_spin_density
 _atom_site_pbe_ddec_sum_bond_order
 _atom_site_pbe_magmom
Zn  Zn0  1  0.49999608  0.55831278  0.44169609  1  1.274273  0  0.688186  0.72577  0  2.333927  0
H  H1  1  0.49557174  0.78079826  0.04737307  1  0.014164  0  0.093813  0.065636  0  0.982458  0
H  H2  1  0.50445769  0.95262475  0.21920035  1  0.014472  0  0.093813  0.06573  0  0.982467  0
H  H3  1  0.71286528  0.74156263  0.15568958  1  0.072185  0  0.107035  0.093388  0  0.992319  0
H  H4  1  0.28714706  0.84432431  0.25842468  1  0.072021  0  0.107048  0.093436  0  0.992322  0
H  H5  1  0.53087968  0.38034249  0.18111580  1  0.062276  0  0.109958  0.094748  0  0.979059  0
H  H6  1  0.46912684  0.81889543  0.61965241  1  0.062368  0  0.109964  0.09471  0  0.979065  0
H  H7  1  0.75077390  0.48602459  0.15610037  1  0.104899  0  0.109072  0.100033  0  1.004473  0
H  H8  1  0.24923870  0.84390178  0.51397465  1  0.105005  0  0.109036  0.100001  0  1.004545  0
H  H9  1  0.87057961  0.43284628  0.92569772  1  0.071522  0  0.109477  0.118872  0  0.991824  0
H  H10  1  0.12937559  0.07431073  0.56712683  1  0.071312  0  0.109406  0.118751  0  0.991709  0
H  H11  1  0.82079652  0.46547316  0.65927780  1  0.114731  0  0.116599  0.096078  0  1.02565  0
H  H12  1  0.17919341  0.34074268  0.53450110  1  0.114982  0  0.116522  0.096009  0  1.025735  0
H  H13  1  0.21985331  0.60076479  0.70801449  1  0.127141  0  0.117617  0.095878  0  1.009898  0
H  H14  1  0.78013225  0.29199821  0.39923165  1  0.127179  0  0.117624  0.095968  0  1.009886  0
H  H15  1  0.24296915  0.57944848  0.97632196  1  0.114052  0  0.112734  0.132707  0  0.999613  0
H  H16  1  0.75701389  0.02369469  0.42055240  1  0.113088  0  0.11265  0.132537  0  0.999782  0
H  H17  1  0.32314968  0.59101771  0.20040301  1  0.458142  0  0.28367  0.246341  0  1.028887  0
H  H18  1  0.67685400  0.79960631  0.40897734  1  0.458149  0  0.283663  0.246346  0  1.028779  0
C  C19  1  0.54482102  0.74188425  0.15753591  1  0.289051  0  -0.072867  -0.04654  0  3.898837  0
C  C20  1  0.45518432  0.84247006  0.25811337  1  0.268299  0  -0.072832  -0.046678  0  3.89905  0
C  C21  1  0.58725561  0.48610853  0.13369570  1  0.266862  0  -0.06464  -0.086692  0  3.931353  0
C  C22  1  0.41274997  0.86631075  0.51388482  1  0.266886  0  -0.064549  -0.086483  0  3.931213  0
C  C23  1  0.72305659  0.47052027  0.88213399  1  -0.015055  0  -0.087549  -0.18903  0  3.962607  0
C  C24  1  0.27694493  0.11787139  0.52946413  1  -0.014646  0  -0.087468  -0.188884  0  3.962628  0
C  C25  1  0.69733387  0.48734056  0.73481975  1  0.475572  0  0.043165  0.091096  0  3.953238  0
C  C26  1  0.30265434  0.26519507  0.51263594  1  0.474968  0  0.043292  0.09119  0  3.952613  0
C  C27  1  0.36094691  0.56490567  0.76215627  1  0.435317  0  0.042661  0.082347  0  3.965653  0
C  C28  1  0.63905072  0.23784768  0.43509063  1  0.43499  0  0.042707  0.082224  0  3.966601  0
C  C29  1  0.37518098  0.55157322  0.91051841  1  0.013879  0  -0.088346  -0.195721  0  3.946057  0
C  C30  1  0.62480508  0.08950605  0.44842135  1  0.015061  0  -0.088333  -0.195574  0  3.946539  0
C  C31  1  0.56065663  0.50394325  0.97349165  1  -0.083851  0  0.011391  0.146178  0  3.943503  0
C  C32  1  0.43934522  0.02651816  0.49604727  1  -0.083849  0  0.011349  0.146019  0  3.943588  0
S  S33  1  0.00000454  0.62559673  0.37439994  1  3.786394  0  0.549221  1.407906  0  6.412639  0
N  N34  1  0.51959077  0.53472360  0.67495903  1  -1.238833  0  -0.321452  -0.226546  0  3.512401  0
N  N35  1  0.48042842  0.32505750  0.46524824  1  -1.238692  0  -0.321491  -0.226473  0  3.512318  0
N  N36  1  0.48059408  0.59426616  0.20814921  1  -1.089318  0  -0.488408  -0.331095  0  3.499478  0
N  N37  1  0.51940895  0.79185856  0.40572677  1  -1.089677  0  -0.488417  -0.331113  0  3.499439  0
O  O38  1  0.17412988  0.57523854  0.47043575  1  -1.358678  0  -0.370094  -0.677923  0  2.359295  0
O  O39  1  0.82586126  0.52959147  0.42478794  1  -1.358665  0  -0.370215  -0.678089  0  2.359534  0
O  O40  1  0.05502642  0.61071010  0.22263375  1  -1.353924  0  -0.382526  -0.676542  0  2.141263  0
O  O41  1  0.94498842  0.77739394  0.38919687  1  -1.354052  0  -0.382485  -0.676516  0  2.141554  0
