# generated using pymatgen
data_CdNi2H58C80(N10Cl)2
_symmetry_space_group_name_H-M   'P 1'
_cell_length_a   13.53385331
_cell_length_b   21.95106938
_cell_length_c   21.95105064
_cell_angle_alpha   66.20203562
_cell_angle_beta   72.05123666
_cell_angle_gamma   72.04936839
_symmetry_Int_Tables_number   1
_chemical_formula_structural   CdNi2H58C80(N10Cl)2
_chemical_formula_sum   'Cd2 Ni4 H116 C160 N40 Cl4'
_cell_volume   5548.34892247
_cell_formula_units_Z   2
loop_
 _symmetry_equiv_pos_site_id
 _symmetry_equiv_pos_as_xyz
  1  'x, y, z'
loop_
 _atom_site_type_symbol
 _atom_site_label
 _atom_site_symmetry_multiplicity
 _atom_site_fract_x
 _atom_site_fract_y
 _atom_site_fract_z
 _atom_site_occupancy
 _atom_site_pbe_bader_charge
 _atom_site_pbe_bader_spin_density
 _atom_site_pbe_cm5_charge
 _atom_site_pbe_ddec_charge
 _atom_site_pbe_ddec_spin_density
 _atom_site_pbe_ddec_sum_bond_order
 _atom_site_pbe_magmom
Cd  Cd0  1  0.91529172  0.23649380  0.23650026  1  1.190893  4.2e-05  0.682778  0.749126  3.1e-05  2.467066  0.0
Cd  Cd1  1  0.38811235  0.76363328  0.76362383  1  1.185468  4.1e-05  0.683623  0.748771  3.1e-05  2.467643  0.0
Ni  Ni2  1  0.98430468  0.64805879  0.18563132  1  1.107785  1.526897  0.694616  0.536249  1.768161  2.862903  1.511
Ni  Ni3  1  0.81803327  0.35199457  0.81429135  1  1.107813  1.526153  0.695605  0.537041  1.766627  2.863498  1.51
Ni  Ni4  1  0.81803784  0.81428431  0.35200441  1  1.108031  1.526249  0.695541  0.536712  1.766767  2.86367  1.51
Ni  Ni5  1  0.98430257  0.18564797  0.64804342  1  1.107302  1.5269  0.694687  0.536535  1.768228  2.862628  1.511
H  H6  1  0.06818886  0.78867887  0.12298203  1  0.069368  0.000926  0.100997  0.072244  0.000163  1.032827  0.001
H  H7  1  0.27394595  0.79635649  0.10031581  1  0.046756  0.001502  0.09707  0.113065  0.000684  1.014748  0.001
H  H8  1  0.38415449  0.66632977  0.14070499  1  0.066561  0.001224  0.093852  0.108307  0.000492  1.045386  0.001
H  H9  1  0.26857820  0.42013894  0.25033267  1  0.058979  0.001545  0.099137  0.118742  0.000624  1.021305  0.001
H  H10  1  0.08579677  0.38304229  0.26927401  1  0.140989  0.001226  0.089545  0.125138  0.000581  1.056002  0.001
H  H11  1  0.94047132  0.50303586  0.23015129  1  0.083094  0.001399  0.109408  0.088055  0.000442  1.034099  0.001
H  H12  1  0.36402142  0.57929308  0.26617310  1  0.066607  2.6e-05  0.104397  0.106475  2e-06  0.992403  0.0
H  H13  1  0.54978249  0.51876889  0.27656701  1  0.09156  -2.2e-05  0.10625  0.114063  -4.2e-05  1.01264  0.0
H  H14  1  0.56508657  0.42366859  0.13521362  1  0.065746  2.2e-05  0.113578  0.123927  1.2e-05  0.990756  0.0
H  H15  1  0.37746314  0.48083786  0.12865491  1  0.070282  -1e-05  0.111395  0.115976  -1.9e-05  0.981586  0.0
H  H16  1  0.73247948  0.50426466  0.23059199  1  0.124975  -2.7e-05  0.112567  0.11208  -4.3e-05  1.074219  0.0
H  H17  1  0.91558733  0.39950458  0.23558435  1  0.142459  -3e-06  0.114676  0.115998  -2e-06  1.030072  0.0
H  H18  1  0.67983092  0.33662140  0.20220883  1  0.167863  1.2e-05  0.120545  0.096795  1e-05  1.049542  0.0
H  H19  1  0.86630273  0.31499879  0.95853172  1  0.07693  0.001282  0.110603  0.088008  0.00035  1.031726  0.001
H  H20  1  0.71879040  0.29288928  0.07903960  1  0.103999  0.001188  0.08855  0.117437  0.000555  1.060227  0.001
H  H21  1  0.53197597  0.31391825  0.04532835  1  0.084669  0.001468  0.100594  0.11998  0.00059  1.017267  0.001
H  H22  1  0.42974169  0.35366541  0.80946776  1  0.064059  0.0013  0.096414  0.115175  0.000548  1.033781  0.001
H  H23  1  0.53045127  0.39588874  0.67680625  1  0.054598  0.001538  0.094374  0.108919  0.00069  1.024548  0.001
H  H24  1  0.72291883  0.41057020  0.67662230  1  0.061236  0.000888  0.100791  0.07385  0.000173  1.033137  0.001
H  H25  1  0.49497686  0.22846347  0.99567083  1  0.084864  2.3e-05  0.102442  0.101418  5e-06  0.997596  0.0
H  H26  1  0.30970924  0.21404691  0.05256378  1  0.072624  4e-06  0.107171  0.111917  1e-06  0.999238  0.0
H  H27  1  0.19216289  0.42551929  0.94503331  1  0.089161  -3e-06  0.105042  0.112493  -4e-06  1.020541  0.0
H  H28  1  0.37704857  0.43855346  0.88623414  1  0.078702  -2e-06  0.100788  0.099221  -4e-06  1.036821  0.0
H  H29  1  0.04318771  0.37266560  0.95977669  1  0.124322  -1.6e-05  0.116745  0.115355  -2.7e-05  1.046424  0.0
H  H30  1  0.87800512  0.32688317  0.06708983  1  0.098275  -1e-06  0.117289  0.113376  5e-06  1.016884  0.0
H  H31  1  0.16191189  0.24711996  0.13843553  1  0.16361  2e-06  0.125659  0.094823  -1e-06  1.028958  0.0
H  H32  1  0.05461125  0.54476186  0.32788755  1  0.113436  0.002084  0.131798  0.103193  0.000727  0.991809  0.001
H  H33  1  0.86504225  0.78639349  0.08631351  1  0.132871  0.002088  0.133064  0.103694  0.000719  0.980396  0.001
H  H34  1  0.97957986  0.21129246  0.87705660  1  0.050331  0.00092  0.101221  0.072459  0.000161  1.032249  0.001
H  H35  1  0.17033726  0.20351905  0.89981179  1  0.055902  0.001491  0.097268  0.11358  0.000684  1.015101  0.001
H  H36  1  0.19122298  0.33351440  0.85920975  1  0.068918  0.001216  0.093632  0.107713  0.000492  1.045636  0.001
H  H37  1  0.93913789  0.57989293  0.74981876  1  0.058394  0.001536  0.099328  0.119359  0.000624  1.021147  0.001
H  H38  1  0.73824372  0.61705397  0.73077976  1  0.129022  0.001233  0.089439  0.124836  0.000582  1.055662  0.001
H  H39  1  0.67387139  0.49709382  0.76957880  1  0.108406  0.001406  0.109356  0.088359  0.000444  1.0335  0.001
H  H40  1  0.20967326  0.42060652  0.73384261  1  0.058905  2.6e-05  0.104264  0.106145  2e-06  0.992197  0.0
H  H41  1  0.34526935  0.48117012  0.72336117  1  0.084559  -2.3e-05  0.10653  0.114224  -4.3e-05  1.012592  0.0
H  H42  1  0.12424439  0.57630446  0.86469749  1  0.064305  2.2e-05  0.113743  0.124116  1.2e-05  0.990973  0.0
H  H43  1  0.98728985  0.51906738  0.87139628  1  0.102518  -1e-05  0.111125  0.115497  -1.9e-05  0.98121  0.0
H  H44  1  0.46766522  0.49589444  0.76951602  1  0.16425  -2.6e-05  0.112546  0.111594  -4.2e-05  1.072808  0.0
H  H45  1  0.55062807  0.60070832  0.76480750  1  0.149566  -3e-06  0.114809  0.115887  -2e-06  1.029533  0.0
H  H46  1  0.21863967  0.66344768  0.79768993  1  0.174467  1.1e-05  0.120661  0.097432  1e-05  1.049025  0.0
H  H47  1  0.13965900  0.68512550  0.04136074  1  0.089428  0.00128  0.111111  0.088881  0.000351  1.031675  0.001
H  H48  1  0.09057221  0.70708362  0.92088075  1  0.118357  0.001167  0.088647  0.11729  0.000555  1.060289  0.001
H  H49  1  0.89111680  0.68598348  0.95461983  1  0.093253  0.001461  0.100502  0.120352  0.00059  1.017089  0.001
H  H50  1  0.59295814  0.64614521  0.19045038  1  0.065856  0.001297  0.096303  0.114918  0.000544  1.033144  0.001
H  H51  1  0.60312764  0.60380524  0.32313488  1  0.061489  0.00152  0.094348  0.108856  0.000691  1.024379  0.001
H  H52  1  0.80996017  0.58944258  0.32340073  1  0.054176  0.000885  0.100742  0.07368  0.000171  1.032625  0.001
H  H53  1  0.71896783  0.77151797  0.00423168  1  0.069364  2.2e-05  0.102452  0.101486  5e-06  0.996925  0.0
H  H54  1  0.57612301  0.78579693  0.94742392  1  0.075724  4e-06  0.107095  0.112203  1e-06  0.999076  0.0
H  H55  1  0.56248758  0.57435184  0.05523138  1  0.113287  -3e-06  0.104956  0.112602  -4e-06  1.021675  0.0
H  H56  1  0.70161162  0.56147050  0.11400366  1  0.084509  -2e-06  0.100605  0.099242  -4e-06  1.037288  0.0
H  H57  1  0.37545960  0.62719724  0.04015196  1  0.131768  -1.6e-05  0.117298  0.1162  -2.7e-05  1.045245  0.0
H  H58  1  0.27184690  0.67331342  0.93275604  1  0.105113  -1e-06  0.117288  0.113195  5e-06  1.015852  0.0
H  H59  1  0.54771167  0.75265620  0.86166364  1  0.136582  2e-06  0.125351  0.095093  -1e-06  1.029086  0.0
H  H60  1  0.92735611  0.45516930  0.67230007  1  0.14061  0.002111  0.131911  0.103371  0.00073  0.992167  0.001
H  H61  1  0.73793678  0.21368830  0.91370983  1  0.14054  0.002094  0.133018  0.103633  0.000722  0.980436  0.001
H  H62  1  0.97961308  0.87705932  0.21131338  1  0.050238  0.000921  0.101289  0.072636  0.000161  1.031926  0.001
H  H63  1  0.17035160  0.89980980  0.20357477  1  0.05629  0.001491  0.0971  0.113363  0.000684  1.015095  0.001
H  H64  1  0.19119776  0.85920008  0.33357845  1  0.068594  0.001216  0.093648  0.107843  0.000491  1.045796  0.001
H  H65  1  0.93909054  0.74981510  0.57992149  1  0.058309  0.001535  0.099266  0.119321  0.000623  1.021433  0.001
H  H66  1  0.73819490  0.73079002  0.61706702  1  0.128868  0.001233  0.089391  0.124812  0.000581  1.055948  0.001
H  H67  1  0.67384673  0.76957089  0.49710212  1  0.108498  0.001405  0.109342  0.088387  0.000444  1.033588  0.001
H  H68  1  0.20963576  0.73381072  0.42066510  1  0.060675  2.6e-05  0.104184  0.106107  2e-06  0.992226  0.0
H  H69  1  0.34525222  0.72334567  0.48120654  1  0.084604  -2.3e-05  0.10648  0.114023  -4.3e-05  1.012774  0.0
H  H70  1  0.12424210  0.86471369  0.57630967  1  0.064602  2.2e-05  0.113671  0.123991  1.2e-05  0.990787  0.0
H  H71  1  0.98727887  0.87140121  0.51908578  1  0.089202  -1e-05  0.111148  0.115468  -1.9e-05  0.981386  0.0
H  H72  1  0.46766042  0.76953207  0.49589291  1  0.164306  -2.6e-05  0.112463  0.11146  -4.2e-05  1.072751  0.0
H  H73  1  0.55064392  0.76486124  0.60068016  1  0.148929  -4e-06  0.114836  0.115874  -2e-06  1.029539  0.0
H  H74  1  0.21865728  0.79772718  0.66344587  1  0.175067  1.2e-05  0.12066  0.09745  1e-05  1.048819  0.0
H  H75  1  0.13964637  0.04138746  0.68510065  1  0.089253  0.001279  0.111091  0.088812  0.000351  1.031901  0.001
H  H76  1  0.09056752  0.92089870  0.70707360  1  0.118705  0.001167  0.08859  0.117205  0.000555  1.060349  0.001
H  H77  1  0.89109221  0.95463284  0.68599892  1  0.095048  0.00146  0.100465  0.120388  0.000591  1.017043  0.001
H  H78  1  0.59293477  0.19048655  0.64614998  1  0.066134  0.001298  0.096331  0.115067  0.000545  1.033149  0.001
H  H79  1  0.60310949  0.32316781  0.60380061  1  0.061275  0.001519  0.094295  0.108693  0.000691  1.02453  0.001
H  H80  1  0.80995213  0.32343313  0.58941877  1  0.054011  0.000885  0.100652  0.07359  0.000171  1.032641  0.001
H  H81  1  0.71896359  0.00426470  0.77152067  1  0.068994  2.2e-05  0.102498  0.101584  5e-06  0.997017  0.0
H  H82  1  0.57613818  0.94744190  0.78579522  1  0.075283  4e-06  0.107133  0.112296  1e-06  0.999107  0.0
H  H83  1  0.56246192  0.05525856  0.57435867  1  0.113301  -3e-06  0.104979  0.112674  -4e-06  1.021565  0.0
H  H84  1  0.70157559  0.11404033  0.56147532  1  0.085407  -2e-06  0.10063  0.099285  -4e-06  1.03738  0.0
H  H85  1  0.37545676  0.04017569  0.62721682  1  0.131273  -1.6e-05  0.117213  0.116044  -2.7e-05  1.045386  0.0
H  H86  1  0.27185002  0.93278316  0.67331657  1  0.105041  -1e-06  0.117301  0.113256  5e-06  1.015889  0.0
H  H87  1  0.54771479  0.86167804  0.75266622  1  0.136532  2e-06  0.125348  0.095014  -1e-06  1.029074  0.0
H  H88  1  0.92734403  0.67228258  0.45517089  1  0.141121  0.00211  0.131915  0.10333  0.00073  0.992189  0.001
H  H89  1  0.73796484  0.91371594  0.21369351  1  0.140288  0.002092  0.133059  0.103733  0.000722  0.980599  0.001
H  H90  1  0.06817413  0.12300557  0.78867210  1  0.069451  0.000926  0.101047  0.072284  0.000163  1.032697  0.001
H  H91  1  0.27393076  0.10034620  0.79636536  1  0.046514  0.001502  0.096999  0.113028  0.000684  1.01451  0.001
H  H92  1  0.38415415  0.14072177  0.66634300  1  0.066379  0.001225  0.09382  0.10833  0.000493  1.045398  0.001
H  H93  1  0.26859468  0.25033399  0.42013401  1  0.058687  0.001545  0.099131  0.118718  0.000624  1.021372  0.001
H  H94  1  0.08581605  0.26927490  0.38302790  1  0.140762  0.001227  0.089535  0.125145  0.000581  1.055965  0.001
H  H95  1  0.94048913  0.23015585  0.50302236  1  0.083238  0.001399  0.109357  0.087908  0.000442  1.034372  0.001
H  H96  1  0.36401601  0.26616616  0.57930473  1  0.066777  2.6e-05  0.104373  0.106335  2e-06  0.992542  0.0
H  H97  1  0.54976942  0.27657081  0.51877754  1  0.091942  -2.2e-05  0.10627  0.114056  -4.2e-05  1.012621  0.0
H  H98  1  0.56509097  0.13522565  0.42366586  1  0.065965  2.2e-05  0.113594  0.123967  1.2e-05  0.990852  0.0
H  H99  1  0.37746351  0.12866434  0.48082756  1  0.070197  -1e-05  0.111386  0.116062  -1.9e-05  0.981526  0.0
H  H100  1  0.73245734  0.23061112  0.50426949  1  0.124271  -2.7e-05  0.112523  0.11188  -4.3e-05  1.074505  0.0
H  H101  1  0.91555931  0.23561257  0.39950700  1  0.142599  -3e-06  0.114596  0.115938  -2e-06  1.030231  0.0
H  H102  1  0.67981147  0.20222582  0.33662783  1  0.168494  1.2e-05  0.120486  0.096819  1e-05  1.049502  0.0
H  H103  1  0.86629977  0.95853174  0.31501350  1  0.076936  0.001281  0.11056  0.087957  0.00035  1.031863  0.001
H  H104  1  0.71877885  0.07904025  0.29288100  1  0.103888  0.001188  0.088523  0.117372  0.000555  1.060467  0.001
H  H105  1  0.53197084  0.04531762  0.31391167  1  0.085239  0.001467  0.100512  0.119908  0.00059  1.017231  0.001
H  H106  1  0.42973237  0.80947007  0.35369316  1  0.061029  0.001296  0.096519  0.115301  0.000548  1.033743  0.001
H  H107  1  0.53043135  0.67680485  0.39592203  1  0.054943  0.001538  0.094367  0.108888  0.00069  1.02438  0.001
H  H108  1  0.72292296  0.67661108  0.41057482  1  0.061259  0.000888  0.10076  0.073802  0.000172  1.033229  0.001
H  H109  1  0.49495117  0.99564545  0.22847221  1  0.085103  2.3e-05  0.102424  0.101395  5e-06  0.997995  0.0
H  H110  1  0.30969020  0.05254642  0.21405573  1  0.072672  4e-06  0.10705  0.111778  1e-06  0.999343  0.0
H  H111  1  0.19217329  0.94504687  0.42553893  1  0.089541  -3e-06  0.105166  0.112701  -4e-06  1.020638  0.0
H  H112  1  0.37705786  0.88625794  0.43857281  1  0.078701  -2e-06  0.100727  0.099225  -4e-06  1.03679  0.0
H  H113  1  0.04316364  0.95977607  0.37271740  1  0.123717  -1.6e-05  0.11677  0.115572  -2.7e-05  1.046136  0.0
H  H114  1  0.87797474  0.06708454  0.32692000  1  0.097683  -1e-06  0.117296  0.11324  5e-06  1.016784  0.0
H  H115  1  0.16187849  0.13842567  0.24712967  1  0.164367  2e-06  0.125585  0.094626  -1e-06  1.029324  0.0
H  H116  1  0.05464205  0.32788719  0.54476982  1  0.113611  0.002085  0.131667  0.103092  0.000728  0.991476  0.001
H  H117  1  0.86504598  0.08631055  0.78637746  1  0.132753  0.002087  0.133049  0.103633  0.000719  0.980609  0.001
H  H118  1  0.03042186  0.55785933  0.44223222  1  0.071528  0.002273  0.11748  0.124686  0.00112  0.987833  0.001
H  H119  1  0.75411107  0.89890049  0.10119448  1  0.106113  0.002073  0.122462  0.131239  0.001049  0.972854  0.001
H  H120  1  0.03046025  0.44223295  0.55787613  1  0.072908  0.002251  0.117515  0.124778  0.001121  0.987563  0.001
H  H121  1  0.75409396  0.10118645  0.89888680  1  0.106684  0.002071  0.12248  0.131295  0.001049  0.972908  0.001
C  C122  1  0.13541479  0.74645148  0.13410090  1  0.410963  -0.004035  0.006735  0.040582  -0.004997  3.992169  -0.002
C  C123  1  0.24288336  0.75020512  0.12223138  1  -0.005573  0.004157  -0.131225  -0.183107  0.002295  4.067069  0.003
C  C124  1  0.29911889  0.68347574  0.14341271  1  -0.11033  -0.00164  -0.120871  -0.203193  -0.002744  4.025071  0.0
C  C125  1  0.22373819  0.64058386  0.16792918  1  0.398501  0.001113  0.059128  0.119191  0.000565  4.057173  0.001
C  C126  1  0.24588223  0.56862692  0.19235416  1  -0.008178  0.000886  0.021922  -0.017275  0.000135  3.947154  0.001
C  C127  1  0.17323051  0.52688324  0.21148269  1  0.389739  0.002531  0.05925  0.112987  0.001812  4.071859  0.002
C  C128  1  0.19334946  0.45358854  0.23975085  1  -0.143288  -0.001825  -0.116901  -0.195918  -0.003168  3.999215  -0.001
C  C129  1  0.09929467  0.43451641  0.25057193  1  -0.07845  0.005508  -0.12564  -0.178411  0.003071  4.018058  0.004
C  C130  1  0.02373196  0.49631991  0.22938195  1  0.444891  -0.005817  0.019609  0.058625  -0.006881  3.93441  -0.003
C  C131  1  0.35761220  0.53370622  0.19729459  1  -0.02462  -0.000184  -0.004678  0.069481  -0.000184  4.005657  0.0
C  C132  1  0.40802431  0.54470938  0.23794404  1  -0.072992  3e-05  -0.084983  -0.112191  6e-06  3.989544  0.0
C  C133  1  0.51205202  0.51120764  0.24366604  1  -0.022151  -2.2e-05  -0.091315  -0.16375  -4e-05  3.989164  0.0
C  C134  1  0.56835435  0.46702481  0.20723093  1  0.328414  8e-06  0.096624  0.173841  1e-06  4.023217  0.0
C  C135  1  0.52022902  0.45650526  0.16521903  1  0.02336  2.4e-05  -0.087501  -0.16758  1.3e-05  3.982454  0.0
C  C136  1  0.41524759  0.48909607  0.16113850  1  -0.029559  1.4e-05  -0.081227  -0.111813  -1.6e-05  3.980259  0.0
C  C137  1  0.74926380  0.45466220  0.22563593  1  0.230385  2.7e-05  -0.013444  -0.127193  1.5e-05  3.929275  0.0
C  C138  1  0.83846572  0.40323438  0.22760730  1  0.436462  -3e-06  0.00011  -0.02114  -4e-06  3.994065  0.0
C  C139  1  0.71990949  0.36889832  0.20869923  1  0.944434  0.0  0.135646  0.091488  -2e-06  3.909422  0.0
C  C140  1  0.78190681  0.31820576  0.96589207  1  0.461588  -0.006614  0.024243  0.069577  -0.007922  3.919133  -0.004
C  C141  1  0.70434718  0.30791687  0.02827717  1  -0.084861  0.005916  -0.125847  -0.18093  0.003311  4.020422  0.004
C  C142  1  0.60928543  0.31696209  0.01133034  1  -0.049642  -0.002139  -0.115044  -0.190046  -0.003501  3.994094  -0.001
C  C143  1  0.63114409  0.33179556  0.93888777  1  0.346717  0.003412  0.061359  0.11712  0.002535  4.065092  0.003
C  C144  1  0.55864036  0.34264378  0.89987029  1  -0.03874  0.000838  0.025562  -0.01051  4.3e-05  3.938307  0.001
C  C145  1  0.57941249  0.36069069  0.82824672  1  0.391354  0.00127  0.059373  0.120381  0.000447  4.062744  0.001
C  C146  1  0.50826580  0.36534515  0.78910499  1  -0.075699  -4.3e-05  -0.121876  -0.209564  -0.00128  4.028054  0.0
C  C147  1  0.55989824  0.38687754  0.72111875  1  -0.076422  0.003791  -0.134958  -0.19168  0.002066  4.086672  0.003
C  C148  1  0.66077437  0.39398196  0.72078498  1  0.421354  -0.002121  0.000266  0.027553  -0.003234  4.005337  -0.001
C  C149  1  0.44857452  0.33440041  0.93652685  1  0.04231  -0.000165  -0.003807  0.072972  -0.000168  3.995204  0.0
C  C150  1  0.42852266  0.27161207  0.98458280  1  -0.142291  3.9e-05  -0.084709  -0.111359  6e-06  3.997085  0.0
C  C151  1  0.32499349  0.26351037  0.01687089  1  0.02068  7e-05  -0.09334  -0.170166  4e-05  4.000749  0.0
C  C152  1  0.23971474  0.31893143  0.00252802  1  0.320827  6.2e-05  0.099629  0.179024  3.7e-05  4.018238  0.0
C  C153  1  0.25832215  0.38206246  0.95526183  1  -0.010459  4e-05  -0.089621  -0.159979  2.2e-05  3.974393  0.0
C  C154  1  0.36205532  0.38924550  0.92240239  1  -0.049519  -8e-06  -0.082347  -0.102767  -2.7e-05  3.963563  0.0
C  C155  1  0.04226879  0.34045398  0.01238089  1  0.288953  -6e-06  -0.005263  -0.11013  -3e-05  3.9216  0.0
C  C156  1  0.96225220  0.31644693  0.06541265  1  0.426821  -1.6e-05  0.000593  -0.021717  -1.2e-05  4.000692  0.0
C  C157  1  0.10733778  0.27119537  0.10403925  1  0.981916  -3e-06  0.137939  0.096418  -7e-06  3.921516  0.0
C  C158  1  0.01240704  0.59196390  0.33804655  1  0.523502  -0.012588  0.080233  0.13907  -0.014239  3.877371  -0.008
C  C159  1  0.84969648  0.79671169  0.13342582  1  0.433316  -0.014299  0.082045  0.140051  -0.016164  3.881258  -0.01
C  C160  1  0.01581315  0.25349403  0.86587702  1  0.45118  -0.004005  0.006907  0.040506  -0.005006  3.99129  -0.002
C  C161  1  0.11517151  0.24969221  0.87778135  1  -0.096025  0.004203  -0.131286  -0.183914  0.002297  4.068028  0.003
C  C162  1  0.12599617  0.31640159  0.85652769  1  -0.04472  -0.001666  -0.120729  -0.201906  -0.002753  4.025572  -0.001
C  C163  1  0.03231121  0.35935843  0.83195934  1  0.382355  0.001133  0.058712  0.118196  0.000555  4.055996  0.001
C  C164  1  0.00697770  0.43133679  0.80759998  1  -0.071566  0.000899  0.022071  -0.018373  0.000134  3.946116  0.001
C  C165  1  0.91170281  0.47314387  0.78849779  1  0.401495  0.002586  0.05872  0.113164  0.001809  4.072795  0.002
C  C166  1  0.88680526  0.54644184  0.76032858  1  -0.13262  -0.001897  -0.116741  -0.196861  -0.003195  3.999524  -0.001
C  C167  1  0.78451306  0.56555801  0.74944727  1  -0.053846  0.005543  -0.125621  -0.177723  0.003075  4.016856  0.004
C  C168  1  0.74958917  0.50377248  0.77047482  1  0.439153  -0.005822  0.020113  0.059157  -0.006878  3.933242  -0.003
C  C169  1  0.08882097  0.46618682  0.80271745  1  -0.038361  -0.000185  -0.00526  0.0707  -0.000184  4.00122  0.0
C  C170  1  0.19087941  0.45521499  0.76205562  1  -0.010793  3e-05  -0.084368  -0.111427  6e-06  3.986228  0.0
C  C171  1  0.26712695  0.48876602  0.75627900  1  -0.006794  -2.3e-05  -0.091845  -0.164744  -4.2e-05  3.988662  0.0
C  C172  1  0.24284988  0.53299798  0.79266542  1  0.244051  9e-06  0.097688  0.174276  2e-06  4.023645  0.0
C  C173  1  0.14221924  0.54344660  0.83471198  1  0.035509  2.3e-05  -0.088393  -0.168528  1.3e-05  3.984519  0.0
C  C174  1  0.06575915  0.51080968  0.83886386  1  -0.027362  1.6e-05  -0.080947  -0.111909  -1.5e-05  3.979723  0.0
C  C175  1  0.42974661  0.54548725  0.77445547  1  0.222161  2.8e-05  -0.012701  -0.125737  1.5e-05  3.925866  0.0
C  C176  1  0.46931125  0.59692071  0.77262654  1  0.400841  -3e-06  -4.2e-05  -0.021503  -4e-06  3.992138  0.0
C  C177  1  0.29751215  0.63119592  0.79124456  1  0.940474  0.0  0.135743  0.089628  -2e-06  3.908492  0.0
C  C178  1  0.06587520  0.68185137  0.03401359  1  0.46857  -0.006603  0.024333  0.069067  -0.007909  3.921916  -0.004
C  C179  1  0.04041306  0.69205971  0.97165166  1  -0.103202  0.005928  -0.126179  -0.180068  0.003301  4.02255  0.004
C  C180  1  0.93748623  0.68297108  0.98861055  1  -0.097807  -0.00206  -0.114968  -0.191832  -0.003473  3.996469  -0.001
C  C181  1  0.90174444  0.66820887  0.06104805  1  0.404891  0.003422  0.061796  0.119169  0.002519  4.064677  0.003
C  C182  1  0.80109545  0.65737362  0.10009922  1  -0.033765  0.000835  0.024834  -0.012365  3.7e-05  3.937965  0.001
C  C183  1  0.76830021  0.63933928  0.17172148  1  0.350658  0.001234  0.05885  0.119303  0.000429  4.059805  0.001
C  C184  1  0.66272794  0.63453897  0.21084506  1  -0.105019  -0.000124  -0.121551  -0.207905  -0.00132  4.025571  0.0
C  C185  1  0.66788362  0.61294471  0.27884300  1  -0.050046  0.003819  -0.135173  -0.192899  0.002066  4.086428  0.003
C  C186  1  0.77548391  0.60597800  0.27920309  1  0.442789  -0.002204  0.000761  0.028701  -0.003265  4.002496  -0.001
C  C187  1  0.71938151  0.66558848  0.06350004  1  0.001459  -0.000166  -0.003249  0.074737  -0.000168  3.99338  0.0
C  C188  1  0.68458239  0.72833730  0.01539586  1  -0.035425  3.8e-05  -0.085221  -0.111326  5e-06  3.995783  0.0
C  C189  1  0.60522783  0.73636092  0.98314495  1  0.029782  6.9e-05  -0.09313  -0.170947  4e-05  4.002241  0.0
C  C190  1  0.56107054  0.68090632  0.99756221  1  0.273181  6.2e-05  0.099322  0.177806  3.6e-05  4.018608  0.0
C  C191  1  0.59547599  0.61782018  0.04491244  1  -0.013614  4e-05  -0.089428  -0.15908  2.3e-05  3.972265  0.0
C  C192  1  0.67352482  0.61072751  0.07774242  1  -0.080826  -9e-06  -0.08224  -0.103891  -2.8e-05  3.962048  0.0
C  C193  1  0.39502385  0.65945741  0.98757836  1  0.281412  -7e-06  -0.006213  -0.111691  -3e-05  3.922575  0.0
C  C194  1  0.34405110  0.68360720  0.93452549  1  0.428411  -1.6e-05  0.000438  -0.022284  -1.2e-05  4.000852  0.0
C  C195  1  0.48271294  0.72866124  0.89599911  1  0.998668  -3e-06  0.137782  0.095654  -7e-06  3.921713  0.0
C  C196  1  0.94244130  0.40802077  0.66204813  1  0.543149  -0.012635  0.080005  0.138232  -0.014282  3.877587  -0.008
C  C197  1  0.77987918  0.20335759  0.86658041  1  0.509378  -0.014357  0.081886  0.139945  -0.01616  3.881241  -0.01
C  C198  1  0.01583020  0.86586946  0.25352530  1  0.450508  -0.004001  0.006838  0.04029  -0.005002  3.990777  -0.002
C  C199  1  0.11517955  0.87777428  0.24974057  1  -0.092956  0.004204  -0.131092  -0.183531  0.002297  4.067604  0.003
C  C200  1  0.12598968  0.85651716  0.31645068  1  -0.046386  -0.001665  -0.120713  -0.202227  -0.00275  4.02624  -0.001
C  C201  1  0.03230096  0.83195194  0.35938990  1  0.383058  0.001131  0.058754  0.118422  0.000554  4.056369  0.001
C  C202  1  0.00694725  0.80758732  0.43136868  1  -0.071978  0.000899  0.021895  -0.018884  0.000135  3.94573  0.001
C  C203  1  0.91167403  0.78848186  0.47317412  1  0.400601  0.002586  0.058978  0.113921  0.001808  4.072411  0.002
C  C204  1  0.88675964  0.76032346  0.54647502  1  -0.134479  -0.001892  -0.116819  -0.197276  -0.003192  4.000243  -0.001
C  C205  1  0.78447712  0.74944547  0.56558048  1  -0.052781  0.005542  -0.125532  -0.177423  0.003074  4.017207  0.004
C  C206  1  0.74956596  0.77046716  0.50378685  1  0.438812  -0.005824  0.019977  0.058807  -0.006881  3.933681  -0.003
C  C207  1  0.08879861  0.80269861  0.46622769  1  -0.038252  -0.000185  -0.005174  0.070505  -0.000184  4.001599  0.0
C  C208  1  0.19085383  0.76203063  0.45526047  1  -0.011852  3e-05  -0.084517  -0.111558  6e-06  3.98618  0.0
C  C209  1  0.26710758  0.75626601  0.48879706  1  -0.006977  -2.2e-05  -0.091787  -0.164415  -4.1e-05  3.988441  0.0
C  C210  1  0.24284170  0.79267186  0.53301197  1  0.243837  9e-06  0.097602  0.174239  2e-06  4.023273  0.0
C  C211  1  0.14220425  0.83472147  0.54345982  1  0.034558  2.3e-05  -0.088375  -0.168513  1.3e-05  3.984301  0.0
C  C212  1  0.06573982  0.83886242  0.51083438  1  -0.013492  1.6e-05  -0.080848  -0.111556  -1.5e-05  3.980376  0.0
C  C213  1  0.42975003  0.77447838  0.54548702  1  0.223745  2.8e-05  -0.012622  -0.125559  1.5e-05  3.925942  0.0
C  C214  1  0.46931870  0.77266737  0.59690275  1  0.399177  -3e-06  -0.00018  -0.021612  -4e-06  3.992297  0.0
C  C215  1  0.29752612  0.79128889  0.63118682  1  0.940372  0.0  0.135864  0.089848  -2e-06  3.907542  0.0
C  C216  1  0.06587282  0.03403507  0.68183332  1  0.468999  -0.006604  0.024354  0.069167  -0.007908  3.921817  -0.004
C  C217  1  0.04040572  0.97167590  0.69205045  1  -0.103085  0.005928  -0.126167  -0.180047  0.0033  4.022258  0.004
C  C218  1  0.93746719  0.98863291  0.68297461  1  -0.099843  -0.002059  -0.114885  -0.191763  -0.003474  3.996265  -0.001
C  C219  1  0.90173024  0.06107095  0.66820447  1  0.405923  0.00342  0.061723  0.118859  0.002522  4.064699  0.003
C  C220  1  0.80107994  0.10012456  0.65737242  1  -0.034586  0.000837  0.024811  -0.012158  3.8e-05  3.937673  0.001
C  C221  1  0.76828876  0.17174614  0.63933211  1  0.352858  0.001228  0.058701  0.119105  0.000428  4.059526  0.001
C  C222  1  0.66270986  0.21087798  0.63453628  1  -0.10538  -0.000119  -0.121592  -0.20817  -0.001316  4.025511  0.0
C  C223  1  0.66786331  0.27887477  0.61293719  1  -0.050134  0.003819  -0.135047  -0.192405  0.002065  4.086213  0.003
C  C224  1  0.77547130  0.27923192  0.60596183  1  0.442093  -0.002198  0.000845  0.028431  -0.003264  4.002853  -0.001
C  C225  1  0.71935897  0.06353283  0.66559330  1  -0.001406  -0.000166  -0.003317  0.074787  -0.000168  3.993256  0.0
C  C226  1  0.68457703  0.01542401  0.72833767  1  -0.032612  3.8e-05  -0.085204  -0.111492  5e-06  3.996353  0.0
C  C227  1  0.60523299  0.98316457  0.73636417  1  0.028469  6.9e-05  -0.093216  -0.17109  4e-05  4.002469  0.0
C  C228  1  0.56107123  0.99758013  0.68090880  1  0.275391  6.2e-05  0.099453  0.178129  3.6e-05  4.01874  0.0
C  C229  1  0.59545997  0.04493460  0.61782730  1  -0.012968  4e-05  -0.089426  -0.159289  2.2e-05  3.972593  0.0
C  C230  1  0.67350127  0.07777176  0.61072903  1  -0.080212  -9e-06  -0.082214  -0.103882  -2.8e-05  3.96211  0.0
C  C231  1  0.39502484  0.98759885  0.65946275  1  0.280258  -7e-06  -0.006086  -0.111335  -3e-05  3.922426  0.0
C  C232  1  0.34405299  0.93454689  0.68361032  1  0.429813  -1.6e-05  0.000434  -0.022416  -1.2e-05  4.00094  0.0
C  C233  1  0.48271732  0.89601370  0.72866831  1  0.999076  -3e-06  0.138152  0.096256  -7e-06  3.922015  0.0
C  C234  1  0.94244008  0.66203102  0.40802398  1  0.542573  -0.012636  0.079946  0.138043  -0.014278  3.877799  -0.008
C  C235  1  0.77990120  0.86659622  0.20335340  1  0.509175  -0.014361  0.082069  0.139916  -0.016163  3.881706  -0.01
C  C236  1  0.13540616  0.13412144  0.74644568  1  0.410498  -0.004039  0.00668  0.040577  -0.005002  3.99185  -0.002
C  C237  1  0.24287637  0.12225585  0.75020761  1  -0.006074  0.004157  -0.131238  -0.183097  0.002295  4.066971  0.003
C  C238  1  0.29911602  0.14342906  0.68348106  1  -0.108988  -0.001643  -0.12082  -0.203225  -0.002746  4.025118  0.0
C  C239  1  0.22373887  0.16793991  0.64057846  1  0.398393  0.001114  0.059077  0.119019  0.000566  4.057035  0.001
C  C240  1  0.24588464  0.19235472  0.56862237  1  -0.008582  0.000887  0.02186  -0.017309  0.000136  3.947396  0.001
C  C241  1  0.17323102  0.21148811  0.52688014  1  0.342647  0.002585  0.059227  0.112998  0.001814  4.072309  0.002
C  C242  1  0.19336591  0.23975122  0.45358721  1  -0.096064  -0.001878  -0.116855  -0.195819  -0.00317  3.999239  -0.001
C  C243  1  0.09930868  0.25057383  0.43450867  1  -0.07833  0.005511  -0.125633  -0.178484  0.003072  4.018278  0.004
C  C244  1  0.02374337  0.22938454  0.49631275  1  0.445163  -0.00582  0.019679  0.058825  -0.006886  3.934925  -0.003
C  C245  1  0.35761856  0.19729192  0.53371103  1  -0.02485  -0.000184  -0.004692  0.069422  -0.000185  4.00545  0.0
C  C246  1  0.40802317  0.23794008  0.54472115  1  -0.073313  3e-05  -0.08499  -0.112035  6e-06  3.989336  0.0
C  C247  1  0.51204942  0.24366683  0.51121756  1  -0.022143  -2.2e-05  -0.091251  -0.163692  -4e-05  3.988871  0.0
C  C248  1  0.56834688  0.20723259  0.46703232  1  0.3268  8e-06  0.09652  0.173846  1e-06  4.023101  0.0
C  C249  1  0.52023222  0.16522302  0.45650831  1  0.023294  2.4e-05  -0.087529  -0.16773  1.3e-05  3.982639  0.0
C  C250  1  0.41525262  0.16114031  0.48909637  1  -0.029352  1.4e-05  -0.081149  -0.111794  -1.6e-05  3.980301  0.0
C  C251  1  0.74924809  0.22565523  0.45466783  1  0.230711  2.7e-05  -0.013284  -0.126684  1.5e-05  3.929426  0.0
C  C252  1  0.83844319  0.22763001  0.40323971  1  0.435564  -3e-06  -8e-06  -0.021499  -4e-06  3.994312  0.0
C  C253  1  0.71988968  0.20871865  0.36890243  1  0.943512  0.0  0.135836  0.09147  -2e-06  3.909086  0.0
C  C254  1  0.78190427  0.96589243  0.31821377  1  0.46125  -0.006617  0.02427  0.069657  -0.007924  3.919107  -0.004
C  C255  1  0.70433757  0.02827596  0.30791583  1  -0.084614  0.005914  -0.125815  -0.180897  0.00331  4.020813  0.004
C  C256  1  0.60928453  0.01132574  0.31695869  1  -0.050164  -0.002141  -0.114972  -0.189966  -0.003503  3.994184  -0.001
C  C257  1  0.63114494  0.93888295  0.33180099  1  0.346605  0.003411  0.06132  0.117055  0.002533  4.064976  0.003
C  C258  1  0.55864227  0.89986466  0.34265127  1  -0.03851  0.000836  0.025577  -0.01059  4.2e-05  3.93809  0.001
C  C259  1  0.57941469  0.82823989  0.36069817  1  0.391985  0.001266  0.059359  0.120403  0.000446  4.062613  0.001
C  C260  1  0.50825734  0.78909975  0.36536634  1  -0.073245  -4.6e-05  -0.122065  -0.209774  -0.001286  4.028361  0.0
C  C261  1  0.55988438  0.72111554  0.38689844  1  -0.076441  0.00379  -0.134838  -0.191458  0.002066  4.086748  0.003
C  C262  1  0.66077371  0.72077628  0.39399031  1  0.420849  -0.002128  0.000223  0.02734  -0.003241  4.005561  -0.001
C  C263  1  0.44857388  0.93652481  0.33440754  1  0.042043  -0.000165  -0.003749  0.073283  -0.000167  3.995239  0.0
C  C264  1  0.42851617  0.98456657  0.27162133  1  -0.143866  3.9e-05  -0.08485  -0.111579  5e-06  3.997787  0.0
C  C265  1  0.32498117  0.01685638  0.26352254  1  0.021485  7e-05  -0.093028  -0.169786  4e-05  4.000606  0.0
C  C266  1  0.23970485  0.00252189  0.31894974  1  0.321223  6.2e-05  0.099445  0.178775  3.7e-05  4.018341  0.0
C  C267  1  0.25832143  0.95526668  0.38208080  1  -0.011804  4e-05  -0.089507  -0.160109  2.2e-05  3.974819  0.0
C  C268  1  0.36206191  0.92241198  0.38925939  1  -0.048506  -9e-06  -0.082389  -0.102932  -2.8e-05  3.963373  0.0
C  C269  1  0.04225214  0.01237686  0.34049271  1  0.290205  -6e-06  -0.005289  -0.110752  -3e-05  3.921138  0.0
C  C270  1  0.96222759  0.06540787  0.31648482  1  0.426498  -1.6e-05  0.000695  -0.021226  -1.2e-05  3.999661  0.0
C  C271  1  0.10731021  0.10403014  0.27121307  1  0.981874  -3e-06  0.138008  0.096645  -7e-06  3.921928  0.0
C  C272  1  0.01241523  0.33804536  0.59197766  1  0.522419  -0.012586  0.080381  0.139315  -0.014241  3.876576  -0.008
C  C273  1  0.84969096  0.13343149  0.79669180  1  0.434272  -0.014307  0.081999  0.140175  -0.016164  3.881175  -0.01
C  C274  1  0.99877465  0.59960332  0.40044536  1  -0.04063  0.006656  -0.071506  -0.170696  0.003583  3.937416  0.006
C  C275  1  0.91988478  0.70169662  0.29829159  1  1.078335  -0.010406  0.262581  0.269169  -0.012638  3.968148  -0.006
C  C276  1  0.87594837  0.75777060  0.24221930  1  1.109975  -0.011945  0.264403  0.273297  -0.014397  3.958538  -0.008
C  C277  1  0.79019094  0.85827974  0.14177924  1  0.036855  0.007024  -0.067666  -0.166751  0.0038  3.933552  0.006
C  C278  1  0.99879101  0.40044901  0.59961662  1  -0.039613  0.006658  -0.071607  -0.171004  0.003586  3.936698  0.006
C  C279  1  0.91986716  0.29829299  0.70170075  1  1.079285  -0.010402  0.262456  0.269163  -0.012632  3.96869  -0.006
C  C280  1  0.87593245  0.24222878  0.75775690  1  1.110709  -0.011946  0.264439  0.273492  -0.014399  3.958605  -0.008
C  C281  1  0.79017251  0.14177635  0.85826840  1  0.034847  0.007035  -0.067568  -0.166829  0.003804  3.933067  0.006
N  N282  1  0.12328588  0.68160304  0.16107255  1  -1.186768  0.084335  -0.360177  -0.304455  0.049629  3.553492  0.075
N  N283  1  0.06659326  0.55105679  0.20657285  1  -1.183275  0.096984  -0.36696  -0.298534  0.056819  3.577992  0.085
N  N284  1  0.67392675  0.43240912  0.21308728  1  -1.265491  1e-06  -0.230636  0.000966  -2e-06  3.804809  0.0
N  N285  1  0.81849057  0.35053752  0.21740148  1  -1.193497  4e-06  -0.347521  -0.258727  -1e-06  3.508074  0.0
N  N286  1  0.73942484  0.33229990  0.91284827  1  -1.198439  0.094471  -0.360516  -0.298052  0.055244  3.558042  0.083
N  N287  1  0.67339709  0.37806121  0.78431319  1  -1.172991  0.082048  -0.357342  -0.304765  0.04838  3.530746  0.073
N  N288  1  0.13502190  0.31065983  0.03736378  1  -1.256488  -6e-06  -0.227124  0.007514  -1.4e-05  3.796245  0.0
N  N289  1  0.00403945  0.27371539  0.12187604  1  -1.228515  7e-06  -0.349429  -0.265674  1e-06  3.520554  0.0
N  N290  1  0.89286472  0.74644457  0.18383240  1  -1.165057  0.059433  -0.294883  -0.236227  0.035825  3.514721  0.055
N  N291  1  0.97255980  0.64333376  0.28687908  1  -1.177742  0.060076  -0.293137  -0.23745  0.036164  3.507168  0.055
N  N292  1  0.96594209  0.31836115  0.83882492  1  -1.182752  0.084135  -0.360334  -0.303886  0.049536  3.552792  0.075
N  N293  1  0.82434747  0.44901327  0.79327032  1  -1.176318  0.096928  -0.366969  -0.299123  0.056836  3.577596  0.085
N  N294  1  0.31959860  0.56768693  0.78680932  1  -1.280031  1e-06  -0.231442  0.002612  -2e-06  3.801059  0.0
N  N295  1  0.38631444  0.64959327  0.78273524  1  -1.187969  4e-06  -0.347758  -0.258618  -2e-06  3.506273  0.0
N  N296  1  0.98445728  0.66778079  0.08706392  1  -1.188307  0.094415  -0.360896  -0.298569  0.055291  3.560507  0.083
N  N297  1  0.83570058  0.62201385  0.21568557  1  -1.194488  0.08206  -0.357072  -0.304477  0.048349  3.528937  0.073
N  N298  1  0.48307314  0.68911957  0.96267460  1  -1.285107  -6e-06  -0.226071  0.009164  -1.4e-05  3.796672  0.0
N  N299  1  0.39969013  0.72630192  0.87810750  1  -1.207352  6e-06  -0.348985  -0.263855  1e-06  3.521208  0.0
N  N300  1  0.82312953  0.25360569  0.81612158  1  -1.205113  0.05958  -0.29524  -0.236598  0.035879  3.515359  0.055
N  N301  1  0.90274105  0.35664085  0.71315049  1  -1.182223  0.060171  -0.293197  -0.236194  0.036256  3.508384  0.055
N  N302  1  0.96594562  0.83881949  0.31838384  1  -1.182757  0.084147  -0.360486  -0.303952  0.049544  3.553238  0.075
N  N303  1  0.82433262  0.79325477  0.44903264  1  -1.175872  0.096915  -0.366809  -0.298947  0.056831  3.577616  0.085
N  N304  1  0.31960323  0.78683562  0.56768707  1  -1.279929  1e-06  -0.2312  0.002677  -2e-06  3.800798  0.0
N  N305  1  0.38633101  0.78279088  0.64957411  1  -1.186861  4e-06  -0.347877  -0.258823  -1e-06  3.505644  0.0
N  N306  1  0.98444678  0.08708717  0.66776723  1  -1.189696  0.094428  -0.360805  -0.298512  0.055294  3.560276  0.083
N  N307  1  0.83568982  0.21570963  0.62199678  1  -1.195094  0.082062  -0.356986  -0.304195  0.048353  3.528873  0.073
N  N308  1  0.48307914  0.96268731  0.68912725  1  -1.286677  -6e-06  -0.226369  0.008693  -1.4e-05  3.796947  0.0
N  N309  1  0.39969578  0.87812575  0.72630463  1  -1.207485  6e-06  -0.349299  -0.264325  1e-06  3.521511  0.0
N  N310  1  0.82315081  0.81613168  0.25359996  1  -1.205407  0.05958  -0.295309  -0.236437  0.035879  3.515574  0.055
N  N311  1  0.90275232  0.71314292  0.35664343  1  -1.181514  0.06016  -0.293205  -0.235901  0.036247  3.508055  0.055
N  N312  1  0.12328601  0.16107994  0.68159229  1  -1.186353  0.084354  -0.360034  -0.304317  0.049639  3.553179  0.075
N  N313  1  0.06659958  0.20658123  0.55105186  1  -1.183218  0.096978  -0.366952  -0.298611  0.056816  3.578261  0.085
N  N314  1  0.67391301  0.21309965  0.43241733  1  -1.263856  1e-06  -0.230586  0.000865  -2e-06  3.804611  0.0
N  N315  1  0.81846710  0.21742758  0.35053897  1  -1.192988  5e-06  -0.347596  -0.258504  -1e-06  3.507901  0.0
N  N316  1  0.73942887  0.91284212  0.33231153  1  -1.197992  0.094469  -0.360497  -0.297968  0.055244  3.557622  0.083
N  N317  1  0.67340839  0.78430357  0.37805907  1  -1.172992  0.08204  -0.357278  -0.304504  0.048374  3.530622  0.073
N  N318  1  0.13500303  0.03735793  0.31068449  1  -1.256407  -6e-06  -0.227261  0.007711  -1.4e-05  3.795645  0.0
N  N319  1  0.00401226  0.12186854  0.27373747  1  -1.228848  7e-06  -0.349392  -0.265756  1e-06  3.520237  0.0
N  N320  1  0.89286192  0.18383949  0.74642937  1  -1.165898  0.059448  -0.294861  -0.236386  0.035834  3.514683  0.055
N  N321  1  0.97255042  0.28687883  0.64334007  1  -1.178231  0.060062  -0.293097  -0.237489  0.036161  3.507145  0.055
Cl  Cl322  1  0.75764304  0.21008467  0.21011850  1  -0.742071  0.000449  -0.426199  -0.622201  0.000238  0.901155  0.0
Cl  Cl323  1  0.07056208  0.26500704  0.26500124  1  -0.748209  0.000474  -0.419722  -0.626796  0.000252  0.913232  0.0
Cl  Cl324  1  0.17763318  0.78993827  0.78994509  1  -0.73362  0.000451  -0.426186  -0.622458  0.00024  0.900881  0.0
Cl  Cl325  1  0.60059281  0.73506079  0.73504506  1  -0.752994  0.000481  -0.420115  -0.627542  0.000256  0.912583  0.0
