# generated using pymatgen
data_ZnH22C16(NO)4
_symmetry_space_group_name_H-M   'P 1'
_cell_length_a   6.64805160
_cell_length_b   14.45590281
_cell_length_c   20.58240437
_cell_angle_alpha   90.00011350
_cell_angle_beta   89.99981864
_cell_angle_gamma   89.99982138
_symmetry_Int_Tables_number   1
_chemical_formula_structural   ZnH22C16(NO)4
_chemical_formula_sum   'Zn4 H88 C64 N16 O16'
_cell_volume   1978.04290662
_cell_formula_units_Z   4
loop_
 _symmetry_equiv_pos_site_id
 _symmetry_equiv_pos_as_xyz
  1  'x, y, z'
loop_
 _atom_site_type_symbol
 _atom_site_label
 _atom_site_symmetry_multiplicity
 _atom_site_fract_x
 _atom_site_fract_y
 _atom_site_fract_z
 _atom_site_occupancy
 _atom_site_pbe_bader_charge
 _atom_site_pbe_bader_spin_density
 _atom_site_pbe_cm5_charge
 _atom_site_pbe_ddec_charge
 _atom_site_pbe_ddec_spin_density
 _atom_site_pbe_ddec_sum_bond_order
 _atom_site_pbe_magmom
Zn  Zn0  1  0.84035190  0.48467308  0.80856872  1  1.242448  0  0.682831  0.764679  0  2.409034  0
Zn  Zn1  1  0.65965169  0.51533129  0.30857186  1  1.242405  0  0.682787  0.764567  0  2.409141  0
Zn  Zn2  1  0.15965213  0.98466986  0.69143200  1  1.242428  0  0.68285  0.764671  0  2.409006  0
Zn  Zn3  1  0.34035286  0.01532939  0.19142888  1  1.242419  0  0.682826  0.764657  0  2.408972  0
H  H4  1  0.19018017  0.40626117  0.71509109  1  0.182329  0  0.138802  0.114956  0  1.007525  0
H  H5  1  0.89218547  0.28494641  0.87441655  1  0.130209  0  0.122113  0.118105  0  1.034207  0
H  H6  1  0.15141875  0.15507744  0.82029584  1  0.160785  0  0.124211  0.125751  0  1.059081  0
H  H7  1  0.35569858  0.25510128  0.66597225  1  0.077174  0  0.116254  0.09582  0  0.965055  0
H  H8  1  0.35008049  0.15359679  0.71436885  1  0.120804  0  0.115757  0.102336  0  1.016157  0
H  H9  1  0.61713248  0.32401629  0.73996838  1  0.114104  0  0.116114  0.108692  0  1.000826  0
H  H10  1  0.59471694  0.22968743  0.79323615  1  0.122756  0  0.124236  0.119483  0  0.96725  0
H  H11  1  0.78081720  0.08131396  0.76804696  1  0.148516  0  0.142567  0.114569  0  0.997276  0
H  H12  1  0.78847208  0.29108205  0.62458816  1  0.127515  0  0.126047  0.127862  0  1.007682  0
H  H13  1  0.06828124  0.15321567  0.59268496  1  0.140462  0  0.12324  0.121339  0  0.996655  0
H  H14  1  0.05045008  0.49423354  0.13305184  1  0.038267  0  0.09061  0.103987  0  1.0025  0
H  H15  1  0.87964790  0.56457577  0.08898325  1  0.011158  0  0.092203  0.100103  0  0.98502  0
H  H16  1  0.83840339  0.35348073  0.09765800  1  0.017912  0  0.085259  0.072866  0  1.021891  0
H  H17  1  0.68638739  0.43006679  0.05273238  1  0.022682  0  0.089716  0.086809  0  1.014902  0
H  H18  1  0.00538460  0.47503012  0.98899898  1  0.011041  0  0.083097  0.074108  0  1.000161  0
H  H19  1  0.91939719  0.36112164  0.97742447  1  0.007413  0  0.087654  0.080591  0  0.995726  0
H  H20  1  0.25742558  0.41210008  0.07303537  1  0.003686  0  0.08199  0.077193  0  1.002664  0
H  H21  1  0.16318789  0.30011058  0.05705081  1  0.006165  0  0.084398  0.075656  0  1.017012  0
H  H22  1  0.27941152  0.31371236  0.94084012  1  0.016528  0  0.083319  0.074232  0  1.021626  0
H  H23  1  0.47689013  0.32270516  0.99727609  1  0.012429  0  0.087319  0.07965  0  0.996285  0
H  H24  1  0.27261504  0.48559923  0.92718684  1  0.028582  0  0.096238  0.111103  0  0.99476  0
H  H25  1  0.45934159  0.49892729  0.98683527  1  0.041562  0  0.093745  0.106358  0  0.988656  0
H  H26  1  0.30982007  0.59373884  0.21509176  1  0.182267  0  0.13881  0.115036  0  1.007481  0
H  H27  1  0.60781296  0.71505883  0.37441565  1  0.130473  0  0.122112  0.118096  0  1.034225  0
H  H28  1  0.34857895  0.84492769  0.32029295  1  0.160944  0  0.124203  0.125744  0  1.058984  0
H  H29  1  0.14430064  0.74489998  0.16597136  1  0.077158  0  0.116257  0.095833  0  0.964989  0
H  H30  1  0.14991675  0.84640460  0.21436811  1  0.120804  0  0.115781  0.102356  0  1.01606  0
H  H31  1  0.88287480  0.67598236  0.23997006  1  0.11423  0  0.116135  0.108748  0  1.000749  0
H  H32  1  0.90527778  0.77031551  0.29323600  1  0.122768  0  0.124206  0.119482  0  0.967193  0
H  H33  1  0.71918228  0.91868407  0.26804381  1  0.147967  0  0.142569  0.114691  0  0.997144  0
H  H34  1  0.71152581  0.70891213  0.12458715  1  0.127472  0  0.126034  0.127772  0  1.007762  0
H  H35  1  0.43172473  0.84677639  0.09268344  1  0.141129  0  0.123205  0.121322  0  0.9967  0
H  H36  1  0.44954195  0.50577108  0.63305543  1  0.038183  0  0.090604  0.104011  0  1.002551  0
H  H37  1  0.62032928  0.43542178  0.58898561  1  0.021825  0  0.092178  0.100062  0  0.985018  0
H  H38  1  0.66159777  0.64651754  0.59765820  1  0.017956  0  0.0853  0.072941  0  1.021843  0
H  H39  1  0.81360970  0.56992582  0.55273329  1  0.022677  0  0.089706  0.086776  0  1.014996  0
H  H40  1  0.49461294  0.52496924  0.48899936  1  0.011022  0  0.083096  0.074084  0  1.000162  0
H  H41  1  0.58061075  0.63887557  0.47742495  1  0.007436  0  0.087663  0.080613  0  0.99571  0
H  H42  1  0.24257457  0.58790369  0.57303540  1  0.003734  0  0.081997  0.077184  0  1.002656  0
H  H43  1  0.33681993  0.69989107  0.55705090  1  0.006044  0  0.084439  0.075712  0  1.016934  0
H  H44  1  0.22059702  0.68628964  0.44083955  1  0.016455  0  0.083326  0.074225  0  1.021711  0
H  H45  1  0.02311786  0.67729907  0.49727620  1  0.012449  0  0.087348  0.079662  0  0.996289  0
H  H46  1  0.22738762  0.51440066  0.42718893  1  0.0286  0  0.096231  0.111057  0  0.994803  0
H  H47  1  0.04065597  0.50107829  0.48683754  1  0.041636  0  0.093768  0.106412  0  0.988652  0
H  H48  1  0.80982438  0.90626002  0.78491389  1  0.182375  0  0.138823  0.115014  0  1.007461  0
H  H49  1  0.10782590  0.78494794  0.62558778  1  0.130448  0  0.122147  0.118197  0  1.034215  0
H  H50  1  0.84858897  0.65508010  0.67970440  1  0.160762  0  0.124216  0.125786  0  1.05901  0
H  H51  1  0.64429945  0.75509635  0.83402717  1  0.077226  0  0.116279  0.095885  0  0.965014  0
H  H52  1  0.64992272  0.65359449  0.78562847  1  0.120754  0  0.115795  0.102427  0  1.016101  0
H  H53  1  0.38287713  0.82401570  0.76002823  1  0.11429  0  0.116135  0.108734  0  1.000752  0
H  H54  1  0.40528727  0.72968528  0.70676226  1  0.122704  0  0.124213  0.119493  0  0.967177  0
H  H55  1  0.21918500  0.58131630  0.73195221  1  0.14829  0  0.142596  0.114637  0  0.997294  0
H  H56  1  0.21153173  0.79108341  0.87541082  1  0.127452  0  0.12606  0.127866  0  1.007741  0
H  H57  1  0.93172349  0.65322090  0.90731334  1  0.141143  0  0.123173  0.121244  0  0.996624  0
H  H58  1  0.94953776  0.99422065  0.36694328  1  0.038129  0  0.090616  0.103981  0  1.002533  0
H  H59  1  0.12031872  0.06457340  0.41101028  1  0.011284  0  0.092243  0.100142  0  0.985094  0
H  H60  1  0.16160644  0.85347877  0.40234469  1  0.017737  0  0.085233  0.072807  0  1.021987  0
H  H61  1  0.31360689  0.93007511  0.44726653  1  0.022671  0  0.089677  0.08674  0  1.015025  0
H  H62  1  0.99460896  0.97503211  0.51099930  1  0.011018  0  0.083089  0.074063  0  1.000179  0
H  H63  1  0.08060465  0.86112639  0.52257558  1  0.007577  0  0.087675  0.080617  0  0.995717  0
H  H64  1  0.74257635  0.91209319  0.42696304  1  0.00375  0  0.082009  0.077191  0  1.002608  0
H  H65  1  0.83681929  0.80010705  0.44295132  1  0.006041  0  0.084442  0.075706  0  1.016972  0
H  H66  1  0.72058612  0.81371212  0.55915987  1  0.01653  0  0.083319  0.074203  0  1.021632  0
H  H67  1  0.52311046  0.82270436  0.50272294  1  0.012402  0  0.087352  0.079655  0  0.996371  0
H  H68  1  0.72738146  0.98559901  0.57281292  1  0.028625  0  0.096261  0.111129  0  0.994736  0
H  H69  1  0.54065331  0.99892649  0.51316353  1  0.041589  0  0.093738  0.106346  0  0.988659  0
H  H70  1  0.69018697  0.09373875  0.28490958  1  0.182295  0  0.138814  0.115032  0  1.007469  0
H  H71  1  0.39218124  0.21505805  0.12558441  1  0.130477  0  0.122142  0.118119  0  1.034024  0
H  H72  1  0.65141890  0.34492807  0.17970633  1  0.160994  0  0.124171  0.125621  0  1.058863  0
H  H73  1  0.85569938  0.24490670  0.33402826  1  0.077058  0  0.116296  0.095919  0  0.96498  0
H  H74  1  0.85008862  0.34640705  0.28562680  1  0.120895  0  0.115811  0.102478  0  1.015918  0
H  H75  1  0.11713020  0.17598097  0.26003334  1  0.114052  0  0.116128  0.108717  0  1.000766  0
H  H76  1  0.09472960  0.27030917  0.20676365  1  0.122785  0  0.124243  0.119504  0  0.967267  0
H  H77  1  0.28081057  0.41868513  0.23195605  1  0.148344  0  0.142567  0.114695  0  0.997118  0
H  H78  1  0.28847747  0.20891426  0.37541290  1  0.127543  0  0.126042  0.127778  0  1.007736  0
H  H79  1  0.56827011  0.34678235  0.40731729  1  0.141152  0  0.123222  0.121307  0  0.996717  0
H  H80  1  0.55045774  0.00578111  0.86694411  1  0.038186  0  0.090623  0.10405  0  1.002517  0
H  H81  1  0.37968109  0.93542783  0.91101261  1  0.01126  0  0.092254  0.100166  0  0.985066  0
H  H82  1  0.33839496  0.14652243  0.90234689  1  0.017764  0  0.085221  0.072823  0  1.021962  0
H  H83  1  0.18638504  0.06992690  0.94726830  1  0.022612  0  0.089684  0.086712  0  1.015011  0
H  H84  1  0.50537951  0.02496868  0.01100236  1  0.010992  0  0.083128  0.074146  0  1.000203  0
H  H85  1  0.41938546  0.13887517  0.02257888  1  0.007439  0  0.08758  0.080549  0  0.995758  0
H  H86  1  0.75741555  0.08790389  0.92696621  1  0.003815  0  0.082014  0.077214  0  1.002666  0
H  H87  1  0.66317696  0.19989214  0.94295330  1  0.006562  0  0.084377  0.075647  0  1.016928  0
H  H88  1  0.77941241  0.18628604  0.05916290  1  0.016472  0  0.083328  0.07427  0  1.021637  0
H  H89  1  0.97688411  0.17729503  0.00272380  1  0.012468  0  0.087343  0.07967  0  0.996317  0
H  H90  1  0.77261995  0.01439573  0.07281035  1  0.02859  0  0.096254  0.111102  0  0.994737  0
H  H91  1  0.95934868  0.00107569  0.01316124  1  0.041585  0  0.093747  0.106391  0  0.988659  0
C  C92  1  0.14909894  0.35734352  0.75267998  1  0.948868  0  0.14858  0.100174  0  3.886534  0
C  C93  1  0.99887254  0.29118318  0.83492597  1  0.421292  0  0.002925  -0.027668  0  3.986065  0
C  C94  1  0.12688958  0.22706603  0.80872049  1  0.246507  0  0.003311  -0.103249  0  3.912266  0
C  C95  1  0.37409930  0.22859659  0.71559276  1  0.302772  0  -0.045353  -0.08364  0  3.876365  0
C  C96  1  0.58431709  0.24972763  0.74200892  1  0.275875  0  -0.047072  -0.095193  0  3.851082  0
C  C97  1  0.81990544  0.11770455  0.72378197  1  1.017819  0  0.153655  0.100886  0  3.903471  0
C  C98  1  0.82669391  0.22626009  0.64802705  1  0.295219  0  0.002067  -0.112661  0  3.916741  0
C  C99  1  0.96412094  0.15861217  0.63305540  1  0.364612  0  -0.001634  -0.040725  0  4.017583  0
C  C100  1  0.75334752  0.50301289  0.17458697  1  1.494541  0  0.189869  0.604936  0  4.197787  0
C  C101  1  0.89413493  0.49902748  0.11612240  1  -0.039917  0  -0.170343  -0.290735  0  3.934031  0
C  C102  1  0.84042495  0.41897573  0.07031285  1  0.014417  0  -0.16771  -0.128673  0  3.937529  0
C  C103  1  0.98668917  0.40791017  0.01368721  1  -0.005447  0  -0.167413  -0.133324  0  3.930117  0
C  C104  1  0.19016410  0.36844870  0.03477113  1  -0.015709  0  -0.171222  -0.154968  0  3.946107  0
C  C105  1  0.34131804  0.35829623  0.97930210  1  0.005563  0  -0.170281  -0.126098  0  3.961386  0
C  C106  1  0.40316006  0.45086318  0.94951650  1  -0.008226  0  -0.168034  -0.293036  0  3.939334  0
C  C107  1  0.55992057  0.44199533  0.89642349  1  1.534664  0  0.195487  0.626414  0  4.153812  0
C  C108  1  0.35090094  0.64265798  0.25267874  1  0.9489  0  0.148427  0.09989  0  3.8865  0
C  C109  1  0.50112177  0.70882403  0.33492323  1  0.420812  0  0.00284  -0.027744  0  3.986422  0
C  C110  1  0.37311425  0.77293354  0.30871843  1  0.246498  0  0.003458  -0.103028  0  3.912406  0
C  C111  1  0.12590093  0.77140342  0.21559193  1  0.302748  0  -0.045374  -0.083664  0  3.876235  0
C  C112  1  0.91568115  0.75027103  0.24200825  1  0.275736  0  -0.047102  -0.095336  0  3.851108  0
C  C113  1  0.68008997  0.88229060  0.22377833  1  1.018352  0  0.153721  0.100711  0  3.903369  0
C  C114  1  0.67330676  0.77373001  0.14802568  1  0.294777  0  0.002021  -0.112728  0  3.916538  0
C  C115  1  0.53587386  0.84138273  0.13305136  1  0.36403  0  -0.00151  -0.040551  0  4.017229  0
C  C116  1  0.74663483  0.49698766  0.67458735  1  1.494754  0  0.18989  0.60491  0  4.197683  0
C  C117  1  0.60585251  0.50097152  0.61612487  1  -0.050526  0  -0.170246  -0.290557  0  3.933859  0
C  C118  1  0.65957498  0.58102107  0.57031295  1  0.014464  0  -0.167835  -0.12891  0  3.937447  0
C  C119  1  0.51330981  0.59208856  0.51368748  1  -0.005457  0  -0.167396  -0.133269  0  3.930033  0
C  C120  1  0.30983943  0.63155358  0.53477116  1  -0.015671  0  -0.171235  -0.154965  0  3.945993  0
C  C121  1  0.15868862  0.64170864  0.47930250  1  0.005711  0  -0.170351  -0.126144  0  3.961594  0
C  C122  1  0.09684238  0.54914023  0.44951780  1  -0.008412  0  -0.16801  -0.293004  0  3.939371  0
C  C123  1  0.94007915  0.55800858  0.39642446  1  1.534852  0  0.195484  0.626402  0  4.154056  0
C  C124  1  0.85091646  0.85734290  0.74732104  1  0.949292  0  0.14854  0.100125  0  3.8868  0
C  C125  1  0.00114029  0.79118358  0.66507642  1  0.421061  0  0.002829  -0.027855  0  3.985937  0
C  C126  1  0.87311465  0.72706315  0.69128084  1  0.246574  0  0.003429  -0.103019  0  3.911815  0
C  C127  1  0.62590492  0.72859432  0.78440614  1  0.302724  0  -0.045398  -0.083747  0  3.876519  0
C  C128  1  0.41568850  0.74972698  0.75798952  1  0.275739  0  -0.047145  -0.095341  0  3.851193  0
C  C129  1  0.18009651  0.61770775  0.77621628  1  1.018057  0  0.153689  0.100789  0  3.903396  0
C  C130  1  0.17330883  0.72626490  0.85197184  1  0.294672  0  0.002056  -0.112726  0  3.916608  0
C  C131  1  0.03588074  0.65861584  0.86694436  1  0.363999  0  -0.001592  -0.040586  0  4.01728  0
C  C132  1  0.24663004  0.00300941  0.32540938  1  1.496049  0  0.189846  0.604933  0  4.197494  0
C  C133  1  0.10584686  0.99902141  0.38387370  1  -0.040019  0  -0.170358  -0.290709  0  3.93412  0
C  C134  1  0.15957542  0.91897662  0.42968654  1  0.014611  0  -0.167684  -0.128635  0  3.937522  0
C  C135  1  0.01330977  0.90791143  0.48631264  1  -0.005843  0  -0.167404  -0.133271  0  3.929957  0
C  C136  1  0.80983511  0.86844528  0.46523061  1  -0.015455  0  -0.171328  -0.155084  0  3.945931  0
C  C137  1  0.65867930  0.85829390  0.52069747  1  0.005751  0  -0.170276  -0.125982  0  3.961479  0
C  C138  1  0.59683817  0.95086102  0.55048272  1  -0.00841  0  -0.168032  -0.293059  0  3.93942  0
C  C139  1  0.44007321  0.94199355  0.60357572  1  1.534837  0  0.195584  0.626551  0  4.153794  0
C  C140  1  0.64910127  0.14265646  0.24732073  1  0.948859  0  0.148451  0.099959  0  3.886449  0
C  C141  1  0.49888301  0.20882182  0.16507877  1  0.42087  0  0.00282  -0.027716  0  3.986304  0
C  C142  1  0.62688257  0.27292845  0.19128122  1  0.246507  0  0.003447  -0.103027  0  3.91252  0
C  C143  1  0.87410493  0.27140583  0.28440676  1  0.302779  0  -0.045431  -0.08387  0  3.876308  0
C  C144  1  0.08432185  0.25026968  0.25799138  1  0.27587  0  -0.047148  -0.095312  0  3.851001  0
C  C145  1  0.31990463  0.38229380  0.27622197  1  1.018046  0  0.153658  0.100662  0  3.903645  0
C  C146  1  0.32669157  0.27373409  0.35197446  1  0.295295  0  0.002045  -0.112599  0  3.916487  0
C  C147  1  0.46412101  0.34138734  0.36694839  1  0.36428  0  -0.001539  -0.040608  0  4.017232  0
C  C148  1  0.25336911  0.99699020  0.82541194  1  1.495015  0  0.189824  0.604857  0  4.197761  0
C  C149  1  0.39414871  0.00097836  0.88387564  1  -0.039963  0  -0.170417  -0.290881  0  3.934048  0
C  C150  1  0.34042120  0.08102397  0.92968913  1  0.014614  0  -0.167619  -0.128493  0  3.937401  0
C  C151  1  0.48668178  0.09208931  0.98631607  1  -0.006394  0  -0.167398  -0.133357  0  3.930092  0
C  C152  1  0.69015791  0.13155329  0.96523343  1  -0.015296  0  -0.171205  -0.154969  0  3.945873  0
C  C153  1  0.84131660  0.14170416  0.02070037  1  0.005625  0  -0.17033  -0.126157  0  3.961498  0
C  C154  1  0.90316496  0.04913643  0.05048250  1  -0.008309  0  -0.167984  -0.293048  0  3.939409  0
C  C155  1  0.05992964  0.05800132  0.10357392  1  1.53464  0  0.1956  0.626689  0  4.153584  0
N  N156  1  0.01331000  0.37194394  0.79921496  1  -1.212705  0  -0.359754  -0.285447  0  3.617924  0
N  N157  1  0.22008392  0.26973012  0.75664541  1  -1.229637  0  -0.239963  0.050985  0  3.774638  0
N  N158  1  0.73722539  0.19935566  0.70573899  1  -1.243752  0  -0.238705  0.066305  0  3.755208  0
N  N159  1  0.95909238  0.09158634  0.68107064  1  -1.232112  0  -0.355921  -0.294127  0  3.597773  0
N  N160  1  0.48668941  0.62805975  0.29921452  1  -1.212567  0  -0.359731  -0.285441  0  3.617895  0
N  N161  1  0.27991441  0.73027345  0.25664484  1  -1.229671  0  -0.239861  0.051114  0  3.774525  0
N  N162  1  0.76277320  0.80064013  0.20573806  1  -1.243136  0  -0.238656  0.066515  0  3.75504  0
N  N163  1  0.54090645  0.90840870  0.18106766  1  -1.23231  0  -0.356028  -0.294205  0  3.597755  0
N  N164  1  0.98669929  0.87194300  0.70079046  1  -1.212834  0  -0.359766  -0.285459  0  3.618191  0
N  N165  1  0.77992003  0.76973167  0.74335744  1  -1.23005  0  -0.240009  0.050776  0  3.774861  0
N  N166  1  0.26277902  0.69935810  0.79425938  1  -1.243352  0  -0.238578  0.066584  0  3.75488  0
N  N167  1  0.04090673  0.59158917  0.81892806  1  -1.23196  0  -0.356004  -0.294239  0  3.59766  0
N  N168  1  0.51330988  0.12805762  0.20078638  1  -1.212644  0  -0.359715  -0.28542  0  3.617837  0
N  N169  1  0.72009172  0.23027252  0.24335475  1  -1.22968  0  -0.239884  0.051087  0  3.774626  0
N  N170  1  0.23722796  0.30064281  0.29426261  1  -1.243809  0  -0.238637  0.066447  0  3.75507  0
N  N171  1  0.45908496  0.40841319  0.31893219  1  -1.2326  0  -0.355993  -0.294169  0  3.597775  0
O  O172  1  0.84109926  0.50299007  0.23122317  1  -1.171929  0  -0.348233  -0.58415  0  2.292355  0
O  O173  1  0.56656952  0.50356919  0.16634945  1  -1.163912  0  -0.343073  -0.589983  0  2.11298  0
O  O174  1  0.66564760  0.51583982  0.88394924  1  -1.182582  0  -0.359545  -0.58688  0  2.242931  0
O  O175  1  0.58259227  0.36751082  0.86614270  1  -1.200684  0  -0.329393  -0.575391  0  2.149494  0
O  O176  1  0.65890058  0.49701201  0.73122412  1  -1.172047  0  -0.348215  -0.584126  0  2.292571  0
O  O177  1  0.93342645  0.49642580  0.66634866  1  -1.164104  0  -0.343117  -0.590053  0  2.112605  0
O  O178  1  0.83435073  0.48416614  0.38395021  1  -1.182588  0  -0.359525  -0.58683  0  2.24321  0
O  O179  1  0.91740775  0.63249439  0.36614575  1  -1.200776  0  -0.329397  -0.575409  0  2.149632  0
O  O180  1  0.15889484  0.00298588  0.26877416  1  -1.172144  0  -0.348169  -0.584037  0  2.292436  0
O  O181  1  0.43342007  0.00356961  0.33364739  1  -1.16513  0  -0.343139  -0.590121  0  2.112512  0
O  O182  1  0.33434449  0.01583703  0.61604935  1  -1.182686  0  -0.359562  -0.586924  0  2.24303  0
O  O183  1  0.41740501  0.86750846  0.63385639  1  -1.200754  0  -0.329461  -0.575484  0  2.149475  0
O  O184  1  0.34110036  0.99701081  0.76877662  1  -1.171987  0  -0.348161  -0.58403  0  2.292583  0
O  O185  1  0.06657299  0.99643141  0.83365208  1  -1.164267  0  -0.343107  -0.590047  0  2.112596  0
O  O186  1  0.16564620  0.98415372  0.11604830  1  -1.18237  0  -0.359548  -0.58698  0  2.242994  0
O  O187  1  0.08261258  0.13248787  0.13385419  1  -1.200864  0  -0.329517  -0.575566  0  2.149271  0
