# generated using pymatgen
data_FeH20C24(N5O)2
_symmetry_space_group_name_H-M   'P 1'
_cell_length_a   8.31161059
_cell_length_b   7.91620605
_cell_length_c   9.48903215
_cell_angle_alpha   100.95383811
_cell_angle_beta   102.20275874
_cell_angle_gamma   97.09467865
_symmetry_Int_Tables_number   1
_chemical_formula_structural   FeH20C24(N5O)2
_chemical_formula_sum   'Fe1 H20 C24 N10 O2'
_cell_volume   590.34034484
_cell_formula_units_Z   1
loop_
 _symmetry_equiv_pos_site_id
 _symmetry_equiv_pos_as_xyz
  1  'x, y, z'
loop_
 _atom_site_type_symbol
 _atom_site_label
 _atom_site_symmetry_multiplicity
 _atom_site_fract_x
 _atom_site_fract_y
 _atom_site_fract_z
 _atom_site_occupancy
 _atom_site_hle17_bader_spin_density
 _atom_site_hle17_ddec_charge
 _atom_site_hle17_ddec_spin_density
 _atom_site_hle17_ddec_sum_bond_order
 _atom_site_hle17_magmom
 _atom_site_hse06_10hf_bader_spin_density
 _atom_site_hse06_10hf_ddec_charge
 _atom_site_hse06_10hf_ddec_spin_density
 _atom_site_hse06_10hf_ddec_sum_bond_order
 _atom_site_hse06_10hf_magmom
 _atom_site_hse06_bader_spin_density
 _atom_site_hse06_ddec_charge
 _atom_site_hse06_ddec_spin_density
 _atom_site_hse06_ddec_sum_bond_order
 _atom_site_hse06_magmom
 _atom_site_pbe_bader_spin_density
 _atom_site_pbe_cm5_charge
 _atom_site_pbe_ddec_charge
 _atom_site_pbe_ddec_spin_density
 _atom_site_pbe_ddec_sum_bond_order
 _atom_site_pbe_magmom
Fe  Fe0  1  0.00045419  0.99958704  0.99937535  1  0  0.701335  0  2.866281  0  0  0.68394  0  3.340411  0  0  0.731002  0  3.278026  0  0  0.725969  0.657906  0  3.376365  0
H  H1  1  0.94067011  0.24624624  0.84139422  1  0  0.36444  0  0.951491  0  0  0.32322  0  1.04845  0  0  0.333699  0  1.034353  0  0  0.278663  0.315876  0  1.058207  0
H  H2  1  0.06035779  0.75519060  0.15895219  1  0  0.364817  0  0.9507  0  0  0.323794  0  1.047772  0  0  0.334279  0  1.033678  0  0  0.27909  0.316439  0  1.057533  0
H  H3  1  0.13451080  0.21817466  0.85499636  1  0  0.403714  0  0.906332  0  0  0.374481  0  0.971289  0  0  0.383762  0  0.958358  0  0  0.286953  0.368021  0  0.980144  0
H  H4  1  0.86588788  0.78163489  0.14323977  1  0  0.401554  0  0.904011  0  0  0.372376  0  0.973129  0  0  0.381649  0  0.960212  0  0  0.286008  0.365914  0  0.981983  0
H  H5  1  0.82094348  0.29626057  0.06338240  1  0  0.085421  0  0.944005  0  0  0.094886  0  1.004884  0  0  0.09688  0  1.002155  0  0  0.122566  0.093235  0  1.007318  0
H  H6  1  0.18106882  0.70340451  0.93470612  1  0  0.083714  0  0.943468  0  0  0.093047  0  1.004408  0  0  0.095002  0  1.001683  0  0  0.121908  0.09142  0  1.006817  0
H  H7  1  0.82185084  0.52881983  0.27459719  1  0  0.117022  0  0.964146  0  0  0.127276  0  1.02448  0  0  0.130938  0  1.022211  0  0  0.108414  0.124467  0  1.026619  0
H  H8  1  0.17922138  0.47030290  0.72347817  1  0  0.117097  0  0.965922  0  0  0.127577  0  1.025794  0  0  0.131128  0  1.023669  0  0  0.10857  0.124781  0  1.027909  0
H  H9  1  0.15280849  0.27091714  0.54930395  1  0  0.116533  0  0.985988  0  0  0.121926  0  1.05444  0  0  0.125531  0  1.052393  0  0  0.103061  0.11952  0  1.055714  0
H  H10  1  0.84557218  0.72656891  0.44956185  1  0  0.116041  0  0.985729  0  0  0.121827  0  1.053652  0  0  0.125476  0  1.051606  0  0  0.102879  0.119374  0  1.054954  0
H  H11  1  0.13668145  0.05127349  0.32411252  1  0  0.074031  0  0.966936  0  0  0.081369  0  1.033508  0  0  0.083711  0  1.030177  0  0  0.116598  0.079622  0  1.036017  0
H  H12  1  0.86252619  0.94663513  0.67479722  1  0  0.074633  0  0.965918  0  0  0.082378  0  1.03186  0  0  0.084724  0  1.028543  0  0  0.117005  0.080622  0  1.034374  0
H  H13  1  0.74476753  0.10285223  0.55172074  1  0  0.069244  0  0.941961  0  0  0.080947  0  1.002373  0  0  0.082867  0  1.001119  0  0  0.112735  0.079718  0  1.002983  0
H  H14  1  0.25607144  0.90016519  0.44980429  1  0  0.067666  0  0.943613  0  0  0.079816  0  1.003899  0  0  0.081593  0  1.002813  0  0  0.112433  0.078686  0  1.004398  0
H  H15  1  0.55549733  0.22823639  0.38356973  1  0  0.098739  0  1.017909  0  0  0.102934  0  1.088176  0  0  0.106075  0  1.087702  0  0  0.101608  0.100749  0  1.088498  0
H  H16  1  0.44480625  0.77420720  0.61805593  1  0  0.09747  0  1.017774  0  0  0.101114  0  1.088862  0  0  0.104212  0  1.088412  0  0  0.101223  0.098986  0  1.089121  0
H  H17  1  0.59059827  0.65972680  0.75307140  1  0  0.107305  0  0.967276  0  0  0.12007  0  1.022849  0  0  0.122519  0  1.022732  0  0  0.109828  0.118298  0  1.023112  0
H  H18  1  0.40759246  0.34148044  0.24898349  1  0  0.107302  0  0.965966  0  0  0.119497  0  1.022113  0  0  0.121969  0  1.021976  0  0  0.109725  0.117722  0  1.022363  0
H  H19  1  0.78750510  0.52033884  0.90421071  1  0  0.088099  0  0.943735  0  0  0.097739  0  1.00492  0  0  0.101284  0  1.002137  0  0  0.116247  0.09496  0  1.007176  0
H  H20  1  0.21185019  0.48181371  0.09757627  1  0  0.087745  0  0.941711  0  0  0.097638  0  1.002696  0  0  0.101068  0  1.000051  0  0  0.116269  0.094903  0  1.004891  0
C  C21  1  0.62905632  0.99718252  0.87410647  1  0  0.469774  0  3.978301  0  0  0.431662  0  4.274711  0  0  0.459975  0  4.282273  0  0  0.302852  0.412423  0  4.269796  0
C  C22  1  0.37138679  0.00221845  0.12662325  1  0  0.468144  0  3.980564  0  0  0.429699  0  4.277467  0  0  0.457941  0  4.285109  0  0  0.302461  0.410516  0  4.272472  0
C  C23  1  0.38630475  0.10674597  0.79296418  1  0  0.496022  0  3.992582  0  0  0.457171  0  4.281189  0  0  0.480786  0  4.292658  0  0  0.295241  0.441047  0  4.273562  0
C  C24  1  0.61327712  0.89129081  0.20693347  1  0  0.491479  0  3.995288  0  0  0.452492  0  4.284358  0  0  0.476031  0  4.295949  0  0  0.29299  0.436423  0  4.276617  0
C  C25  1  0.89338929  0.29611670  0.17302611  1  0  0.133238  0  3.661796  0  0  0.099914  0  3.92254  0  0  0.111299  0  3.93481  0  0  0.046922  0.091954  0  3.915534  0
C  C26  1  0.10769651  0.70294285  0.82526799  1  0  0.137014  0  3.655934  0  0  0.104367  0  3.917173  0  0  0.11581  0  3.929334  0  0  0.048239  0.096388  0  3.910227  0
C  C27  1  0.89527961  0.42686058  0.29368715  1  0  -0.147608  0  3.677444  0  0  -0.168186  0  3.928722  0  0  -0.173924  0  3.944255  0  0  -0.081118  -0.164923  0  3.919593  0
C  C28  1  0.10521225  0.57185816  0.70464183  1  0  -0.149513  0  3.679782  0  0  -0.170252  0  3.931181  0  0  -0.175917  0  3.946749  0  0  -0.081651  -0.166983  0  3.922044  0
C  C29  1  0.99285030  0.42794127  0.43460687  1  0  0.087564  0  3.756806  0  0  0.097088  0  3.9913  0  0  0.10353  0  4.009583  0  0  0.005264  0.092488  0  3.979754  0
C  C30  1  0.00672324  0.57024644  0.56394477  1  0  0.086488  0  3.75588  0  0  0.09562  0  3.990957  0  0  0.102036  0  4.009247  0  0  0.004773  0.091019  0  3.979401  0
C  C31  1  0.07718238  0.28540084  0.44474436  1  0  -0.165452  0  3.707038  0  0  -0.184049  0  3.957628  0  0  -0.19103  0  3.975428  0  0  -0.087636  -0.179957  0  3.946304  0
C  C32  1  0.92186691  0.71248311  0.55399503  1  0  -0.165039  0  3.706336  0  0  -0.183741  0  3.956876  0  0  -0.190809  0  3.974752  0  0  -0.087256  -0.179606  0  3.945544  0
C  C33  1  0.06857482  0.15944716  0.31883679  1  0  0.118112  0  3.692034  0  0  0.088212  0  3.948286  0  0  0.098118  0  3.962736  0  0  0.041977  0.080795  0  3.93965  0
C  C34  1  0.93103578  0.83871535  0.67989275  1  0  0.117922  0  3.692261  0  0  0.0881  0  3.948976  0  0  0.097931  0  3.963548  0  0  0.042044  0.080816  0  3.940141  0
C  C35  1  0.70735671  0.22641370  0.59373444  1  0  0.12016  0  3.742144  0  0  0.089609  0  3.999819  0  0  0.094409  0  4.019129  0  0  0.042247  0.08669  0  3.986269  0
C  C36  1  0.29287501  0.77619413  0.40793595  1  0  0.121009  0  3.740909  0  0  0.089959  0  3.998999  0  0  0.09488  0  4.018266  0  0  0.042313  0.086945  0  3.985486  0
C  C37  1  0.59878723  0.29798863  0.49855182  1  0  -0.1592  0  3.718476  0  0  -0.178084  0  3.968528  0  0  -0.186126  0  3.991822  0  0  -0.085766  -0.172453  0  3.952355  0
C  C38  1  0.40108845  0.70428177  0.50313613  1  0  -0.154576  0  3.71553  0  0  -0.173256  0  3.965539  0  0  -0.1812  0  3.988733  0  0  -0.084699  -0.167708  0  3.949449  0
C  C39  1  0.55386328  0.45878988  0.55104570  1  0  0.093771  0  3.750198  0  0  0.105795  0  3.979088  0  0  0.108641  0  4.00183  0  0  0.012914  0.104131  0  3.963401  0
C  C40  1  0.44531005  0.54299832  0.45085075  1  0  0.090627  0  3.748926  0  0  0.103999  0  3.9767  0  0  0.106797  0  3.999523  0  0  0.012925  0.102352  0  3.960968  0
C  C41  1  0.61934982  0.53584187  0.70188612  1  0  -0.142712  0  3.685587  0  0  -0.161259  0  3.930774  0  0  -0.168044  0  3.952921  0  0  -0.07638  -0.156943  0  3.915977  0
C  C42  1  0.37941467  0.46575875  0.30005533  1  0  -0.141897  0  3.683841  0  0  -0.160047  0  3.929071  0  0  -0.166823  0  3.951225  0  0  -0.076557  -0.15574  0  3.91428  0
C  C43  1  0.72917492  0.45633247  0.78893118  1  0  0.128612  0  3.699524  0  0  0.099107  0  3.954577  0  0  0.104169  0  3.972164  0  0  0.048239  0.095831  0  3.942979  0
C  C44  1  0.27013956  0.54575669  0.21291575  1  0  0.127957  0  3.701039  0  0  0.098115  0  3.956491  0  0  0.10324  0  3.974172  0  0  0.048011  0.094826  0  3.944822  0
N  N45  1  0.76893844  0.98331352  0.92025143  1  0  -0.530729  0  3.172273  0  0  -0.509614  0  3.494833  0  0  -0.530495  0  3.493559  0  0  -0.413218  -0.497267  0  3.495331  0
N  N46  1  0.23191252  0.01567877  0.07833748  1  0  -0.529568  0  3.173235  0  0  -0.508433  0  3.495951  0  0  -0.529351  0  3.494732  0  0  -0.413828  -0.496043  0  3.496384  0
N  N47  1  0.47150803  0.98495534  0.81695858  1  0  -0.464528  0  3.363994  0  0  -0.407812  0  3.627202  0  0  -0.431759  0  3.631005  0  0  -0.312004  -0.391163  0  3.624337  0
N  N48  1  0.52818533  0.01426398  0.18683668  1  0  -0.461378  0  3.363268  0  0  -0.404756  0  3.626789  0  0  -0.428521  0  3.630384  0  0  -0.310618  -0.388212  0  3.624056  0
N  N49  1  0.29313580  0.20379265  0.76383691  1  0  -0.607663  0  2.685087  0  0  -0.572528  0  2.923438  0  0  -0.587586  0  2.928647  0  0  -0.378046  -0.562476  0  2.92003  0
N  N50  1  0.70600976  0.79292891  0.23317672  1  0  -0.605251  0  2.684335  0  0  -0.570014  0  2.923134  0  0  -0.585106  0  2.928442  0  0  -0.377382  -0.559922  0  2.919671  0
N  N51  1  0.98198363  0.16442203  0.18231173  1  0  -0.239015  0  3.322044  0  0  -0.187838  0  3.596093  0  0  -0.209726  0  3.612536  0  0  -0.32989  -0.174306  0  3.584846  0
N  N52  1  0.01865027  0.83430660  0.81620460  1  0  -0.238576  0  3.315226  0  0  -0.188654  0  3.590592  0  0  -0.210502  0  3.606942  0  0  -0.329561  -0.175179  0  3.579466  0
N  N53  1  0.77463942  0.30388516  0.73639944  1  0  -0.321435  0  3.196414  0  0  -0.257314  0  3.445606  0  0  -0.271142  0  3.463348  0  0  -0.309253  -0.247926  0  3.433763  0
N  N54  1  0.22534093  0.69863533  0.26531371  1  0  -0.321052  0  3.199105  0  0  -0.257018  0  3.44887  0  0  -0.270826  0  3.466523  0  0  -0.308618  -0.247618  0  3.437051  0
O  O55  1  0.04547718  0.22863913  0.91131554  1  0  -0.744623  0  1.98996  0  0  -0.709148  0  2.214306  0  0  -0.744147  0  2.188781  0  0  -0.542378  -0.681943  0  2.229918  0
O  O56  1  0.95578425  0.77152981  0.08784142  1  0  -0.741998  0  1.990051  0  0  -0.706759  0  2.217672  0  0  -0.741927  0  2.192316  0  0  -0.541301  -0.679493  0  2.233314  0
