# generated using pymatgen
data_MgH3C7O3
_symmetry_space_group_name_H-M   'P 1'
_cell_length_a   6.83790318
_cell_length_b   22.09962466
_cell_length_c   22.10384315
_cell_angle_alpha   118.95030249
_cell_angle_beta   95.90526393
_cell_angle_gamma   95.92553436
_symmetry_Int_Tables_number   1
_chemical_formula_structural   MgH3C7O3
_chemical_formula_sum   'Mg6 H18 C42 O18'
_cell_volume   2862.02766290
_cell_formula_units_Z   6
loop_
 _symmetry_equiv_pos_site_id
 _symmetry_equiv_pos_as_xyz
  1  'x, y, z'
loop_
 _atom_site_type_symbol
 _atom_site_label
 _atom_site_symmetry_multiplicity
 _atom_site_fract_x
 _atom_site_fract_y
 _atom_site_fract_z
 _atom_site_occupancy
 _atom_site_pbe_bader_charge
 _atom_site_pbe_bader_spin_density
 _atom_site_pbe_cm5_charge
 _atom_site_pbe_ddec_charge
 _atom_site_pbe_ddec_spin_density
 _atom_site_pbe_ddec_sum_bond_order
 _atom_site_pbe_magmom
Mg  Mg0  1  0.98816598  0.67045409  0.28734138  1  1.68337  0  0.908206  1.409121  0  1.329916  0
Mg  Mg1  1  0.66778119  0.32892944  0.71218120  1  1.6837  0  0.90811  1.408698  0  1.33036  0
Mg  Mg2  1  0.70073250  0.71265660  0.38302096  1  1.681955  0  0.907966  1.409225  0  1.329543  0
Mg  Mg3  1  0.95570368  0.28777441  0.61674954  1  1.681844  0  0.908108  1.409364  0  1.329386  0
Mg  Mg4  1  0.31773809  0.61696590  0.32956742  1  1.683778  0  0.907986  1.410249  0  1.327066  0
Mg  Mg5  1  0.33881018  0.38328686  0.67108377  1  1.684378  0  0.908372  1.409387  0  1.329138  0
H  H6  1  0.14678389  0.09281118  0.52583071  1  0.074189  0  0.101799  0.102528  0  1.039333  0
H  H7  1  0.98199603  0.99862241  0.46877216  1  0.026026  0  0.101793  0.098901  0  1.016848  0
H  H8  1  0.78257657  0.88039553  0.39946027  1  0.082665  0  0.105578  0.122246  0  1.003012  0
H  H9  1  0.67422701  0.00114959  0.52723593  1  0.071878  0  0.101769  0.099156  0  1.016793  0
H  H10  1  0.87344438  0.11931917  0.59760633  1  0.094069  0  0.105199  0.121406  0  1.004022  0
H  H11  1  0.50853049  0.90728578  0.47225019  1  0.094816  0  0.102227  0.103376  0  1.038687  0
H  H12  1  0.62081752  0.47407153  0.56694006  1  0.078423  0  0.102022  0.102968  0  1.039198  0
H  H13  1  0.51329517  0.53141675  0.53000006  1  0.068954  0  0.101563  0.09844  0  1.016912  0
H  H14  1  0.38296279  0.60066588  0.48098978  1  0.064348  0  0.105713  0.122725  0  1.00317  0
H  H15  1  0.14664747  0.47276722  0.47383610  1  0.060242  0  0.101598  0.099028  0  1.016737  0
H  H16  1  0.27604016  0.40244759  0.52174156  1  0.090063  0  0.104978  0.121521  0  1.004077  0
H  H17  1  0.03615885  0.52760422  0.43493540  1  0.082668  0  0.102191  0.103127  0  1.03858  0
H  H18  1  0.05413299  0.43306015  0.90723933  1  0.089087  0  0.101928  0.102998  0  1.038849  0
H  H19  1  0.98352487  0.47001335  0.00143357  1  0.067087  0  0.101824  0.098957  0  1.016862  0
H  H20  1  0.90220121  0.51906010  0.11966801  1  0.071054  0  0.105658  0.122892  0  1.003428  0
H  H21  1  0.67309400  0.52612453  0.99883716  1  0.063299  0  0.10157  0.098542  0  1.016346  0
H  H22  1  0.75432596  0.47828985  0.88062261  1  0.07653  0  0.105562  0.122585  0  1.003165  0
H  H23  1  0.60143255  0.56497686  0.09268732  1  0.080638  0  0.102188  0.102945  0  1.039386  0
C  C24  1  0.30750444  0.22306249  0.59992200  1  1.512312  0  0.238687  0.679283  0  4.117043  0
C  C25  1  0.41722205  0.16425586  0.58200060  1  -0.039176  0  -0.042238  -0.204192  0  3.977861  0
C  C26  1  0.30574868  0.09597376  0.54090093  1  -0.031358  0  -0.08508  -0.116378  0  3.970781  0
C  C27  1  0.26607045  0.96447871  0.47732109  1  -0.028799  0  -0.022021  0.040259  0  4.034341  0
C  C28  1  0.05760077  0.95379381  0.45516403  1  0.017714  0  -0.082604  -0.088787  0  3.983489  0
C  C29  1  0.94304293  0.88718693  0.41568980  1  -0.053315  0  -0.10915  -0.217145  0  3.988326  0
C  C30  1  0.02772696  0.82589529  0.39454698  1  0.579916  0  0.094382  0.366374  0  4.083371  0
C  C31  1  0.38955318  0.03547650  0.51982408  1  0.003538  0  -0.022805  0.039428  0  4.03339  0
C  C32  1  0.59829132  0.04601592  0.54152230  1  -0.045446  0  -0.082145  -0.088904  0  3.98205  0
C  C33  1  0.71280464  0.11257819  0.58160138  1  -0.071134  0  -0.108407  -0.215648  0  3.987307  0
C  C34  1  0.62788347  0.17392797  0.60371247  1  0.619066  0  0.092994  0.365015  0  4.084747  0
C  C35  1  0.23830001  0.83567665  0.41635994  1  0.007435  0  -0.043327  -0.204021  0  3.97706  0
C  C36  1  0.34967295  0.90402289  0.45692999  1  -0.060123  0  -0.085701  -0.117658  0  3.971105  0
C  C37  1  0.34827030  0.77700130  0.39904501  1  1.513862  0  0.237447  0.677422  0  4.120104  0
C  C38  1  0.70760788  0.40007304  0.62317259  1  1.499661  0  0.237696  0.67815  0  4.118479  0
C  C39  1  0.83525428  0.41800007  0.58229089  1  -0.028267  0  -0.04176  -0.202697  0  3.976203  0
C  C40  1  0.76475292  0.45903357  0.55504608  1  -0.0698  0  -0.085891  -0.117924  0  3.970713  0
C  C41  1  0.78865541  0.52268376  0.48715798  1  0.051289  0  -0.022803  0.038655  0  4.032545  0
C  C42  1  0.60236371  0.54489994  0.49866546  1  -0.025248  0  -0.082167  -0.087407  0  3.981553  0
C  C43  1  0.52722611  0.58441000  0.47156803  1  -0.058702  0  -0.108592  -0.217513  0  3.988172  0
C  C44  1  0.63315591  0.60553838  0.43142199  1  0.551452  0  0.093384  0.36536  0  4.084285  0
C  C45  1  0.86964810  0.48015715  0.51565124  1  0.021175  0  -0.022109  0.040905  0  4.031325  0
C  C46  1  0.05672365  0.45846618  0.50448037  1  -0.093566  0  -0.082497  -0.08957  0  3.980789  0
C  C47  1  0.13129284  0.41839355  0.53096192  1  0.006547  0  -0.107919  -0.215243  0  3.98616  0
C  C48  1  0.02427932  0.39629761  0.57023600  1  0.59771  0  0.092649  0.364163  0  4.082878  0
C  C49  1  0.82189489  0.58365267  0.41934735  1  0.008834  0  -0.042509  -0.203234  0  3.975645  0
C  C50  1  0.89266940  0.54299579  0.44703023  1  -0.065159  0  -0.085597  -0.117538  0  3.970379  0
C  C51  1  0.94908289  0.60093886  0.37792408  1  1.489496  0  0.237467  0.678077  0  4.118394  0
C  C52  1  0.08434625  0.37683981  0.77693985  1  1.507392  0  0.23776  0.677222  0  4.119915  0
C  C53  1  0.25295832  0.41769463  0.83571661  1  -0.067214  0  -0.042491  -0.203786  0  3.976627  0
C  C54  1  0.20991853  0.44490844  0.90402171  1  -0.071847  0  -0.085464  -0.117386  0  3.970318  0
C  C55  1  0.30166605  0.51285953  0.03551323  1  0.062748  0  -0.022425  0.0395  0  4.032376  0
C  C56  1  0.10388917  0.50135590  0.04624692  1  -0.089092  0  -0.082517  -0.087719  0  3.982181  0
C  C57  1  0.05593602  0.52844170  0.11285442  1  0.032609  0  -0.108545  -0.218271  0  3.989281  0
C  C58  1  0.20196963  0.56860349  0.17410934  1  0.546138  0  0.093214  0.366582  0  4.085588  0
C  C59  1  0.35421492  0.48434536  0.96450304  1  -0.005069  0  -0.022296  0.039728  0  4.031524  0
C  C60  1  0.55240781  0.49553011  0.95393946  1  -0.08242  0  -0.082297  -0.087869  0  3.980126  0
C  C61  1  0.60036226  0.46905473  0.88737299  1  0.023229  0  -0.108852  -0.217725  0  3.986721  0
C  C62  1  0.45400378  0.42977076  0.82604392  1  0.6115  0  0.093935  0.367012  0  4.081618  0
C  C63  1  0.40280363  0.58066072  0.16430435  1  -0.007905  0  -0.042885  -0.204719  0  3.97618  0
C  C64  1  0.44579209  0.55292684  0.09595144  1  -0.085499  0  -0.085768  -0.117432  0  3.970982  0
C  C65  1  0.57139991  0.62212807  0.22299683  1  1.500828  0  0.23908  0.680316  0  4.118443  0
O  O66  1  0.90897357  0.76284585  0.35576238  1  -1.316049  0  -0.447361  -0.778522  0  2.304247  0
O  O67  1  0.12282651  0.21231732  0.57508045  1  -1.248768  0  -0.356864  -0.644011  0  2.150029  0
O  O68  1  0.40324733  0.28628725  0.64241672  1  -1.300557  0  -0.404029  -0.769417  0  2.415025  0
O  O69  1  0.53305138  0.78803592  0.42388967  1  -1.247961  0  -0.356193  -0.643254  0  2.151845  0
O  O70  1  0.25291109  0.71361995  0.35702496  1  -1.308479  0  -0.403429  -0.768513  0  2.416637  0
O  O71  1  0.74681041  0.23689287  0.64310962  1  -1.313514  0  -0.447086  -0.777517  0  2.306054  0
O  O72  1  0.55321652  0.64427810  0.40708426  1  -1.312037  0  -0.447061  -0.77822  0  2.304135  0
O  O73  1  0.54777839  0.42491075  0.63735358  1  -1.243869  0  -0.356654  -0.643605  0  2.151062  0
O  O74  1  0.76082177  0.35754354  0.64384427  1  -1.293069  0  -0.403649  -0.7692  0  2.415377  0
O  O75  1  0.10901978  0.57606898  0.36408941  1  -1.242055  0  -0.356111  -0.643818  0  2.149906  0
O  O76  1  0.89575592  0.64296200  0.35656543  1  -1.292533  0  -0.403292  -0.768547  0  2.416103  0
O  O77  1  0.10380874  0.35686611  0.59376524  1  -1.309541  0  -0.446751  -0.777384  0  2.305238  0
O  O78  1  0.14617793  0.59296952  0.23714885  1  -1.311599  0  -0.446965  -0.778564  0  2.305294  0
O  O79  1  0.91033463  0.36275264  0.78765258  1  -1.239145  0  -0.356142  -0.642783  0  2.151955  0
O  O80  1  0.11694605  0.35609862  0.71372104  1  -1.293715  0  -0.403813  -0.769002  0  2.41533  0
O  O81  1  0.74518742  0.63602257  0.21200304  1  -1.239202  0  -0.357154  -0.644417  0  2.151678  0
O  O82  1  0.53925654  0.64345340  0.28635604  1  -1.29606  0  -0.403834  -0.769862  0  2.417238  0
O  O83  1  0.50995825  0.40620216  0.76309589  1  -1.312219  0  -0.447359  -0.778431  0  2.304951  0
