# generated using pymatgen
data_Zn2H34C39(N5O4)2
_symmetry_space_group_name_H-M   'P 1'
_cell_length_a   11.84400291
_cell_length_b   11.90609222
_cell_length_c   24.33357924
_cell_angle_alpha   89.96829180
_cell_angle_beta   89.83764677
_cell_angle_gamma   89.81342284
_symmetry_Int_Tables_number   1
_chemical_formula_structural   Zn2H34C39(N5O4)2
_chemical_formula_sum   'Zn4 H68 C78 N20 O16'
_cell_volume   3431.38644273
_cell_formula_units_Z   2
loop_
 _symmetry_equiv_pos_site_id
 _symmetry_equiv_pos_as_xyz
  1  'x, y, z'
loop_
 _atom_site_type_symbol
 _atom_site_label
 _atom_site_symmetry_multiplicity
 _atom_site_fract_x
 _atom_site_fract_y
 _atom_site_fract_z
 _atom_site_occupancy
 _atom_site_pbe_bader_charge
 _atom_site_pbe_bader_spin_density
 _atom_site_pbe_cm5_charge
 _atom_site_pbe_ddec_charge
 _atom_site_pbe_ddec_spin_density
 _atom_site_pbe_ddec_sum_bond_order
 _atom_site_pbe_magmom
Zn  Zn0  1  0.61531599  0.50075230  0.50014548  1  1.297725  0  0.667066  0.805264  0  2.463892  0
Zn  Zn1  1  0.38609960  0.50157166  0.49977605  1  1.281553  0  0.666335  0.805464  0  2.45816  0
Zn  Zn2  1  0.00239259  0.88869984  0.00001612  1  1.288066  0  0.665981  0.809318  0  2.435597  0
Zn  Zn3  1  0.00466666  0.11757834  0.99982826  1  1.284411  0  0.664814  0.808883  0  2.426164  0
H  H4  1  0.18097181  0.50451545  0.42538242  1  0.118304  0  0.129754  0.10358  0  0.993902  0
H  H5  1  0.23258750  0.49059652  0.59300978  1  0.134094  0  0.130779  0.116808  0  0.988098  0
H  H6  1  0.82025293  0.50556426  0.57453394  1  0.125423  0  0.130201  0.104207  0  0.993637  0
H  H7  1  0.76885217  0.48749277  0.40701522  1  0.138486  0  0.130753  0.117116  0  0.987575  0
H  H8  1  0.68057167  0.14015906  0.71897247  1  0.046171  0  0.092998  0.109009  0  1.038087  0
H  H9  1  0.32684301  0.86318249  0.71843562  1  0.024599  0  0.092882  0.108699  0  1.038166  0
H  H10  1  0.36526172  0.17876880  0.77970615  1  0.049989  0  0.092412  0.108378  0  1.039216  0
H  H11  1  0.64248564  0.82366171  0.78045086  1  0.06987  0  0.092231  0.107837  0  1.039452  0
H  H12  1  0.32857203  0.07986721  0.68846287  1  0.042223  0  0.093073  0.106516  0  1.028745  0
H  H13  1  0.68013512  0.92062645  0.68911494  1  0.047207  0  0.093178  0.10666  0  1.027787  0
H  H14  1  0.42293775  0.82738075  0.80961272  1  0.065645  0  0.094957  0.110991  0  1.022115  0
H  H15  1  0.58198454  0.17463259  0.81007844  1  0.043562  0  0.09464  0.110221  0  1.021818  0
H  H16  1  0.67861923  0.86169621  0.28171239  1  0.029898  0  0.092549  0.108274  0  1.037516  0
H  H17  1  0.32475408  0.14036778  0.28072560  1  0.053053  0  0.092968  0.108447  0  1.038537  0
H  H18  1  0.36349001  0.82593708  0.21935399  1  0.066257  0  0.092663  0.108734  0  1.038607  0
H  H19  1  0.64200626  0.17845210  0.22009202  1  0.067814  0  0.092418  0.108313  0  1.039729  0
H  H20  1  0.32558618  0.92375007  0.31053279  1  0.044777  0  0.093371  0.107067  0  1.027878  0
H  H21  1  0.67711298  0.08085771  0.31169622  1  0.040734  0  0.093063  0.106221  0  1.029026  0
H  H22  1  0.42511476  0.17643193  0.18988579  1  0.04195  0  0.095047  0.11054  0  1.02261  0
H  H23  1  0.58177086  0.82803923  0.18996548  1  0.061684  0  0.094775  0.110341  0  1.022334  0
H  H24  1  0.15986218  0.32523099  0.99563885  1  0.150892  0  0.129734  0.101901  0  0.988019  0
H  H25  1  0.81666152  0.27129370  0.00702240  1  0.13563  0  0.129797  0.113138  0  0.983934  0
H  H26  1  0.85025110  0.68130423  0.99611015  1  0.138015  0  0.129538  0.101263  0  0.989627  0
H  H27  1  0.19309910  0.73581230  0.00772030  1  0.128653  0  0.130119  0.112635  0  0.984013  0
H  H28  1  0.94531405  0.42034372  0.34709707  1  0.065245  0  0.106298  0.148782  0  0.975452  0
H  H29  1  0.07302167  0.49262487  0.36140525  1  0.065099  0  0.099441  0.136864  0  1.012005  0
H  H30  1  0.94776038  0.56818226  0.34622477  1  0.096303  0  0.105406  0.148989  0  0.976058  0
H  H31  1  0.05554047  0.42266199  0.65307286  1  0.058318  0  0.106224  0.148815  0  0.975689  0
H  H32  1  0.92811393  0.49599671  0.63844347  1  0.079036  0  0.099393  0.13705  0  1.011773  0
H  H33  1  0.05348112  0.57057923  0.65354747  1  0.059616  0  0.105392  0.148666  0  0.976552  0
H  H34  1  0.31640170  0.54761491  0.96306980  1  0.08021  0  0.104608  0.145949  0  0.975752  0
H  H35  1  0.28869345  0.43488400  0.00858583  1  0.071166  0  0.099443  0.135014  0  1.008418  0
H  H36  1  0.32060676  0.57031154  0.03493087  1  0.060797  0  0.105931  0.147396  0  0.978173  0
H  H37  1  0.69328603  0.45837609  0.96391647  1  0.060357  0  0.105046  0.146699  0  0.97538  0
H  H38  1  0.72201039  0.57282124  0.00809939  1  0.062751  0  0.09921  0.134875  0  1.010621  0
H  H39  1  0.69016875  0.43863231  0.03604867  1  0.079385  0  0.106091  0.147557  0  0.978372  0
H  H40  1  0.29747820  0.66764841  0.60832748  1  0.512962  0  0.283837  0.28947  0  1.042997  0
H  H41  1  0.23059158  0.75308068  0.65721214  1  0.421701  0  0.298399  0.290757  0  0.957117  0
H  H42  1  0.69851699  0.72701396  0.57730682  1  0.508784  0  0.286467  0.298044  0  1.022479  0
H  H43  1  0.76425195  0.83255371  0.61513489  1  0.39303  0  0.298359  0.291442  0  0.954148  0
H  H44  1  0.85712709  0.79811353  0.88262580  1  0.50186  0  0.288084  0.301212  0  1.015387  0
H  H45  1  0.78519524  0.73604126  0.82779603  1  0.430504  0  0.300643  0.295394  0  0.950991  0
H  H46  1  0.77562709  0.19219991  0.92206331  1  0.49124  0  0.282847  0.288256  0  1.047969  0
H  H47  1  0.66999551  0.25889292  0.88321345  1  0.409018  0  0.298253  0.291732  0  0.958977  0
H  H48  1  0.70922267  0.34148909  0.61068484  1  0.499109  0  0.284519  0.293835  0  1.037171  0
H  H49  1  0.77702269  0.25589029  0.65958736  1  0.423573  0  0.299783  0.294263  0  0.953609  0
H  H50  1  0.31042617  0.27440341  0.57720669  1  0.496444  0  0.287651  0.298482  0  1.019223  0
H  H51  1  0.24561287  0.16750547  0.61441017  1  0.42695  0  0.298509  0.29111  0  0.954806  0
H  H52  1  0.14924950  0.20609611  0.88163167  1  0.498009  0  0.287932  0.300705  0  1.01591  0
H  H53  1  0.22214657  0.26722012  0.82661053  1  0.426694  0  0.3006  0.295219  0  0.950935  0
H  H54  1  0.22757046  0.81125912  0.92148537  1  0.485557  0  0.282684  0.287957  0  1.048919  0
H  H55  1  0.33197687  0.74320138  0.88221366  1  0.416946  0  0.298034  0.290735  0  0.959485  0
H  H56  1  0.29294680  0.33918830  0.38991845  1  0.492002  0  0.284725  0.294224  0  1.036648  0
H  H57  1  0.22636381  0.25430903  0.34056225  1  0.425321  0  0.299686  0.293371  0  0.955376  0
H  H58  1  0.69199752  0.27314689  0.42386876  1  0.500015  0  0.287597  0.298212  0  1.018258  0
H  H59  1  0.75845406  0.16755274  0.38621850  1  0.393652  0  0.298405  0.290732  0  0.953922  0
H  H60  1  0.85748052  0.20355931  0.11789902  1  0.498191  0  0.288512  0.30012  0  1.012963  0
H  H61  1  0.78501256  0.26536618  0.17274798  1  0.415463  0  0.300785  0.295298  0  0.95142  0
H  H62  1  0.77386803  0.81090825  0.07680247  1  0.493729  0  0.283804  0.292159  0  1.037827  0
H  H63  1  0.66893381  0.74426613  0.11611449  1  0.428213  0  0.29853  0.292022  0  0.95708  0
H  H64  1  0.70506322  0.66385990  0.39128735  1  0.486784  0  0.284114  0.289655  0  1.042322  0
H  H65  1  0.77337779  0.74949643  0.34311460  1  0.437633  0  0.298281  0.290289  0  0.957822  0
H  H66  1  0.30415937  0.72804847  0.42136514  1  0.52463  0  0.286716  0.298527  0  1.022021  0
H  H67  1  0.23994543  0.83563070  0.38393846  1  0.404186  0  0.298468  0.291582  0  0.954782  0
H  H68  1  0.14784100  0.80291392  0.11784861  1  0.502376  0  0.288693  0.30053  0  1.01245  0
H  H69  1  0.22000706  0.74030106  0.17237354  1  0.424487  0  0.300674  0.294879  0  0.951138  0
H  H70  1  0.23245429  0.19569167  0.07741136  1  0.507677  0  0.283966  0.293045  0  1.03723  0
H  H71  1  0.33719743  0.26194287  0.11678692  1  0.418842  0  0.298829  0.292246  0  0.958102  0
C  C72  1  0.50161421  0.65348778  0.42047890  1  1.47299  0  0.208416  0.61455  0  4.122409  0
C  C73  1  0.49370984  0.34711795  0.42158160  1  1.473502  0  0.207811  0.61469  0  4.118424  0
C  C74  1  0.50806980  0.34912254  0.57938529  1  1.457521  0  0.207683  0.612627  0  4.123461  0
C  C75  1  0.50047523  0.65532958  0.57842889  1  1.485044  0  0.208827  0.615308  0  4.120902  0
C  C76  1  0.15823874  0.99974965  0.07837362  1  1.459745  0  0.207476  0.614655  0  4.119593  0
C  C77  1  0.15810339  0.00981087  0.92142637  1  1.465941  0  0.206977  0.614481  0  4.119586  0
C  C78  1  0.84832975  0.99491248  0.92157230  1  1.452356  0  0.207536  0.614983  0  4.116378  0
C  C79  1  0.84804762  0.00693933  0.07822783  1  1.462183  0  0.207651  0.613862  0  4.116743  0
C  C80  1  0.14154746  0.50096956  0.46589254  1  0.523055  0  0.068583  0.059921  0  3.87989  0
C  C81  1  0.16932647  0.49523783  0.56057066  1  0.479797  0  0.043875  0.008073  0  3.878279  0
C  C82  1  0.05517139  0.49749257  0.57282453  1  -0.008048  0  0.011893  0.108315  0  3.941374  0
C  C83  1  0.97865886  0.49964252  0.52756610  1  -0.042048  0  0.0076  -0.008488  0  3.973199  0
C  C84  1  0.85975402  0.50110667  0.53405919  1  0.532993  0  0.068068  0.059494  0  3.879658  0
C  C85  1  0.83206438  0.49315965  0.43941981  1  0.426405  0  0.043928  0.006756  0  3.879657  0
C  C86  1  0.94616975  0.49579736  0.42714492  1  0.044355  0  0.011759  0.109425  0  3.941354  0
C  C87  1  0.02266251  0.49918661  0.47238978  1  0.031463  0  0.007611  -0.008982  0  3.973176  0
C  C88  1  0.50382185  0.00099009  0.74910368  1  0.042023  0  0.020333  0.004746  0  3.727938  0
C  C89  1  0.40288875  0.00250336  0.78917614  1  -0.020954  0  -0.001182  0.132188  0  3.987302  0
C  C90  1  0.60387798  0.99984101  0.78951190  1  0.03303  0  -0.001718  0.131403  0  3.984847  0
C  C91  1  0.50381038  0.90085270  0.70913563  1  -0.126156  0  -0.000924  0.132967  0  3.984723  0
C  C92  1  0.50429589  0.10105650  0.70902528  1  -0.062018  0  -0.00098  0.133004  0  3.985063  0
C  C93  1  0.60308266  0.15860244  0.69663109  1  0.009971  0  -0.135511  -0.319606  0  4.006994  0
C  C94  1  0.40471940  0.84436762  0.69627872  1  0.105961  0  -0.135462  -0.320058  0  4.008761  0
C  C95  1  0.34621165  0.10173235  0.80202144  1  0.012926  0  -0.136446  -0.323221  0  4.00952  0
C  C96  1  0.66088706  0.90095874  0.80259956  1  -0.079606  0  -0.136479  -0.322195  0  4.007282  0
C  C97  1  0.60575401  0.24080669  0.65519139  1  0.419114  0  0.101104  0.33084  0  4.083176  0
C  C98  1  0.40206346  0.76331622  0.65441017  1  0.373897  0  0.100031  0.329884  0  4.078008  0
C  C99  1  0.26640594  0.10611095  0.84483961  1  0.391017  0  0.099757  0.328316  0  4.084662  0
C  C100  1  0.74005324  0.89715843  0.84554333  1  0.425004  0  0.099514  0.327849  0  4.085085  0
C  C101  1  0.50568672  0.26773722  0.62479956  1  0.032919  0  -0.051952  -0.293184  0  3.870573  0
C  C102  1  0.50251321  0.73580727  0.62420588  1  -0.016066  0  -0.051173  -0.292117  0  3.86847  0
C  C103  1  0.23977372  0.00709062  0.87579938  1  0.003057  0  -0.052761  -0.296114  0  3.868834  0
C  C104  1  0.76606204  0.99651564  0.87629856  1  0.00402  0  -0.052672  -0.296542  0  3.865733  0
C  C105  1  0.40432774  0.20825107  0.63875384  1  0.371753  0  0.097939  0.323046  0  4.083594  0
C  C106  1  0.60423063  0.79377154  0.63874125  1  0.405009  0  0.099  0.324796  0  4.084152  0
C  C107  1  0.29701625  0.90510923  0.86075337  1  0.399468  0  0.100449  0.330491  0  4.083989  0
C  C108  1  0.70774542  0.09784442  0.86131624  1  0.398556  0  0.099637  0.330368  0  4.083096  0
C  C109  1  0.40598703  0.12604229  0.67988394  1  0.011903  0  -0.132714  -0.3119  0  4.000828  0
C  C110  1  0.60249253  0.87529455  0.68021645  1  0.020968  0  -0.131913  -0.310684  0  3.997302  0
C  C111  1  0.37784192  0.90521562  0.81860374  1  -0.02782  0  -0.132664  -0.3112  0  3.996315  0
C  C112  1  0.62757936  0.09713433  0.81908022  1  -0.010454  0  -0.132044  -0.310143  0  3.994387  0
C  C113  1  0.50251043  0.00193121  0.25077996  1  0.031863  0  0.020145  0.004104  0  3.728156  0
C  C114  1  0.40261878  0.00178488  0.21029843  1  0.022098  0  -0.001441  0.131928  0  3.983303  0
C  C115  1  0.60348036  0.00259078  0.21069525  1  -0.018291  0  -0.001504  0.131923  0  3.984337  0
C  C116  1  0.50136945  0.10181152  0.29086810  1  -0.024803  0  -0.001107  0.133016  0  3.986055  0
C  C117  1  0.50185967  0.90167214  0.29074523  1  -0.120527  0  -0.001195  0.133553  0  3.983841  0
C  C118  1  0.60040650  0.84366145  0.30365657  1  0.039066  0  -0.134678  -0.318845  0  4.00612  0
C  C119  1  0.40186933  0.15880677  0.30325916  1  -0.03283  0  -0.134557  -0.318692  0  4.0068  0
C  C120  1  0.34537578  0.90344571  0.19717928  1  -0.047211  0  -0.136581  -0.323204  0  4.009198  0
C  C121  1  0.66059272  0.10124473  0.19774421  1  -0.049445  0  -0.136881  -0.323994  0  4.011004  0
C  C122  1  0.60196741  0.76187566  0.34527349  1  0.413612  0  0.099855  0.328964  0  4.077652  0
C  C123  1  0.39781517  0.24003700  0.34506098  1  0.436933  0  0.100874  0.331584  0  4.082456  0
C  C124  1  0.26612887  0.90062173  0.15431053  1  0.409123  0  0.098628  0.326299  0  4.082638  0
C  C125  1  0.73979563  0.10487438  0.15464729  1  0.450049  0  0.098482  0.326346  0  4.083112  0
C  C126  1  0.50094585  0.73512343  0.37510497  1  0.036997  0  -0.051072  -0.291528  0  3.867382  0
C  C127  1  0.49730916  0.26668730  0.37580487  1  -0.040369  0  -0.051798  -0.294749  0  3.870338  0
C  C128  1  0.24053023  0.00033798  0.12360790  1  0.006278  0  -0.052696  -0.295759  0  3.868361  0
C  C129  1  0.76574951  0.00560931  0.12365554  1  -0.029244  0  -0.051807  -0.294092  0  3.866689  0
C  C130  1  0.39992122  0.79492395  0.36058490  1  0.334076  0  0.099618  0.325882  0  4.086687  0
C  C131  1  0.59948722  0.20805246  0.36176512  1  0.436863  0  0.098664  0.324205  0  4.081134  0
C  C132  1  0.29915284  0.10111294  0.13854721  1  0.427895  0  0.100067  0.329199  0  4.087067  0
C  C133  1  0.70743395  0.90444499  0.13849251  1  0.424877  0  0.09992  0.328524  0  4.086019  0
C  C134  1  0.40279902  0.87720412  0.31945120  1  0.055982  0  -0.132624  -0.312725  0  4.000303  0
C  C135  1  0.59916155  0.12663610  0.32026686  1  0.004524  0  -0.133565  -0.312594  0  4.002384  0
C  C136  1  0.37922349  0.09946209  0.18082274  1  -0.047448  0  -0.132123  -0.309994  0  3.995531  0
C  C137  1  0.62741708  0.90529144  0.18099786  1  -0.027494  0  -0.131777  -0.30969  0  3.994268  0
C  C138  1  0.07634940  0.36357255  0.99844980  1  0.556612  0  0.071639  0.064699  0  3.872419  0
C  C139  1  0.88265908  0.33455850  0.00324099  1  0.406655  0  0.045986  0.010433  0  3.881408  0
C  C140  1  0.85657004  0.44778863  0.00169676  1  0.013383  0  0.012578  0.110402  0  3.943979  0
C  C141  1  0.94844095  0.52488225  0.99977856  1  -0.000672  0  0.009567  -0.006224  0  3.968773  0
C  C142  1  0.93379421  0.64311889  0.99884083  1  0.490615  0  0.07174  0.065063  0  3.87498  0
C  C143  1  0.12729709  0.67245101  0.00369596  1  0.422714  0  0.046684  0.012763  0  3.882488  0
C  C144  1  0.15363295  0.55926505  0.00175387  1  0.054389  0  0.012376  0.109401  0  3.945891  0
C  C145  1  0.06193085  0.48190724  0.99966652  1  -0.024702  0  0.009765  -0.006669  0  3.967385  0
C  C146  1  0.98151594  0.49406025  0.36770155  1  -0.114278  0  -0.226697  -0.413551  0  3.949617  0
C  C147  1  0.01964911  0.49655371  0.63225049  1  -0.079291  0  -0.226118  -0.412991  0  3.950153  0
C  C148  1  0.27585750  0.52502495  0.00227406  1  -0.115431  0  -0.225868  -0.412295  0  3.960462  0
C  C149  1  0.73446107  0.48242334  0.00261711  1  -0.079704  0  -0.226038  -0.412976  0  3.960455  0
N  N150  1  0.21111068  0.49876719  0.50845867  1  -1.255024  0  -0.312331  -0.178036  0  3.551084  0
N  N151  1  0.79024904  0.49762285  0.49150544  1  -1.250254  0  -0.312567  -0.178091  0  3.553846  0
N  N152  1  0.98975077  0.29337891  0.00046740  1  -1.211533  0  -0.306821  -0.175468  0  3.535627  0
N  N153  1  0.02013606  0.71344505  0.00100932  1  -1.243191  0  -0.308172  -0.176549  0  3.540483  0
N  N154  1  0.30036940  0.71134605  0.64429066  1  -1.280159  0  -0.610894  -0.637914  0  3.353591  0
N  N155  1  0.70594751  0.77066702  0.61321961  1  -1.244163  0  -0.610891  -0.637039  0  3.332652  0
N  N156  1  0.78784171  0.79457560  0.85791439  1  -1.272116  0  -0.610147  -0.638448  0  3.340225  0
N  N157  1  0.72986724  0.19855414  0.88677878  1  -1.252572  0  -0.612772  -0.638698  0  3.358976  0
N  N158  1  0.70650768  0.29471645  0.64576583  1  -1.277937  0  -0.609753  -0.638398  0  3.351969  0
N  N159  1  0.30263083  0.23070993  0.61312214  1  -1.271797  0  -0.611051  -0.638181  0  3.332954  0
N  N160  1  0.21876220  0.20895910  0.85687454  1  -1.270506  0  -0.609234  -0.636772  0  3.33999  0
N  N161  1  0.27314501  0.80450720  0.88604317  1  -1.257844  0  -0.612638  -0.637579  0  3.358159  0
N  N162  1  0.29637043  0.29320681  0.35461880  1  -1.272268  0  -0.61021  -0.638231  0  3.352264  0
N  N163  1  0.70069270  0.23043680  0.38771970  1  -1.236551  0  -0.610416  -0.637197  0  3.330462  0
N  N164  1  0.78743431  0.20748661  0.14228511  1  -1.254517  0  -0.608945  -0.637456  0  3.338888  0
N  N165  1  0.72914127  0.80393127  0.11252338  1  -1.277873  0  -0.611781  -0.637569  0  3.351434  0
N  N166  1  0.70312843  0.70829684  0.35549739  1  -1.266988  0  -0.611827  -0.638488  0  3.353599  0
N  N167  1  0.29772268  0.77286688  0.38571866  1  -1.252654  0  -0.611459  -0.637541  0  3.333323  0
N  N168  1  0.21803834  0.79828723  0.14191894  1  -1.268449  0  -0.609374  -0.637627  0  3.336802  0
N  N169  1  0.27741961  0.20197924  0.11296716  1  -1.283273  0  -0.612185  -0.638718  0  3.353994  0
O  O170  1  0.59439167  0.60234160  0.43252260  1  -1.18148  0  -0.321042  -0.559025  0  2.383069  0
O  O171  1  0.40992868  0.63485558  0.44771066  1  -1.171585  0  -0.321968  -0.553917  0  2.36179  0
O  O172  1  0.39972812  0.39681559  0.43352889  1  -1.174876  0  -0.323166  -0.555166  0  2.360062  0
O  O173  1  0.58413961  0.36608409  0.44934077  1  -1.181356  0  -0.320387  -0.558212  0  2.375061  0
O  O174  1  0.41717508  0.36867007  0.55199258  1  -1.174182  0  -0.320344  -0.557727  0  2.377168  0
O  O175  1  0.60162877  0.39900721  0.56737799  1  -1.167762  0  -0.322417  -0.55344  0  2.363929  0
O  O176  1  0.59161625  0.63617793  0.55076886  1  -1.175309  0  -0.322356  -0.55439  0  2.362596  0
O  O177  1  0.40717462  0.60572174  0.56640898  1  -1.17661  0  -0.321591  -0.55986  0  2.381203  0
O  O178  1  0.10379075  0.90866856  0.06782806  1  -1.174387  0  -0.320748  -0.558589  0  2.366643  0
O  O179  1  0.14183267  0.08997739  0.05001901  1  -1.176103  0  -0.3228  -0.557332  0  2.358267  0
O  O180  1  0.10479128  0.10214346  0.93200887  1  -1.168823  0  -0.322252  -0.552816  0  2.355872  0
O  O181  1  0.14107870  0.92049828  0.95025235  1  -1.177893  0  -0.32146  -0.562262  0  2.373294  0
O  O182  1  0.86569941  0.08479055  0.94985669  1  -1.178558  0  -0.321572  -0.563134  0  2.363288  0
O  O183  1  0.90201720  0.90285363  0.93225760  1  -1.171896  0  -0.323501  -0.554461  0  2.351828  0
O  O184  1  0.86489123  0.91683357  0.04986904  1  -1.178557  0  -0.322558  -0.556145  0  2.363652  0
O  O185  1  0.90203053  0.09834804  0.06749382  1  -1.179143  0  -0.320657  -0.557829  0  2.361989  0
