# generated using pymatgen
data_Zn4H11C26S4ClO13
_symmetry_space_group_name_H-M   'P 1'
_cell_length_a   19.67831564
_cell_length_b   19.66473670
_cell_length_c   33.40075319
_cell_angle_alpha   79.14508031
_cell_angle_beta   79.10690127
_cell_angle_gamma   63.89585345
_symmetry_Int_Tables_number   1
_chemical_formula_structural   Zn4H11C26S4ClO13
_chemical_formula_sum   'Zn16 H44 C104 S16 Cl4 O52'
_cell_volume   11316.15375041
_cell_formula_units_Z   4
loop_
 _symmetry_equiv_pos_site_id
 _symmetry_equiv_pos_as_xyz
  1  'x, y, z'
loop_
 _atom_site_type_symbol
 _atom_site_label
 _atom_site_symmetry_multiplicity
 _atom_site_fract_x
 _atom_site_fract_y
 _atom_site_fract_z
 _atom_site_occupancy
 _atom_site_pbe_bader_charge
 _atom_site_pbe_bader_spin_density
 _atom_site_pbe_cm5_charge
 _atom_site_pbe_ddec_charge
 _atom_site_pbe_ddec_spin_density
 _atom_site_pbe_ddec_sum_bond_order
 _atom_site_pbe_magmom
Zn  Zn0  1  0.05594380  0.39905883  0.47766835  1  1.320804  0  0.672134  0.974849  0  2.337344  0
Zn  Zn1  1  0.98478095  0.48364440  0.56012792  1  1.309444  0  0.670204  0.951471  0  2.384951  0
Zn  Zn2  1  0.05882779  0.56003169  0.48203741  1  1.315669  0  0.673111  0.962287  0  2.398685  0
Zn  Zn3  1  0.90145804  0.55531058  0.47963679  1  1.315803  0  0.673193  0.962283  0  2.398552  0
Zn  Zn4  1  0.69370136  0.34987041  0.27169849  1  1.319531  0  0.672093  0.969819  0  2.359639  0
Zn  Zn5  1  0.68890889  0.18916549  0.26644648  1  1.311636  0  0.671807  0.970375  0  2.348349  0
Zn  Zn6  1  0.76858627  0.26679375  0.19085580  1  1.310033  0  0.672246  0.960914  0  2.396056  0
Zn  Zn7  1  0.84778670  0.19480167  0.27230349  1  1.314617  0  0.669994  0.954123  0  2.387996  0
Zn  Zn8  1  0.26712527  0.76673646  0.68944321  1  1.307605  0  0.671301  0.962551  0  2.374682  0
Zn  Zn9  1  0.34892898  0.69618352  0.77184099  1  1.31262  0  0.671061  0.96273  0  2.360761  0
Zn  Zn10  1  0.19278717  0.84845513  0.77106239  1  1.318466  0  0.673403  0.97328  0  2.374394  0
Zn  Zn11  1  0.19089767  0.68854427  0.76672750  1  1.314649  0  0.670128  0.958277  0  2.377652  0
Zn  Zn12  1  0.56016525  0.06036102  0.98317352  1  1.317904  0  0.671419  0.965227  0  2.367115  0
Zn  Zn13  1  0.40113941  0.05534204  0.97838210  1  1.314998  0  0.671299  0.961766  0  2.37292  0
Zn  Zn14  1  0.55539617  0.90098556  0.97831267  1  1.314226  0  0.671278  0.968126  0  2.363214  0
Zn  Zn15  1  0.48312873  0.98327284  0.06036952  1  1.312702  0  0.671044  0.964978  0  2.365984  0
H  H16  1  0.95487933  0.24832584  0.35165062  1  0.084665  0  0.110399  0.117176  0  0.992148  0
H  H17  1  0.74730938  0.45351694  0.35010153  1  0.10809  0  0.112045  0.131563  0  0.992399  0
H  H18  1  0.99944805  0.29968836  0.39969310  1  0.093429  0  0.112894  0.120967  0  0.989413  0
H  H19  1  0.09679533  0.59658935  0.69992803  1  0.113895  0  0.110584  0.117774  0  0.992284  0
H  H20  1  0.20126641  0.70118594  0.59814874  1  0.091584  0  0.111768  0.131444  0  0.994186  0
H  H21  1  0.05036113  0.55028795  0.65028095  1  0.105052  0  0.110586  0.117478  0  0.994517  0
H  H22  1  0.46371741  0.23913884  0.34078328  1  0.126784  0  0.12  0.145602  0  0.970658  0
H  H23  1  0.47894130  0.70271078  0.60137393  1  0.112655  0  0.121218  0.147314  0  0.968192  0
H  H24  1  0.20306324  0.97858588  0.60125362  1  0.101464  0  0.120583  0.146353  0  0.969403  0
H  H25  1  0.94922453  0.97067760  0.34791804  1  0.130862  0  0.119432  0.144539  0  0.971693  0
H  H26  1  0.55007538  0.05005127  0.15329315  1  0.11547  0  0.111791  0.118862  0  0.989429  0
H  H27  1  0.65174493  0.15200540  0.04875989  1  0.105684  0  0.111169  0.130659  0  0.994239  0
H  H28  1  0.59978498  0.09968029  0.19959656  1  0.083675  0  0.112618  0.120832  0  0.991138  0
H  H29  1  0.54700214  0.77164922  0.14849015  1  0.104909  0  0.120543  0.146615  0  0.969271  0
H  H30  1  0.16283282  0.14143683  0.04011339  1  0.130885  0  0.120678  0.146379  0  0.969295  0
H  H31  1  0.50170095  0.79489836  0.89830365  1  0.131477  0  0.111422  0.119088  0  0.989652  0
H  H32  1  0.29679422  0.00274538  0.89972040  1  0.136015  0  0.110851  0.129634  0  0.994698  0
H  H33  1  0.45043113  0.75030661  0.85027552  1  0.088164  0  0.11143  0.118812  0  0.991427  0
H  H34  1  0.30066589  0.27927098  0.90222840  1  0.1324  0  0.12034  0.145941  0  0.969942  0
H  H35  1  0.78630629  0.01074483  0.90920641  1  0.130484  0  0.120692  0.146593  0  0.969194  0
H  H36  1  0.23137367  0.57556013  0.39911978  1  0.097896  0  0.102059  0.148406  0  0.976757  0
H  H37  1  0.33069118  0.55101540  0.39696982  1  0.03934  0  0.090192  0.127319  0  1.000251  0
H  H38  1  0.27599811  0.53582679  0.44405416  1  0.09503  0  0.099918  0.145654  0  0.983171  0
H  H39  1  0.82120063  0.47687972  0.65355303  1  0.073046  0  0.100563  0.144634  0  0.98252  0
H  H40  1  0.75722938  0.53666148  0.69102502  1  0.024412  0  0.090001  0.126238  0  1.001436  0
H  H41  1  0.82391627  0.56414769  0.65596314  1  0.077154  0  0.10193  0.147567  0  0.976828  0
H  H42  1  0.06434647  0.32366654  0.65607220  1  0.079093  0  0.101488  0.146708  0  0.977282  0
H  H43  1  0.03655149  0.25706683  0.69098351  1  0.026503  0  0.090624  0.127068  0  1.000532  0
H  H44  1  0.97709346  0.32123368  0.65349004  1  0.073985  0  0.099905  0.14341  0  0.983743  0
H  H45  1  0.79817828  0.72186002  0.38984604  1  0.077781  0  0.100401  0.146322  0  0.982133  0
H  H46  1  0.73196155  0.81985046  0.38625208  1  0.047209  0  0.090436  0.127545  0  0.999774  0
H  H47  1  0.75847750  0.76673424  0.43474334  1  0.099578  0  0.102582  0.149102  0  0.976398  0
H  H48  1  0.77293247  0.42875538  0.09661762  1  0.080412  0  0.102168  0.148755  0  0.976614  0
H  H49  1  0.71321903  0.49272302  0.05919909  1  0.0322  0  0.090101  0.126901  0  1.000183  0
H  H50  1  0.68581456  0.42595017  0.09418135  1  0.075517  0  0.100421  0.146302  0  0.982808  0
H  H51  1  0.07228743  0.14816530  0.23986814  1  0.052093  0  0.102064  0.146744  0  0.977773  0
H  H52  1  0.15793592  0.06951199  0.22405991  1  0.021326  0  0.090537  0.126901  0  1.000925  0
H  H53  1  0.06951579  0.06096434  0.23736793  1  0.083308  0  0.101922  0.147036  0  0.977529  0
H  H54  1  0.49152835  0.48304429  0.81521320  1  0.098056  0  0.102479  0.14814  0  0.977418  0
H  H55  1  0.51791178  0.43016255  0.86377007  1  0.047243  0  0.090868  0.127599  0  1.000396  0
H  H56  1  0.45159346  0.52811984  0.86004614  1  0.069329  0  0.102415  0.148205  0  0.975999  0
H  H57  1  0.97356667  0.71414637  0.80600048  1  0.094146  0  0.101422  0.146324  0  0.977261  0
H  H58  1  0.91936225  0.69842255  0.85319005  1  0.04903  0  0.090284  0.126686  0  1.001114  0
H  H59  1  0.01867339  0.67426552  0.85077669  1  0.08013  0  0.102309  0.148393  0  0.976508  0
C  C60  1  0.06148884  0.31560388  0.56154968  1  1.566069  0  0.21514  0.614277  0  4.215346  0
C  C61  1  0.06851122  0.56895230  0.56955900  1  1.590143  0  0.226816  0.615316  0  4.163307  0
C  C62  1  0.18422106  0.43833967  0.43831644  1  1.528709  0  0.215227  0.613413  0  4.216186  0
C  C63  1  0.93839733  0.68441787  0.43855362  1  1.550769  0  0.215466  0.61268  0  4.214549  0
C  C64  1  0.93150392  0.43008001  0.43077054  1  1.574932  0  0.22742  0.616706  0  4.160484  0
C  C65  1  0.81592558  0.56187313  0.56172913  1  1.565522  0  0.21508  0.612324  0  4.218328  0
C  C66  1  0.56545011  0.31110021  0.31141193  1  1.564415  0  0.216744  0.610239  0  4.217722  0
C  C67  1  0.68062753  0.18038186  0.18123392  1  1.592493  0  0.22773  0.617051  0  4.160038  0
C  C68  1  0.68879511  0.43460137  0.18871109  1  1.515053  0  0.215052  0.613107  0  4.214701  0
C  C69  1  0.93459713  0.18880827  0.18883085  1  1.539274  0  0.214866  0.61291  0  4.215216  0
C  C70  1  0.81984396  0.31906886  0.31928695  1  1.572495  0  0.230492  0.605794  0  4.162143  0
C  C71  1  0.81205495  0.06552438  0.31146905  1  1.544982  0  0.21749  0.610719  0  4.216452  0
C  C72  1  0.43413711  0.68882514  0.68818283  1  1.559566  0  0.217172  0.610542  0  4.218783  0
C  C73  1  0.32003377  0.81837189  0.81910350  1  1.5698  0  0.227005  0.615689  0  4.159454  0
C  C74  1  0.18869567  0.93385224  0.68799349  1  1.555792  0  0.21715  0.609384  0  4.221891  0
C  C75  1  0.06533473  0.81121370  0.81124620  1  1.575327  0  0.215554  0.614831  0  4.213914  0
C  C76  1  0.18050832  0.68041790  0.68069049  1  1.55604  0  0.230154  0.605293  0  4.16308  0
C  C77  1  0.31144592  0.56566291  0.81141984  1  1.548481  0  0.214923  0.614354  0  4.212583  0
C  C78  1  0.43796784  0.18433278  0.93859247  1  1.540709  0  0.217779  0.610492  0  4.216507  0
C  C79  1  0.43103930  0.93022749  0.93064867  1  1.570112  0  0.23081  0.605775  0  4.161395  0
C  C80  1  0.68418209  0.93913399  0.93856723  1  1.563829  0  0.217573  0.610419  0  4.217212  0
C  C81  1  0.56123923  0.81596084  0.06168869  1  1.56481  0  0.217424  0.610188  0  4.219055  0
C  C82  1  0.56909054  0.06934753  0.06956133  1  1.561005  0  0.230572  0.604671  0  4.161627  0
C  C83  1  0.31537141  0.06183468  0.06122490  1  1.527575  0  0.217067  0.610158  0  4.217319  0
C  C84  1  0.89951361  0.40485691  0.40198474  1  -0.010735  0  -0.014379  -0.093261  0  3.910241  0
C  C85  1  0.84828260  0.34806468  0.34793074  1  -0.033559  0  -0.009453  -0.00855  0  3.971533  0
C  C86  1  0.82756621  0.44838858  0.38762813  1  0.107158  0  0.026665  0.145468  0  3.995573  0
C  C87  1  0.91971736  0.30420115  0.36183926  1  0.005531  0  -0.082518  -0.100636  0  3.977895  0
C  C88  1  0.80279439  0.41969723  0.36090117  1  0.043942  0  -0.085426  -0.162145  0  3.947625  0
C  C89  1  0.94424234  0.33274847  0.38841437  1  -0.030401  0  -0.077145  -0.075858  0  3.968993  0
C  C90  1  0.09914057  0.59913967  0.59655007  1  0.021856  0  -0.014299  -0.091562  0  3.908313  0
C  C91  1  0.15182322  0.65186848  0.65193195  1  -0.040688  0  -0.009199  -0.006083  0  3.970048  0
C  C92  1  0.14240974  0.64220862  0.58196223  1  0.006161  0  0.026502  0.145647  0  3.998225  0
C  C93  1  0.10916884  0.60914440  0.66691583  1  -0.002232  0  -0.082674  -0.102274  0  3.978899  0
C  C94  1  0.16810657  0.66804396  0.60965653  1  0.060557  0  -0.085528  -0.163516  0  3.95119  0
C  C95  1  0.08359615  0.58357632  0.63937246  1  -0.000209  0  -0.078344  -0.077116  0  3.972454  0
C  C96  1  0.30365381  0.45530040  0.40132514  1  0.043172  0  -0.00256  0.146472  0  3.966221  0
C  C97  1  0.44622780  0.29598403  0.34889194  1  0.034626  0  -0.089072  -0.133604  0  3.96766  0
C  C98  1  0.25902489  0.41437567  0.41372701  1  -0.152034  0  -0.029453  -0.195358  0  3.93946  0
C  C99  1  0.49075410  0.33627842  0.33643786  1  -0.168461  0  -0.025607  -0.119548  0  3.989172  0
C  C100  1  0.37798345  0.33868077  0.37254754  1  -0.139531  0  -0.023882  -0.004949  0  4.097231  0
C  C101  1  0.37165772  0.41094304  0.37774169  1  -0.142816  0  -0.022996  -0.080358  0  4.043956  0
C  C102  1  0.72717708  0.57531558  0.62972520  1  0.024738  0  -0.004258  0.142747  0  3.972933  0
C  C103  1  0.52402736  0.67362986  0.62112344  1  -0.002344  0  -0.088081  -0.132741  0  3.963405  0
C  C104  1  0.74177996  0.58589522  0.58701795  1  -0.148792  0  -0.028912  -0.193737  0  3.940342  0
C  C105  1  0.50919126  0.66348485  0.66350231  1  -0.087113  0  -0.025778  -0.118532  0  3.988254  0
C  C106  1  0.60318930  0.64177602  0.60844625  1  -0.155095  0  -0.023183  -0.004653  0  4.093704  0
C  C107  1  0.64742541  0.60775030  0.64146068  1  -0.127956  0  -0.023546  -0.079668  0  4.04503  0
C  C108  1  0.07547139  0.22699780  0.62964483  1  0.018442  0  -0.004167  0.143215  0  3.96953  0
C  C109  1  0.17402753  0.02373159  0.62100848  1  0.002646  0  -0.088573  -0.133842  0  3.967287  0
C  C110  1  0.08592338  0.24148769  0.58690627  1  -0.084781  0  -0.028682  -0.194837  0  3.939288  0
C  C111  1  0.16379484  0.00892803  0.66338418  1  -0.09194  0  -0.025706  -0.119026  0  3.988946  0
C  C112  1  0.14212547  0.10290293  0.60836070  1  -0.153177  0  -0.023353  -0.003372  0  4.096229  0
C  C113  1  0.10806690  0.14720243  0.64139570  1  -0.175399  0  -0.023701  -0.08193  0  4.045597  0
C  C114  1  0.84335834  0.79983258  0.39744298  1  0.111425  0  -0.002587  0.146959  0  3.968733  0
C  C115  1  0.90520260  0.94977820  0.35253435  1  0.090677  0  -0.089546  -0.134417  0  3.967828  0
C  C116  1  0.91271585  0.75879386  0.41354482  1  -0.175918  0  -0.028786  -0.195609  0  3.939732  0
C  C117  1  0.83650364  0.99075866  0.33645227  1  -0.207159  0  -0.026224  -0.119804  0  3.989722  0
C  C118  1  0.90845477  0.88011294  0.37475763  1  -0.204996  0  -0.023219  -0.003878  0  4.094846  0
C  C119  1  0.84197967  0.86921833  0.37527989  1  -0.162988  0  -0.0231  -0.080007  0  4.042622  0
C  C120  1  0.65341735  0.15356446  0.15081998  1  -0.062781  0  -0.014511  -0.092648  0  3.908349  0
C  C121  1  0.59797649  0.09811751  0.09812740  1  0.015767  0  -0.008984  -0.007463  0  3.968828  0
C  C122  1  0.66787864  0.16823696  0.10766199  1  0.101413  0  0.026779  0.145838  0  3.998242  0
C  C123  1  0.58305566  0.08311340  0.14080756  1  -0.029045  0  -0.081662  -0.098979  0  3.974348  0
C  C124  1  0.64022830  0.14048182  0.08189818  1  0.003511  0  -0.085367  -0.162897  0  3.950248  0
C  C125  1  0.61063097  0.11067327  0.16636029  1  -0.004707  0  -0.076822  -0.07659  0  3.970837  0
C  C126  1  0.67447090  0.52289168  0.12050769  1  -0.005181  0  -0.002757  0.146477  0  3.966902  0
C  C127  1  0.57605327  0.72635216  0.12882259  1  0.000876  0  -0.088341  -0.133458  0  3.965066  0
C  C128  1  0.66398290  0.50861694  0.16326545  1  -0.075384  0  -0.028365  -0.194289  0  3.93622  0
C  C129  1  0.58633446  0.74095968  0.08642426  1  -0.086518  0  -0.026233  -0.120324  0  3.988587  0
C  C130  1  0.60784013  0.64720067  0.14159690  1  -0.159918  0  -0.022976  -0.00364  0  4.094587  0
C  C131  1  0.64190448  0.60267612  0.10865604  1  -0.177849  0  -0.023308  -0.080852  0  4.042668  0
C  C132  1  0.08096417  0.12410162  0.17841730  1  0.02404  0  -0.003131  0.144053  0  3.971274  0
C  C133  1  0.16979235  0.12515369  0.07255463  1  0.029126  0  -0.088273  -0.132502  0  3.964568  0
C  C134  1  0.00958727  0.16331759  0.16436683  1  -0.116206  0  -0.029036  -0.194573  0  3.938432  0
C  C135  1  0.24076047  0.08647098  0.08636923  1  -0.124064  0  -0.025539  -0.120147  0  3.988624  0
C  C136  1  0.11113650  0.13919981  0.10577457  1  -0.223421  0  -0.023481  -0.004674  0  4.094249  0
C  C137  1  0.13847615  0.11082660  0.14441861  1  -0.181867  0  -0.022711  -0.079081  0  4.04375  0
C  C138  1  0.34535964  0.85040464  0.84784756  1  0.058338  0  -0.014075  -0.092547  0  3.907398  0
C  C139  1  0.40218082  0.90172911  0.90192650  1  -0.024087  0  -0.009338  -0.0087  0  3.969095  0
C  C140  1  0.30193505  0.92247447  0.86217224  1  0.030999  0  0.026438  0.145624  0  3.998581  0
C  C141  1  0.44595594  0.83016867  0.88804317  1  -0.033998  0  -0.081979  -0.100762  0  3.975849  0
C  C142  1  0.33065366  0.94723818  0.88890010  1  0.017516  0  -0.085084  -0.160612  0  3.946915  0
C  C143  1  0.41737916  0.80563787  0.86147253  1  -0.032842  0  -0.077511  -0.075775  0  3.969368  0
C  C144  1  0.40656861  0.45006065  0.85251928  1  0.044545  0  -0.002795  0.145718  0  3.96942  0
C  C145  1  0.34472130  0.30012835  0.89755254  1  0.088015  0  -0.088474  -0.133514  0  3.965089  0
C  C146  1  0.33725224  0.49112488  0.83637726  1  -0.113143  0  -0.029277  -0.19642  0  3.939203  0
C  C147  1  0.41342134  0.25915463  0.91364126  1  -0.198274  0  -0.025567  -0.118815  0  3.9873  0
C  C148  1  0.34153234  0.36973667  0.87525402  1  -0.195987  0  -0.023147  -0.003263  0  4.094766  0
C  C149  1  0.40800247  0.38064549  0.87469902  1  -0.165344  0  -0.023295  -0.080785  0  4.043721  0
C  C150  1  0.94609996  0.79435899  0.84877861  1  0.08214  0  -0.003833  0.144293  0  3.970401  0
C  C151  1  0.80370563  0.95387543  0.90114603  1  0.03849  0  -0.087994  -0.13269  0  3.963003  0
C  C152  1  0.99084345  0.83511888  0.83623247  1  -0.205469  0  -0.027939  -0.194463  0  3.937385  0
C  C153  1  0.75900797  0.91374460  0.91362764  1  -0.182511  0  -0.025474  -0.118944  0  3.986903  0
C  C154  1  0.87196677  0.91102609  0.87751534  1  -0.136035  0  -0.022922  -0.003612  0  4.092276  0
C  C155  1  0.87815835  0.83877914  0.87238351  1  -0.152433  0  -0.023326  -0.08121  0  4.043975  0
C  C156  1  0.28471525  0.53356095  0.41077955  1  -0.083724  0  -0.231843  -0.396193  0  3.961007  0
C  C157  1  0.78521935  0.53623888  0.65930496  1  -0.053661  0  -0.232073  -0.394766  0  3.966586  0
C  C158  1  0.03634421  0.28507530  0.65927996  1  -0.059822  0  -0.232363  -0.394239  0  3.965937  0
C  C159  1  0.77940690  0.77610386  0.40221961  1  -0.102889  0  -0.232059  -0.396556  0  3.960539  0
C  C160  1  0.71361339  0.46474485  0.09091644  1  -0.037603  0  -0.232328  -0.396757  0  3.961173  0
C  C161  1  0.09636679  0.09919947  0.22221538  1  -0.023168  0  -0.231783  -0.393776  0  3.964746  0
C  C162  1  0.47051151  0.47380489  0.84773590  1  -0.09458  0  -0.232574  -0.39677  0  3.963436  0
C  C163  1  0.96512174  0.71612442  0.83928899  1  -0.08096  0  -0.231797  -0.39516  0  3.962903  0
S  S164  1  0.29928599  0.32442807  0.39703623  1  0.251293  0  0.072427  0.112335  0  2.757199  0
S  S165  1  0.45023052  0.42588644  0.35330898  1  0.248646  0  0.079222  0.119674  0  2.763161  0
S  S166  1  0.66020352  0.63401191  0.56206654  1  0.247929  0  0.075266  0.11556  0  2.75705  0
S  S167  1  0.59089997  0.61535032  0.68813170  1  0.247686  0  0.075616  0.113836  0  2.766779  0
S  S168  1  0.13421105  0.15982225  0.56197448  1  0.249206  0  0.074253  0.114787  0  2.757719  0
S  S169  1  0.11559376  0.09069204  0.68806204  1  0.244295  0  0.079363  0.120092  0  2.761986  0
S  S170  1  0.97422052  0.80391111  0.40182689  1  0.264546  0  0.07206  0.111826  0  2.757861  0
S  S171  1  0.77564535  0.94521972  0.34821064  1  0.260423  0  0.078801  0.11905  0  2.76488  0
S  S172  1  0.61559866  0.59049290  0.18806365  1  0.257819  0  0.073963  0.114354  0  2.753529  0
S  S173  1  0.63447827  0.65897111  0.06191591  1  0.249656  0  0.078  0.118121  0  2.763159  0
S  S174  1  0.01304020  0.18312384  0.11107541  1  0.301288  0  0.074102  0.113773  0  2.755053  0
S  S175  1  0.23673787  0.06687946  0.13954900  1  0.251059  0  0.0777  0.117966  0  2.763926  0
S  S176  1  0.27583443  0.44588282  0.84809779  1  0.260225  0  0.070549  0.109938  0  2.757735  0
S  S177  1  0.47431935  0.30467901  0.90181368  1  0.254322  0  0.078942  0.119181  0  2.763654  0
S  S178  1  0.95076197  0.92508115  0.85295482  1  0.255894  0  0.074891  0.115617  0  2.753003  0
S  S179  1  0.79945041  0.82405862  0.89684774  1  0.256016  0  0.077574  0.117563  0  2.763324  0
Cl  Cl180  1  0.76469697  0.53788287  0.40085254  1  -0.184887  0  -0.013244  -0.07613  0  1.485782  0
Cl  Cl181  1  0.16737528  0.66673619  0.53064180  1  -0.181174  0  -0.011552  -0.074214  0  1.486725  0
Cl  Cl182  1  0.71907325  0.21975193  0.08288266  1  -0.171757  0  -0.013209  -0.075978  0  1.486187  0
Cl  Cl183  1  0.21260431  0.98524391  0.84895862  1  -0.179832  0  -0.012387  -0.073468  0  1.484214  0
O  O184  1  0.00101572  0.49774118  0.50002308  1  -1.226448  0  -0.571604  -1.026424  0  2.534964  0
O  O185  1  0.07789543  0.31457450  0.52259877  1  -1.183643  0  -0.322171  -0.551279  0  2.331718  0
O  O186  1  0.03028736  0.53101197  0.58769855  1  -1.164581  0  -0.315726  -0.545524  0  2.321139  0
O  O187  1  0.15555465  0.50490358  0.44984183  1  -1.171374  0  -0.311269  -0.533251  0  2.351388  0
O  O188  1  0.02596027  0.37478014  0.58051073  1  -1.178197  0  -0.313376  -0.538018  0  2.349073  0
O  O189  1  0.15390017  0.39067098  0.44609029  1  -1.16092  0  -0.323346  -0.553498  0  2.332181  0
O  O190  1  0.08246939  0.58310743  0.53100609  1  -1.187439  0  -0.313523  -0.547169  0  2.439271  0
O  O191  1  0.00555893  0.65727986  0.44932263  1  -1.173937  0  -0.323356  -0.550186  0  2.336765  0
O  O192  1  0.89083161  0.49512358  0.44289717  1  -1.173003  0  -0.315003  -0.548225  0  2.443063  0
O  O193  1  0.89203071  0.65280685  0.44763439  1  -1.159001  0  -0.310578  -0.533957  0  2.347466  0
O  O194  1  0.99746524  0.38386651  0.44087366  1  -1.166614  0  -0.313083  -0.543685  0  2.315197  0
O  O195  1  0.87528719  0.52594129  0.58039567  1  -1.17923  0  -0.312601  -0.538931  0  2.346341  0
O  O196  1  0.81474784  0.57923508  0.52279596  1  -1.174052  0  -0.322179  -0.547862  0  2.339523  0
O  O197  1  0.74900323  0.24994108  0.25093569  1  -1.216873  0  -0.570926  -1.027468  0  2.528261  0
O  O198  1  0.59625916  0.35829612  0.30350666  1  -1.183709  0  -0.321198  -0.548928  0  2.3362  0
O  O199  1  0.66274961  0.16208427  0.21928090  1  -1.152863  0  -0.313772  -0.544989  0  2.316994  0
O  O200  1  0.72506278  0.37528166  0.16995501  1  -1.169874  0  -0.310106  -0.533123  0  2.347992  0
O  O201  1  0.59273927  0.24477935  0.29985183  1  -1.170669  0  -0.317762  -0.541818  0  2.313927  0
O  O202  1  0.67213046  0.43564841  0.22769622  1  -1.147486  0  -0.322935  -0.551939  0  2.331005  0
O  O203  1  0.71919700  0.21897830  0.16710954  1  -1.175992  0  -0.314566  -0.548393  0  2.440378  0
O  O204  1  0.87664466  0.22503492  0.16887317  1  -1.169142  0  -0.32231  -0.548748  0  2.337329  0
O  O205  1  0.86399384  0.25330110  0.30836830  1  -1.169376  0  -0.313036  -0.543673  0  2.337435  0
O  O206  1  0.93298623  0.17301814  0.22784697  1  -1.145711  0  -0.311601  -0.537788  0  2.344965  0
O  O207  1  0.75412785  0.36238362  0.30827852  1  -1.178628  0  -0.310885  -0.53912  0  2.333684  0
O  O208  1  0.74573354  0.09302999  0.29982524  1  -1.175494  0  -0.320973  -0.551061  0  2.334173  0
O  O209  1  0.85924590  0.09616893  0.30359333  1  -1.158808  0  -0.319198  -0.540569  0  2.31545  0
O  O210  1  0.25052221  0.74933954  0.74960459  1  -1.223562  0  -0.570912  -1.028082  0  2.528349  0
O  O211  1  0.37602085  0.72429207  0.66856968  1  -1.16685  0  -0.317743  -0.539819  0  2.314444  0
O  O212  1  0.36616345  0.75210400  0.80914662  1  -1.164183  0  -0.315163  -0.545434  0  2.3189  0
O  O213  1  0.17214474  0.93376637  0.72696341  1  -1.167177  0  -0.319978  -0.546585  0  2.339108  0
O  O214  1  0.43400099  0.67302160  0.72718379  1  -1.176003  0  -0.322103  -0.551783  0  2.336985  0
O  O215  1  0.22443412  0.87557920  0.66842602  1  -1.162538  0  -0.318064  -0.541309  0  2.316143  0
O  O216  1  0.25523549  0.85886496  0.80678134  1  -1.17371  0  -0.312457  -0.546603  0  2.435988  0
O  O217  1  0.09534033  0.85919021  0.80331935  1  -1.179472  0  -0.321908  -0.549251  0  2.335998  0
O  O218  1  0.16387760  0.66410094  0.71900468  1  -1.169739  0  -0.311898  -0.542949  0  2.335003  0
O  O219  1  0.09415699  0.74487692  0.79943223  1  -1.17288  0  -0.311916  -0.538592  0  2.345206  0
O  O220  1  0.21912490  0.71854502  0.66439665  1  -1.15654  0  -0.31199  -0.540451  0  2.336069  0
O  O221  1  0.35724795  0.59794679  0.80298195  1  -1.158856  0  -0.311745  -0.538147  0  2.343053  0
O  O222  1  0.24473035  0.59210968  0.80014751  1  -1.172374  0  -0.323753  -0.551587  0  2.334404  0
O  O223  1  0.49994178  0.99996674  0.00006787  1  -1.228062  0  -0.570194  -1.02888  0  2.523248  0
O  O224  1  0.50440614  0.15694711  0.95014321  1  -1.173929  0  -0.321254  -0.549722  0  2.335169  0
O  O225  1  0.38743143  0.99594574  0.94175478  1  -1.17925  0  -0.312496  -0.541135  0  2.336396  0
O  O226  1  0.65314567  0.89213422  0.94652235  1  -1.181323  0  -0.321083  -0.549426  0  2.335366  0
O  O227  1  0.39106315  0.15341614  0.94650522  1  -1.156681  0  -0.317676  -0.54011  0  2.313357  0
O  O228  1  0.65684843  0.00554303  0.95003019  1  -1.172869  0  -0.317681  -0.540209  0  2.313866  0
O  O229  1  0.49675521  0.88636605  0.94156882  1  -1.167331  0  -0.310753  -0.541302  0  2.331927  0
O  O230  1  0.57715561  0.81590725  0.02268253  1  -1.179116  0  -0.321603  -0.549581  0  2.336359  0
O  O231  1  0.53072085  0.03105052  0.08605634  1  -1.160259  0  -0.311004  -0.541656  0  2.332096  0
O  O232  1  0.52590836  0.87433186  0.08119613  1  -1.173114  0  -0.317703  -0.540182  0  2.314968  0
O  O233  1  0.58525690  0.08559534  0.03117548  1  -1.174604  0  -0.311916  -0.539774  0  2.334853  0
O  O234  1  0.31524233  0.07781253  0.02232908  1  -1.143548  0  -0.317696  -0.540017  0  2.314529  0
O  O235  1  0.37387158  0.02651696  0.08071397  1  -1.169606  0  -0.321216  -0.549838  0  2.335246  0
