# generated using pymatgen
data_Zn4H26C47S10(N2O9)2
_symmetry_space_group_name_H-M   'P 1'
_cell_length_a   11.44561902
_cell_length_b   12.73665371
_cell_length_c   23.91195053
_cell_angle_alpha   90.14880684
_cell_angle_beta   89.72361088
_cell_angle_gamma   89.94473337
_symmetry_Int_Tables_number   1
_chemical_formula_structural   Zn4H26C47S10(N2O9)2
_chemical_formula_sum   'Zn4 H26 C47 S10 N4 O18'
_cell_volume   3485.80352899
_cell_formula_units_Z   1
loop_
 _symmetry_equiv_pos_site_id
 _symmetry_equiv_pos_as_xyz
  1  'x, y, z'
loop_
 _atom_site_type_symbol
 _atom_site_label
 _atom_site_symmetry_multiplicity
 _atom_site_fract_x
 _atom_site_fract_y
 _atom_site_fract_z
 _atom_site_occupancy
 _atom_site_pbe_bader_charge
 _atom_site_pbe_bader_spin_density
 _atom_site_pbe_cm5_charge
 _atom_site_pbe_ddec_charge
 _atom_site_pbe_ddec_spin_density
 _atom_site_pbe_ddec_sum_bond_order
 _atom_site_pbe_magmom
Zn  Zn0  1  0.62104525  0.50000627  0.49894423  1  1.275751  0  0.666694  0.838677  0  2.402719  0
Zn  Zn1  1  0.37846776  0.49696145  0.49875727  1  1.291116  0  0.665064  0.829713  0  2.440777  0
Zn  Zn2  1  0.37757853  0.50244481  0.96620713  1  1.300028  0  0.666501  0.843229  0  2.399645  0
Zn  Zn3  1  0.62039575  0.49885509  0.96370656  1  1.270632  0  0.665223  0.831183  0  2.433867  0
H  H4  1  0.16653268  0.60157515  0.56515715  1  0.155456  0  0.148819  0.141811  0  0.939998  0
H  H5  1  0.30846619  0.85775091  0.49872351  1  0.126574  0  0.113146  0.137451  0  0.981256  0
H  H6  1  0.76887375  0.57253710  0.78643040  1  0.019635  0  0.08473  0.085912  0  1.000411  0
H  H7  1  0.76846891  0.43227726  0.78695343  1  0.025644  0  0.090839  0.098191  0  0.987285  0
H  H8  1  0.77357025  0.43101580  0.68181507  1  0.040917  0  0.089314  0.097031  0  0.991239  0
H  H9  1  0.77369117  0.57114909  0.68163775  1  0.022939  0  0.083324  0.085963  0  1.009267  0
H  H10  1  0.68913143  0.50064978  0.15611429  1  0.115488  0  0.113117  0.137107  0  0.984195  0
H  H11  1  0.83199877  0.60135503  0.89841393  1  0.146943  0  0.147167  0.137315  0  0.949909  0
H  H12  1  0.69122212  0.86022289  0.96560143  1  0.090688  0  0.113512  0.138288  0  0.980521  0
H  H13  1  0.79071195  0.42848169  0.38517274  1  0.123298  0  0.103047  0.161399  0  1.008847  0
H  H14  1  0.89722026  0.33034534  0.40163542  1  0.012548  0  0.097861  0.141577  0  0.985164  0
H  H15  1  0.75552138  0.33090596  0.43438684  1  0.135182  0  0.110324  0.171603  0  1.005616  0
H  H16  1  0.73756688  0.20762597  0.53072352  1  0.064022  0  0.098759  0.148101  0  0.992227  0
H  H17  1  0.77478927  0.07208721  0.52133921  1  0.036851  0  0.089797  0.126579  0  0.999197  0
H  H18  1  0.75725763  0.15545695  0.46269422  1  0.02505  0  0.094719  0.131062  0  0.994821  0
H  H19  1  0.25644078  0.56651304  0.33668351  1  0.065861  0  0.09723  0.142838  0  0.987245  0
H  H20  1  0.21995517  0.50358753  0.27215726  1  0.035167  0  0.086073  0.122391  0  1.004711  0
H  H21  1  0.25582862  0.42865117  0.33271911  1  0.054227  0  0.090669  0.129301  0  1.009882  0
H  H22  1  0.20879367  0.43142065  0.07978372  1  0.109346  0  0.10297  0.160062  0  1.008019  0
H  H23  1  0.10136868  0.33394350  0.06358438  1  0.045965  0  0.098369  0.142618  0  0.984668  0
H  H24  1  0.24237115  0.33343436  0.03020775  1  0.125681  0  0.110614  0.171915  0  1.004583  0
H  H25  1  0.26059618  0.20894813  0.93292128  1  0.084977  0  0.098809  0.147969  0  0.990656  0
H  H26  1  0.22384299  0.07353520  0.94250864  1  0.038212  0  0.089945  0.126815  0  0.998679  0
H  H27  1  0.24129577  0.15776639  0.00104986  1  0.066518  0  0.094305  0.130194  0  0.995162  0
H  H28  1  0.30893411  0.49625722  0.63436660  1  0.623711  0  0.295405  0.338054  0  1.001024  0
H  H29  1  0.29993940  0.49835327  0.82689092  1  0.662274  0  0.291127  0.332507  0  1.010024  0
C  C30  1  0.49200349  0.70324588  0.50142300  1  1.525958  0  0.205201  0.601634  0  4.212745  0
C  C31  1  0.50269615  0.49826992  0.60989802  1  1.45373  0  0.215854  0.61795  0  4.135911  0
C  C32  1  0.50006723  0.29247247  0.49861801  1  1.492246  0  0.206029  0.606774  0  4.208092  0
C  C33  1  0.49891336  0.50041396  0.38896061  1  1.509967  0  0.206575  0.604326  0  4.209743  0
C  C34  1  0.50844495  0.70524863  0.96308107  1  1.569987  0  0.205874  0.603767  0  4.209037  0
C  C35  1  0.49293505  0.50102518  0.85412937  1  1.442804  0  0.216039  0.619205  0  4.140758  0
C  C36  1  0.49800810  0.29465450  0.96462446  1  1.563732  0  0.20621  0.607963  0  4.202761  0
C  C37  1  0.50460648  0.50187584  0.07473107  1  1.514353  0  0.206937  0.601301  0  4.214845  0
C  C38  1  0.87286550  0.44816661  0.46434967  1  0.574579  0  0.138424  0.324662  0  3.931587  0
C  C39  1  0.12752760  0.55167857  0.53325861  1  0.570326  0  0.068287  0.081181  0  3.869812  0
C  C40  1  0.00750892  0.53619187  0.52187806  1  -0.162653  0  -0.0099  -0.073113  0  4.09105  0
C  C41  1  0.99226019  0.46610710  0.47688802  1  -0.228143  0  -0.012882  -0.145067  0  4.057419  0
C  C42  1  0.59670549  0.10892609  0.50252327  1  0.094318  0  -0.009044  0.136444  0  3.976917  0
C  C43  1  0.39790257  0.88620312  0.50020286  1  0.025433  0  -0.095756  -0.143536  0  3.980308  0
C  C44  1  0.50141982  0.17693903  0.50006197  1  -0.106538  0  -0.029264  -0.18419  0  3.923178  0
C  C45  1  0.49274747  0.81892788  0.50194298  1  -0.143803  0  -0.02563  -0.106248  0  3.974333  0
C  C46  1  0.43441273  0.99216799  0.50031420  1  -0.175734  0  -0.027283  -0.003845  0  4.09655  0
C  C47  1  0.55678475  0.00366208  0.50237231  1  -0.17657  0  -0.027917  -0.082301  0  4.053867  0
C  C48  1  0.49418621  0.50195504  0.79246534  1  0.063523  0  -0.038724  -0.21859  0  4.026036  0
C  C49  1  0.49946078  0.50030582  0.67155154  1  0.066229  0  -0.038143  -0.219248  0  4.023249  0
C  C50  1  0.59893950  0.50247278  0.76165314  1  0.003308  0  -0.02485  0.046733  0  3.961166  0
C  C51  1  0.39182465  0.50042265  0.70138803  1  0.509235  0  0.081734  0.20589  0  4.015921  0
C  C52  1  0.60158640  0.50160073  0.70390045  1  0.031618  0  -0.025134  0.048317  0  3.956778  0
C  C53  1  0.38923617  0.50111692  0.76113684  1  0.561236  0  0.081563  0.208009  0  4.014394  0
C  C54  1  0.73084455  0.50212722  0.76696225  1  0.026449  0  -0.155585  -0.185916  0  3.900371  0
C  C55  1  0.73395151  0.50130060  0.70079423  1  -0.024506  0  -0.156795  -0.192484  0  3.90649  0
C  C56  1  0.40264455  0.50064906  0.29177300  1  0.08289  0  -0.008059  0.139685  0  3.971379  0
C  C57  1  0.59980946  0.50092883  0.17180270  1  0.033389  0  -0.095948  -0.144373  0  3.982175  0
C  C58  1  0.49851787  0.50072924  0.32739751  1  -0.102789  0  -0.028729  -0.181965  0  3.922876  0
C  C59  1  0.50459160  0.50178037  0.13644116  1  -0.090899  0  -0.025111  -0.106001  0  3.974052  0
C  C60  1  0.56399378  0.50079425  0.22846146  1  -0.185352  0  -0.026719  -0.004336  0  4.097654  0
C  C61  1  0.44162196  0.50099342  0.23543504  1  -0.165293  0  -0.027352  -0.08038  0  4.053381  0
C  C62  1  0.12535659  0.45142061  0.00091141  1  0.606326  0  0.137663  0.323521  0  3.932556  0
C  C63  1  0.87117815  0.55245895  0.93057937  1  0.58015  0  0.070306  0.081049  0  3.874852  0
C  C64  1  0.99101974  0.53812721  0.94277742  1  -0.171527  0  -0.011058  -0.074354  0  4.091358  0
C  C65  1  0.00599069  0.46827433  0.98773290  1  -0.229636  0  -0.012889  -0.144926  0  4.055483  0
C  C66  1  0.40188800  0.11083630  0.96119301  1  0.067968  0  -0.009361  0.136475  0  3.978565  0
C  C67  1  0.60162722  0.88844994  0.96403112  1  0.057168  0  -0.095786  -0.14338  0  3.981626  0
C  C68  1  0.49686933  0.17905774  0.96340395  1  -0.168232  0  -0.029219  -0.184925  0  3.922497  0
C  C69  1  0.50707248  0.82094885  0.96245206  1  -0.176183  0  -0.025563  -0.107043  0  3.974359  0
C  C70  1  0.56468070  0.99435433  0.96359427  1  -0.166049  0  -0.027851  -0.005046  0  4.097974  0
C  C71  1  0.44222674  0.00560984  0.96154075  1  -0.156836  0  -0.02733  -0.08206  0  4.053583  0
C  C72  1  0.82727211  0.37994009  0.41874994  1  -0.052748  0  -0.231592  -0.45506  0  3.909266  0
C  C73  1  0.72337909  0.13781528  0.50479653  1  -0.010588  0  -0.23465  -0.393489  0  3.967645  0
C  C74  1  0.27670845  0.49999748  0.30899299  1  -0.04449  0  -0.237949  -0.396741  0  3.985179  0
C  C75  1  0.17124203  0.38308876  0.04625542  1  -0.0811  0  -0.230987  -0.454244  0  3.908603  0
C  C76  1  0.27511238  0.13955041  0.95894932  1  -0.083223  0  -0.234117  -0.392264  0  3.967347  0
S  S77  1  0.87279958  0.57467473  0.54606893  1  0.714004  0  0.268413  0.315441  0  2.800935  0
S  S78  1  0.12562795  0.42486461  0.45281141  1  0.70155  0  0.270711  0.322621  0  2.832377  0
S  S79  1  0.36665329  0.11295492  0.49847250  1  0.2328  0  0.054569  0.088177  0  2.776557  0
S  S80  1  0.62642042  0.88358014  0.50384101  1  0.238872  0  0.06318  0.098533  0  2.789293  0
S  S81  1  0.63268504  0.50150096  0.29245434  1  0.226199  0  0.059449  0.085266  0  2.795728  0
S  S82  1  0.37135582  0.50263589  0.17179218  1  0.198051  0  0.066246  0.094521  0  2.811704  0
S  S83  1  0.12574929  0.57864670  0.91986001  1  0.681751  0  0.265379  0.318305  0  2.794663  0
S  S84  1  0.87235155  0.42643891  0.01108007  1  0.702521  0  0.265351  0.320236  0  2.810286  0
S  S85  1  0.63190511  0.11528473  0.96504697  1  0.233037  0  0.054746  0.088417  0  2.777698  0
S  S86  1  0.37314705  0.88535636  0.96033141  1  0.228908  0  0.063167  0.098769  0  2.78938  0
N  N87  1  0.80240478  0.50183932  0.49868282  1  -1.156769  0  -0.308894  -0.309714  0  3.318786  0
N  N88  1  0.19751385  0.49695190  0.49960671  1  -1.14306  0  -0.308535  -0.247926  0  3.403642  0
N  N89  1  0.19600211  0.50603429  0.96730153  1  -1.135828  0  -0.310458  -0.313121  0  3.318552  0
N  N90  1  0.80106191  0.49742189  0.96375326  1  -1.137687  0  -0.306908  -0.242347  0  3.400893  0
O  O91  1  0.59191320  0.65832825  0.50186171  1  -1.165781  0  -0.325546  -0.554991  0  2.339502  0
O  O92  1  0.39284231  0.65772672  0.50034012  1  -1.16052  0  -0.324172  -0.546157  0  2.296317  0
O  O93  1  0.40297473  0.49716724  0.58421401  1  -1.174146  0  -0.31624  -0.559972  0  2.365524  0
O  O94  1  0.60094340  0.49743797  0.58507283  1  -1.159895  0  -0.311218  -0.530615  0  2.301508  0
O  O95  1  0.39977264  0.33672728  0.49856158  1  -1.154563  0  -0.328406  -0.557293  0  2.33372  0
O  O96  1  0.59845737  0.33991350  0.49733436  1  -1.160978  0  -0.312074  -0.540373  0  2.338522  0
O  O97  1  0.59851813  0.50369642  0.41283067  1  -1.174354  0  -0.319815  -0.548976  0  2.326023  0
O  O98  1  0.39987006  0.49680689  0.41369958  1  -1.15276  0  -0.315619  -0.5367  0  2.332111  0
O  O99  1  0.40869677  0.66002406  0.96185452  1  -1.159664  0  -0.327697  -0.560021  0  2.340443  0
O  O100  1  0.60763890  0.65999584  0.96496744  1  -1.161689  0  -0.322483  -0.542044  0  2.291352  0
O  O101  1  0.59032497  0.50299208  0.87938411  1  -1.163451  0  -0.309608  -0.527782  0  2.312854  0
O  O102  1  0.39226996  0.49778171  0.87913801  1  -1.167412  0  -0.317486  -0.565312  0  2.352794  0
O  O103  1  0.59819333  0.33879048  0.96360872  1  -1.162776  0  -0.32625  -0.554023  0  2.330656  0
O  O104  1  0.39958962  0.34227210  0.96684550  1  -1.159755  0  -0.313296  -0.542511  0  2.334481  0
O  O105  1  0.40442166  0.50649873  0.05140152  1  -1.1599  0  -0.319438  -0.548559  0  2.331269  0
O  O106  1  0.60313844  0.49723042  0.04993006  1  -1.164773  0  -0.322118  -0.546844  0  2.31139  0
O  O107  1  0.28734749  0.49903278  0.67522644  1  -1.129866  0  -0.366324  -0.434851  0  2.282445  0
O  O108  1  0.28266294  0.50022445  0.78575544  1  -1.166795  0  -0.365623  -0.436773  0  2.298216  0
