# generated using pymatgen
data_ZnH8C4(NO2)4
_symmetry_space_group_name_H-M   'P 1'
_cell_length_a   7.42023674
_cell_length_b   8.58373324
_cell_length_c   8.58372943
_cell_angle_alpha   85.23718784
_cell_angle_beta   72.40674718
_cell_angle_gamma   72.40642944
_symmetry_Int_Tables_number   1
_chemical_formula_structural   ZnH8C4(NO2)4
_chemical_formula_sum   'Zn2 H16 C8 N8 O16'
_cell_volume   496.75584082
_cell_formula_units_Z   2
loop_
 _symmetry_equiv_pos_site_id
 _symmetry_equiv_pos_as_xyz
  1  'x, y, z'
loop_
 _atom_site_type_symbol
 _atom_site_label
 _atom_site_symmetry_multiplicity
 _atom_site_fract_x
 _atom_site_fract_y
 _atom_site_fract_z
 _atom_site_occupancy
 _atom_site_hle17_bader_spin_density
 _atom_site_hle17_ddec_charge
 _atom_site_hle17_ddec_spin_density
 _atom_site_hle17_ddec_sum_bond_order
 _atom_site_hle17_magmom
 _atom_site_hse06_10hf_bader_spin_density
 _atom_site_hse06_10hf_ddec_charge
 _atom_site_hse06_10hf_ddec_spin_density
 _atom_site_hse06_10hf_ddec_sum_bond_order
 _atom_site_hse06_10hf_magmom
 _atom_site_hse06_bader_spin_density
 _atom_site_hse06_ddec_charge
 _atom_site_hse06_ddec_spin_density
 _atom_site_hse06_ddec_sum_bond_order
 _atom_site_hse06_magmom
 _atom_site_pbe_bader_spin_density
 _atom_site_pbe_cm5_charge
 _atom_site_pbe_ddec_charge
 _atom_site_pbe_ddec_spin_density
 _atom_site_pbe_ddec_sum_bond_order
 _atom_site_pbe_magmom
Zn  Zn0  1  0.50000012  0.49999799  0.99999965  1  0  1.072303  0  1.744935  0  0  0.893177  0  2.184493  0  0  0.940149  0  2.131214  0  0  0.687457  0.860422  0  2.220889  0
Zn  Zn1  1  0.99999958  0.00000099  0.49999927  1  0  1.072327  0  1.744904  0  0  0.893193  0  2.184481  0  0  0.940164  0  2.131202  0  0  0.687441  0.860438  0  2.22088  0
H  H2  1  0.54203708  0.69144298  0.66804021  1  0  0.092632  0  0.954788  0  0  0.096224  0  1.024559  0  0  0.098961  0  1.021026  0  0  0.124038  0.094153  0  1.027101  0
H  H3  1  0.95796553  0.33196512  0.30855187  1  0  0.092621  0  0.954761  0  0  0.096228  0  1.024516  0  0  0.098966  0  1.020981  0  0  0.124005  0.094157  0  1.027057  0
H  H4  1  0.45796194  0.30855325  0.33196031  1  0  0.092683  0  0.954698  0  0  0.096268  0  1.024478  0  0  0.099008  0  1.020942  0  0  0.12402  0.094196  0  1.02702  0
H  H5  1  0.04203217  0.66803477  0.69144750  1  0  0.092636  0  0.954746  0  0  0.096241  0  1.024496  0  0  0.098978  0  1.02096  0  0  0.124012  0.09417  0  1.027037  0
H  H6  1  0.74999078  0.62487099  0.37514068  1  0  0.143161  0  0.952902  0  0  0.145964  0  1.017751  0  0  0.150667  0  1.015075  0  0  0.115817  0.142596  0  1.019822  0
H  H7  1  0.25001073  0.37513017  0.62486105  1  0  0.143139  0  0.952942  0  0  0.145928  0  1.017805  0  0  0.150628  0  1.015135  0  0  0.115817  0.142561  0  1.019876  0
H  H8  1  0.74999949  0.20674006  0.79326519  1  0  0.084151  0  0.935339  0  0  0.088976  0  1.002355  0  0  0.090856  0  0.999451  0  0  0.135706  0.087413  0  1.004686  0
H  H9  1  0.25000193  0.79325743  0.20673690  1  0  0.084123  0  0.935438  0  0  0.088956  0  1.002438  0  0  0.090834  0  0.999533  0  0  0.135701  0.087392  0  1.004769  0
H  H10  1  0.52543464  0.80703536  0.90902138  1  0  0.419037  0  0.883175  0  0  0.384251  0  0.9536  0  0  0.39579  0  0.936638  0  0  0.291436  0.376151  0  0.965476  0
H  H11  1  0.97456600  0.09097907  0.19296572  1  0  0.419035  0  0.883178  0  0  0.38425  0  0.9536  0  0  0.395789  0  0.936639  0  0  0.29143  0.37615  0  0.965476  0
H  H12  1  0.47456588  0.19296455  0.09097724  1  0  0.419022  0  0.883193  0  0  0.384239  0  0.953611  0  0  0.395778  0  0.936651  0  0  0.291449  0.376138  0  0.965488  0
H  H13  1  0.02543496  0.90901961  0.80703289  1  0  0.419036  0  0.883182  0  0  0.384249  0  0.953608  0  0  0.395789  0  0.936646  0  0  0.291415  0.37615  0  0.965483  0
H  H14  1  0.70170729  0.73201808  0.98678137  1  0  0.427664  0  0.868614  0  0  0.391604  0  0.94073  0  0  0.40324  0  0.923524  0  0  0.292267  0.383478  0  0.952707  0
H  H15  1  0.79829438  0.01321751  0.26798232  1  0  0.427717  0  0.868541  0  0  0.391653  0  0.940666  0  0  0.403289  0  0.92346  0  0  0.292277  0.383525  0  0.952646  0
H  H16  1  0.29829085  0.26798059  0.01321799  1  0  0.427687  0  0.86858  0  0  0.391638  0  0.940676  0  0  0.403274  0  0.923471  0  0  0.292287  0.383511  0  0.952653  0
H  H17  1  0.20170614  0.98678240  0.73201746  1  0  0.427699  0  0.868566  0  0  0.391638  0  0.940689  0  0  0.403273  0  0.923484  0  0  0.292269  0.383511  0  0.952666  0
C  C18  1  0.63581293  0.56823385  0.62960534  1  0  0.200622  0  3.622097  0  0  0.162168  0  3.8752  0  0  0.174055  0  3.890794  0  0  0.075741  0.154618  0  3.864556  0
C  C19  1  0.86417005  0.37039963  0.43176853  1  0  0.200567  0  3.622372  0  0  0.162127  0  3.875433  0  0  0.174015  0  3.891026  0  0  0.07575  0.154581  0  3.864784  0
C  C20  1  0.36418410  0.43177588  0.37039913  1  0  0.200479  0  3.622273  0  0  0.162071  0  3.875339  0  0  0.173951  0  3.890945  0  0  0.075778  0.154525  0  3.864689  0
C  C21  1  0.13583197  0.62960396  0.56822935  1  0  0.200525  0  3.622347  0  0  0.162108  0  3.875389  0  0  0.173996  0  3.890981  0  0  0.075764  0.154563  0  3.864738  0
C  C22  1  0.74999823  0.53133778  0.46865271  1  0  -0.156382  0  3.65454  0  0  -0.166618  0  3.906538  0  0  -0.179562  0  3.928266  0  0  -0.076014  -0.158463  0  3.892117  0
C  C23  1  0.25000654  0.46866217  0.53134710  1  0  -0.156299  0  3.654539  0  0  -0.166541  0  3.906524  0  0  -0.179487  0  3.928267  0  0  -0.076033  -0.158386  0  3.892103  0
C  C24  1  0.74999927  0.30016856  0.69983772  1  0  0.321112  0  3.674923  0  0  0.261281  0  3.943471  0  0  0.277048  0  3.956799  0  0  0.18597  0.250977  0  3.934376  0
C  C25  1  0.25000039  0.69983381  0.30016323  1  0  0.321161  0  3.67484  0  0  0.261328  0  3.943414  0  0  0.277101  0  3.956732  0  0  0.186006  0.251024  0  3.934318  0
N  N26  1  0.05977761  0.67460726  0.00746551  1  0  0.706472  0  4.126648  0  0  0.726225  0  4.435461  0  0  0.755417  0  4.44056  0  0  0.106669  0.708548  0  4.431185  0
N  N27  1  0.44022249  0.99253281  0.32539343  1  0  0.706442  0  4.126699  0  0  0.726299  0  4.435387  0  0  0.755496  0  4.440481  0  0  0.106701  0.708612  0  4.431114  0
N  N28  1  0.94022195  0.32539142  0.99253464  1  0  0.706468  0  4.126662  0  0  0.726301  0  4.435379  0  0  0.755496  0  4.440479  0  0  0.106675  0.70862  0  4.431105  0
N  N29  1  0.55977945  0.00746711  0.67460597  1  0  0.706489  0  4.126785  0  0  0.726256  0  4.435571  0  0  0.755452  0  4.440668  0  0  0.106747  0.708587  0  4.431293  0
N  N30  1  0.63765426  0.45246515  0.74544001  1  0  -0.366182  0  3.247461  0  0  -0.281389  0  3.513289  0  0  -0.305139  0  3.528488  0  0  -0.31547  -0.265596  0  3.502794  0
N  N31  1  0.86235339  0.25456118  0.54753365  1  0  -0.36619  0  3.247238  0  0  -0.28141  0  3.513074  0  0  -0.305158  0  3.528269  0  0  -0.315459  -0.265618  0  3.502581  0
N  N32  1  0.36234759  0.54753111  0.25456091  1  0  -0.366165  0  3.247433  0  0  -0.281421  0  3.513299  0  0  -0.305167  0  3.528498  0  0  -0.315538  -0.265629  0  3.502803  0
N  N33  1  0.13764617  0.74543751  0.45246766  1  0  -0.36616  0  3.247286  0  0  -0.281384  0  3.513114  0  0  -0.305132  0  3.528307  0  0  -0.315467  -0.265593  0  3.502621  0
O  O34  1  0.24115661  0.66188886  0.93085221  1  0  -0.489692  0  1.833236  0  0  -0.45834  0  2.077364  0  0  -0.477769  0  2.068292  0  0  -0.189166  -0.445615  0  2.083313  0
O  O35  1  0.25884247  0.06914758  0.33811142  1  0  -0.489662  0  1.833208  0  0  -0.458354  0  2.077323  0  0  -0.477787  0  2.068253  0  0  -0.189172  -0.445626  0  2.083272  0
O  O36  1  0.75884391  0.33811106  0.06914757  1  0  -0.489679  0  1.833234  0  0  -0.458359  0  2.07735  0  0  -0.477788  0  2.068279  0  0  -0.189182  -0.445632  0  2.083298  0
O  O37  1  0.74115806  0.93085234  0.66188836  1  0  -0.489676  0  1.833238  0  0  -0.458352  0  2.077399  0  0  -0.477785  0  2.068332  0  0  -0.18919  -0.445631  0  2.083348  0
O  O38  1  0.01206144  0.59314839  0.13121082  1  0  -0.416661  0  1.795835  0  0  -0.412337  0  2.017615  0  0  -0.425205  0  2.013184  0  0  -0.159641  -0.404197  0  2.020554  0
O  O39  1  0.48793466  0.86878909  0.40685195  1  0  -0.416678  0  1.795874  0  0  -0.412385  0  2.017627  0  0  -0.425249  0  2.013191  0  0  -0.159676  -0.404239  0  2.020564  0
O  O40  1  0.98793908  0.40685152  0.86878779  1  0  -0.41672  0  1.795807  0  0  -0.41242  0  2.017555  0  0  -0.425285  0  2.013122  0  0  -0.159671  -0.404278  0  2.020496  0
O  O41  1  0.51206631  0.13120961  0.59314782  1  0  -0.41669  0  1.795984  0  0  -0.41236  0  2.017762  0  0  -0.42522  0  2.013324  0  0  -0.15969  -0.404224  0  2.020702  0
O  O42  1  0.92884227  0.77522228  0.95070352  1  0  -0.476538  0  1.840776  0  0  -0.446907  0  2.050784  0  0  -0.465018  0  2.041748  0  0  -0.170808  -0.435211  0  2.056828  0
O  O43  1  0.57115704  0.04929548  0.22477845  1  0  -0.476522  0  1.840811  0  0  -0.446929  0  2.050795  0  0  -0.465044  0  2.041762  0  0  -0.170793  -0.435227  0  2.056839  0
O  O44  1  0.07115684  0.22477763  0.04929663  1  0  -0.476487  0  1.840845  0  0  -0.446887  0  2.05083  0  0  -0.465  0  2.041797  0  0  -0.170758  -0.435188  0  2.056875  0
O  O45  1  0.42884348  0.95070444  0.77522133  1  0  -0.476532  0  1.840756  0  0  -0.446914  0  2.05078  0  0  -0.465028  0  2.041747  0  0  -0.170806  -0.435221  0  2.056825  0
O  O46  1  0.56932140  0.72586433  0.98954302  1  0  -0.829503  0  1.926326  0  0  -0.772866  0  2.14115  0  0  -0.793891  0  2.104649  0  0  -0.579531  -0.757782  0  2.166113  0
O  O47  1  0.93068186  0.01045945  0.27413719  1  0  -0.829551  0  1.926307  0  0  -0.772908  0  2.141128  0  0  -0.793935  0  2.104631  0  0  -0.57952  -0.757819  0  2.166081  0
O  O48  1  0.43067674  0.27413434  0.01045635  1  0  -0.829501  0  1.926324  0  0  -0.772869  0  2.141139  0  0  -0.793894  0  2.104642  0  0  -0.579564  -0.757788  0  2.16611  0
O  O49  1  0.06932008  0.98954048  0.72586221  1  0  -0.829537  0  1.926324  0  0  -0.772888  0  2.141146  0  0  -0.793916  0  2.104652  0  0  -0.5795  -0.757799  0  2.166099  0
