# generated using pymatgen
data_Zn4H36C38N4O13
_symmetry_space_group_name_H-M   'P 1'
_cell_length_a   15.85173409
_cell_length_b   15.85225928
_cell_length_c   20.60201886
_cell_angle_alpha   112.51757831
_cell_angle_beta   112.51556991
_cell_angle_gamma   90.27082984
_symmetry_Int_Tables_number   1
_chemical_formula_structural   Zn4H36C38N4O13
_chemical_formula_sum   'Zn8 H72 C76 N8 O26'
_cell_volume   4347.71660531
_cell_formula_units_Z   2
loop_
 _symmetry_equiv_pos_site_id
 _symmetry_equiv_pos_as_xyz
  1  'x, y, z'
loop_
 _atom_site_type_symbol
 _atom_site_label
 _atom_site_symmetry_multiplicity
 _atom_site_fract_x
 _atom_site_fract_y
 _atom_site_fract_z
 _atom_site_occupancy
 _atom_site_pbe_bader_charge
 _atom_site_pbe_bader_spin_density
 _atom_site_pbe_cm5_charge
 _atom_site_pbe_ddec_charge
 _atom_site_pbe_ddec_spin_density
 _atom_site_pbe_ddec_sum_bond_order
 _atom_site_pbe_magmom
Zn  Zn0  1  0.78546588  0.18435877  0.56753954  1  1.320202  0  0.678551  0.961642  0  2.377212  0
Zn  Zn1  1  0.21645643  0.81568374  0.43262948  1  1.323844  0  0.680431  0.963989  0  2.372556  0
Zn  Zn2  1  0.18431182  0.78355531  0.56736559  1  1.324049  0  0.680384  0.963794  0  2.372607  0
Zn  Zn3  1  0.81564697  0.21453943  0.43244860  1  1.31953  0  0.678559  0.961564  0  2.377213  0
Zn  Zn4  1  0.78215064  0.38315943  0.56753452  1  1.316163  0  0.679012  0.962277  0  2.376301  0
Zn  Zn5  1  0.21619121  0.61689280  0.43265631  1  1.315928  0  0.680513  0.964252  0  2.372795  0
Zn  Zn6  1  0.38312224  0.78381572  0.56735141  1  1.316159  0  0.6806  0.964478  0  2.37254  0
Zn  Zn7  1  0.61684706  0.21786209  0.43246723  1  1.316005  0  0.678907  0.962214  0  2.376596  0
H  H8  1  0.28506525  0.55778252  0.16823565  1  0.416646  0  0.297844  0.243091  0  0.998679  0
H  H9  1  0.62739310  0.88485127  0.26830923  1  0.033539  0  0.099744  0.101192  0  0.988073  0
H  H10  1  0.66016031  0.14214802  0.93210892  1  0.045545  0  0.090483  0.123182  0  0.989413  0
H  H11  1  0.56669945  0.08378496  0.84026485  1  0.058616  0  0.087848  0.1193  0  1.02783  0
H  H12  1  0.62236853  0.19748969  0.86787410  1  0.001967  0  0.081557  0.106935  0  1.007596  0
H  H13  1  0.47547111  0.21321966  0.88415011  1  -0.023345  0  0.083162  0.058687  0  1.023968  0
H  H14  1  0.57091457  0.26219174  0.97301405  1  0.048138  0  0.090764  0.086105  0  1.007566  0
H  H15  1  0.85758681  0.33999354  0.06788690  1  0.046701  0  0.09039  0.122957  0  0.989735  0
H  H16  1  0.91601403  0.43344011  0.15972318  1  0.047711  0  0.087562  0.118843  0  1.028214  0
H  H17  1  0.80224041  0.37791435  0.13211560  1  0.003666  0  0.081468  0.106889  0  1.00768  0
H  H18  1  0.78672605  0.52479539  0.11583355  1  -0.02219  0  0.08316  0.058776  0  1.023437  0
H  H19  1  0.73771099  0.42936008  0.02696889  1  0.047926  0  0.09051  0.085645  0  1.007719  0
H  H20  1  0.60565931  0.99272656  0.32446911  1  0.04695  0  0.08765  0.093101  0  1.009832  0
H  H21  1  0.17882155  0.31607354  0.93208924  1  0.039905  0  0.090115  0.122175  0  0.989661  0
H  H22  1  0.11044235  0.31462645  0.84062002  1  0.047983  0  0.087176  0.117716  0  1.030053  0
H  H23  1  0.23054293  0.30924638  0.86767126  1  0.002524  0  0.081612  0.106091  0  1.006799  0
H  H24  1  0.21418364  0.47062384  0.88495467  1  -0.020245  0  0.083074  0.058903  0  1.023276  0
H  H25  1  0.27362033  0.46560487  0.97358162  1  0.024876  0  0.090794  0.086045  0  1.00433  0
H  H26  1  0.38415966  0.24709107  0.06788619  1  0.022845  0  0.089945  0.121844  0  0.991098  0
H  H27  1  0.47401264  0.27009992  0.15941412  1  0.031559  0  0.086846  0.117453  0  1.028179  0
H  H28  1  0.44189429  0.36317237  0.13234279  1  -0.00039  0  0.081032  0.105484  0  1.006073  0
H  H29  1  0.58605706  0.32914695  0.11523550  1  0.019891  0  0.08324  0.059492  0  1.023805  0
H  H30  1  0.49253816  0.30020399  0.02660513  1  0.040506  0  0.09107  0.086847  0  1.003897  0
H  H31  1  0.69174108  0.98992303  0.28809482  1  0.044937  0  0.101505  0.108909  0  1.005461  0
H  H32  1  0.27187432  0.78976659  0.93195042  1  0.041713  0  0.090295  0.12228  0  0.990584  0
H  H33  1  0.27345673  0.75628462  0.84008740  1  0.024764  0  0.087688  0.118686  0  1.029042  0
H  H34  1  0.24546886  0.67017574  0.86771184  1  0.013351  0  0.081161  0.106591  0  1.007784  0
H  H35  1  0.40865990  0.67085765  0.88395987  1  -0.022328  0  0.083498  0.059058  0  1.022766  0
H  H36  1  0.40205476  0.71060732  0.97279701  1  0.02204  0  0.090331  0.08544  0  1.008353  0
H  H37  1  0.21040841  0.72807417  0.06810102  1  0.042054  0  0.090417  0.1224  0  0.990684  0
H  H38  1  0.24384195  0.72647207  0.15994101  1  0.023656  0  0.08789  0.118906  0  1.028867  0
H  H39  1  0.32998199  0.75434422  0.13230916  1  0.014607  0  0.081368  0.106712  0  1.007901  0
H  H40  1  0.32914554  0.59117930  0.11603832  1  -0.016764  0  0.083541  0.059099  0  1.023046  0
H  H41  1  0.28942907  0.59778200  0.02720605  1  0.022354  0  0.090323  0.085291  0  1.008185  0
H  H42  1  0.38980811  0.11690609  0.83183772  1  0.434916  0  0.298304  0.244346  0  0.999229  0
H  H43  1  0.75313936  0.61603395  0.93217414  1  0.063114  0  0.089889  0.121864  0  0.99135  0
H  H44  1  0.73008442  0.52616826  0.84064273  1  0.031006  0  0.086821  0.117315  0  1.028205  0
H  H45  1  0.63701951  0.55845153  0.86768951  1  0.002369  0  0.081158  0.105355  0  1.006449  0
H  H46  1  0.67079317  0.41420805  0.88476513  1  -0.019056  0  0.083522  0.05971  0  1.02429  0
H  H47  1  0.69981247  0.50773740  0.97341795  1  0.041404  0  0.090913  0.086732  0  1.003857  0
H  H48  1  0.68378237  0.82106579  0.06795287  1  0.033411  0  0.090077  0.122315  0  0.989755  0
H  H49  1  0.68522650  0.88948500  0.15941757  1  0.049322  0  0.08711  0.117523  0  1.030402  0
H  H50  1  0.69051505  0.76938224  0.13237056  1  0.002899  0  0.081448  0.105789  0  1.00689  0
H  H51  1  0.52914773  0.78584845  0.11505026  1  -0.020007  0  0.083087  0.059093  0  1.023272  0
H  H52  1  0.53419089  0.72635739  0.02644548  1  0.023926  0  0.090899  0.086237  0  1.004561  0
H  H53  1  0.40747021  0.10965976  0.72770350  1  0.039603  0  0.101341  0.104925  0  0.983878  0
H  H54  1  0.32179468  0.00712681  0.67316507  1  0.042646  0  0.08706  0.092439  0  1.008662  0
H  H55  1  0.44196504  0.00040266  0.71338408  1  0.061419  0  0.098925  0.107088  0  1.010847  0
H  H56  1  0.88311504  0.61041697  0.16816415  1  0.441815  0  0.298258  0.244248  0  0.999005  0
H  H57  1  0.89031097  0.59276120  0.27230429  1  0.040684  0  0.101332  0.104781  0  0.984106  0
H  H58  1  0.99284305  0.67844427  0.32682602  1  0.040673  0  0.08693  0.092237  0  1.008295  0
H  H59  1  0.38198059  0.67951572  0.27245922  1  0.044978  0  0.101368  0.104977  0  0.984228  0
H  H60  1  0.99956767  0.55826129  0.28666273  1  0.04561  0  0.099298  0.107495  0  1.010297  0
H  H61  1  0.10661477  0.48832000  0.83306447  1  0.428529  0  0.298693  0.237152  0  1.008465  0
H  H62  1  0.11513899  0.37238124  0.73167526  1  0.032976  0  0.09976  0.100966  0  0.988213  0
H  H63  1  0.00729169  0.39417978  0.67552016  1  0.047384  0  0.087609  0.09303  0  1.010261  0
H  H64  1  0.01002539  0.30812193  0.71190908  1  0.042906  0  0.101659  0.109085  0  1.00524  0
H  H65  1  0.65539428  0.27324337  0.16690861  1  0.417559  0  0.298523  0.237998  0  1.009763  0
H  H66  1  0.64077157  0.38328118  0.26821869  1  0.036655  0  0.099348  0.100762  0  0.98811  0
H  H67  1  0.71869762  0.33164541  0.32442524  1  0.030668  0  0.087284  0.092649  0  1.008977  0
H  H68  1  0.59624668  0.29799177  0.28802760  1  0.052514  0  0.101288  0.108705  0  1.005302  0
H  H69  1  0.44198483  0.71488112  0.83172621  1  0.421095  0  0.297578  0.242696  0  0.999636  0
H  H70  1  0.33388014  0.64830380  0.32689525  1  0.022771  0  0.086831  0.091926  0  1.008775  0
H  H71  1  0.32024281  0.61804901  0.72747465  1  0.046194  0  0.101423  0.104988  0  0.984024  0
H  H72  1  0.35148644  0.66617072  0.67305842  1  0.025629  0  0.08674  0.091702  0  1.008932  0
H  H73  1  0.27148683  0.71305684  0.71325349  1  0.070106  0  0.09895  0.106888  0  1.010216  0
H  H74  1  0.28703498  0.72834882  0.28675133  1  0.070022  0  0.099078  0.107346  0  1.010581  0
H  H75  1  0.72665067  0.34482445  0.83308701  1  0.419497  0  0.298485  0.238329  0  1.009474  0
H  H76  1  0.61669737  0.35948609  0.73177372  1  0.035486  0  0.099544  0.100797  0  0.987987  0
H  H77  1  0.66828759  0.28151035  0.67554752  1  0.034966  0  0.087227  0.092459  0  1.009456  0
H  H78  1  0.70206073  0.40394973  0.71200218  1  0.051451  0  0.101365  0.108643  0  1.005571  0
H  H79  1  0.51148513  0.89345480  0.16693721  1  0.428704  0  0.298346  0.236999  0  1.00853  0
C  C80  1  0.64513197  0.14497015  0.29011063  1  1.531666  0  0.234568  0.649752  0  4.133513  0
C  C81  1  0.09214372  0.90786191  0.49999155  1  1.670219  0  0.239262  0.668338  0  4.235622  0
C  C82  1  0.45497331  0.82457186  0.95985976  1  -0.011574  0  -0.021887  0.00921  0  3.895169  0
C  C83  1  0.17542665  0.54495908  0.04013923  1  -0.012273  0  -0.02184  0.008563  0  3.895704  0
C  C84  1  0.82354220  0.46967572  0.96068799  1  0.028022  0  -0.022301  0.007313  0  3.899019  0
C  C85  1  0.50867082  0.86276557  0.03922377  1  -0.085658  0  -0.022913  0.006294  0  3.898029  0
C  C86  1  0.50483993  0.13531029  0.95996784  1  -0.04526  0  -0.02297  0.00638  0  3.897265  0
C  C87  1  0.31672028  0.66443964  0.27629224  1  0.271426  0  -0.143165  -0.214629  0  3.989493  0
C  C88  1  0.68203179  0.34818138  0.72537415  1  0.283871  0  -0.140795  -0.208397  0  3.984218  0
C  C89  1  0.62255088  0.95658239  0.27468041  1  0.287663  0  -0.141982  -0.210492  0  3.986657  0
C  C90  1  0.38850677  0.04055363  0.72381521  1  0.267795  0  -0.143083  -0.213957  0  3.988793  0
C  C91  1  0.95942650  0.61170753  0.27619716  1  0.285564  0  -0.143319  -0.214166  0  3.988912  0
C  C92  1  0.09102622  0.59119613  0.49995819  1  1.670629  0  0.241429  0.671149  0  4.225286  0
C  C93  1  0.04341910  0.37728943  0.72531083  1  0.290191  0  -0.141931  -0.210192  0  3.986661  0
C  C94  1  0.65201757  0.31794200  0.27461940  1  0.287779  0  -0.140942  -0.209091  0  3.983769  0
C  C95  1  0.33536598  0.68331786  0.72367130  1  0.266481  0  -0.142701  -0.213295  0  3.987741  0
C  C96  1  0.90772233  0.40780900  0.49983694  1  1.668972  0  0.23757  0.665143  0  4.247004  0
C  C97  1  0.80485661  0.46782719  0.07466586  1  -0.027356  0  -0.162245  -0.147742  0  4.006271  0
C  C98  1  0.84795901  0.40141851  0.11117456  1  -0.070731  0  -0.24351  -0.348428  0  3.95591  0
C  C99  1  0.20443338  0.44693525  0.92593815  1  0.002643  0  -0.161908  -0.145467  0  4.00237  0
C  C100  1  0.17926247  0.34052784  0.88897965  1  -0.072203  0  -0.244568  -0.348838  0  3.957589  0
C  C101  1  0.52129352  0.27856596  0.07420131  1  -0.060518  0  -0.162595  -0.148338  0  4.003353  0
C  C102  1  0.45174730  0.29054327  0.11105563  1  -0.029275  0  -0.24325  -0.346671  0  3.956616  0
C  C103  1  0.39286587  0.73013475  0.92514635  1  -0.008076  0  -0.162194  -0.148471  0  4.005544  0
C  C104  1  0.28995850  0.73680661  0.88864780  1  -0.046855  0  -0.243428  -0.347163  0  3.955213  0
C  C105  1  0.26989572  0.60700836  0.07485751  1  -0.013987  0  -0.162275  -0.148073  0  4.006322  0
C  C106  1  0.59037740  0.40961864  0.50000739  1  1.661323  0  0.241398  0.673067  0  4.230497  0
C  C107  1  0.26331552  0.70992419  0.11137938  1  -0.047291  0  -0.244044  -0.347757  0  3.956127  0
C  C108  1  0.72144371  0.47891851  0.92581828  1  -0.021581  0  -0.162538  -0.148155  0  4.004  0
C  C109  1  0.70960928  0.54848336  0.88898682  1  -0.073948  0  -0.243351  -0.346642  0  3.957333  0
C  C110  1  0.55288758  0.79556090  0.07407968  1  -0.000397  0  -0.161859  -0.145652  0  4.002987  0
C  C111  1  0.65929550  0.82067174  0.11105318  1  -0.064008  0  -0.244483  -0.34869  0  3.958193  0
C  C112  1  0.53239245  0.19505371  0.92532783  1  -0.024407  0  -0.16232  -0.147987  0  4.006629  0
C  C113  1  0.59877595  0.15182895  0.88881361  1  -0.081623  0  -0.24418  -0.349289  0  3.954998  0
C  C114  1  0.40791295  0.59208941  0.49999621  1  1.675409  0  0.240249  0.6705  0  4.23383  0
C  C115  1  0.40881374  0.90896195  0.50002369  1  1.673474  0  0.241768  0.671589  0  4.225565  0
C  C116  1  0.59219603  0.09227838  0.50015114  1  1.668459  0  0.237814  0.665434  0  4.247114  0
C  C117  1  0.90969513  0.09032810  0.50001970  1  1.680553  0  0.240972  0.671149  0  4.226513  0
C  C118  1  0.35459423  0.85451018  0.70891403  1  1.516929  0  0.238153  0.659394  0  4.115386  0
C  C119  1  0.52764670  0.02777478  0.50015402  1  0.111223  0  -0.012806  -0.103697  0  3.920702  0
C  C120  1  0.47336588  0.97353145  0.50010667  1  -0.267441  0  -0.01318  -0.105349  0  3.915706  0
C  C121  1  0.02791470  0.97207535  0.49999074  1  0.085916  0  -0.012506  -0.103624  0  3.917392  0
C  C122  1  0.97392341  0.02607325  0.50000112  1  -0.248636  0  -0.012358  -0.104024  0  3.91551  0
C  C123  1  0.97221388  0.47236546  0.49982691  1  0.109843  0  -0.012736  -0.103604  0  3.920675  0
C  C124  1  0.14549885  0.64539988  0.29107964  1  1.51664  0  0.238318  0.65939  0  4.115464  0
C  C125  1  0.02645608  0.52664888  0.49988286  1  -0.267133  0  -0.013214  -0.1054  0  3.915772  0
C  C126  1  0.47214423  0.52786334  0.49999860  1  0.091689  0  -0.012574  -0.103207  0  3.918215  0
C  C127  1  0.52613125  0.47387378  0.49999705  1  -0.255175  0  -0.012275  -0.104494  0  3.915943  0
C  C128  1  0.85501893  0.35487823  0.70987976  1  1.531842  0  0.234593  0.649447  0  4.133659  0
C  C129  1  0.15999748  0.58217742  0.16510368  1  0.450294  0  0.093696  0.170901  0  4.064307  0
C  C130  1  0.84262208  0.39983479  0.83585025  1  0.43609  0  0.094995  0.173318  0  4.058735  0
C  C131  1  0.56380627  0.00660540  0.16413877  1  0.334109  0  0.095352  0.173242  0  4.060792  0
C  C132  1  0.41718730  0.99494795  0.83494281  1  0.403037  0  0.093844  0.171507  0  4.064283  0
C  C133  1  0.00503330  0.58285321  0.16504896  1  0.402684  0  0.09374  0.170995  0  4.064547  0
C  C134  1  0.99340165  0.43612620  0.83585716  1  0.336641  0  0.095419  0.172882  0  4.061086  0
C  C135  1  0.60021902  0.15734411  0.16413917  1  0.435751  0  0.09479  0.172938  0  4.059025  0
C  C136  1  0.41775576  0.83999214  0.83488909  1  0.438199  0  0.093238  0.170725  0  4.064383  0
C  C137  1  0.10235410  0.60232638  0.20475772  1  0.057664  0  -0.040883  -0.238662  0  3.970881  0
C  C138  1  0.89809781  0.39801125  0.79600972  1  0.03862  0  -0.042012  -0.24202  0  3.977223  0
C  C139  1  0.60198920  0.10188733  0.20397991  1  0.038882  0  -0.0419  -0.242102  0  3.97721  0
C  C140  1  0.39766424  0.89763660  0.79523751  1  0.057753  0  -0.040844  -0.238953  0  3.9711  0
C  C141  1  0.96332786  0.53075430  0.08294326  1  -0.068132  0  -0.026676  -0.091166  0  3.989422  0
C  C142  1  0.03745110  0.46638404  0.91793618  1  0.036343  0  -0.027731  -0.091751  0  3.988773  0
C  C143  1  0.54829447  0.11942333  0.08208433  1  -0.023049  0  -0.027454  -0.092007  0  3.988725  0
C  C144  1  0.44765331  0.88034911  0.91698178  1  -0.053444  0  -0.027746  -0.093289  0  3.989871  0
C  C145  1  0.11964392  0.55229443  0.08301578  1  -0.052029  0  -0.027745  -0.093148  0  3.990067  0
C  C146  1  0.88055262  0.45175488  0.91790716  1  -0.023412  0  -0.027425  -0.091953  0  3.989119  0
C  C147  1  0.53354063  0.96254565  0.08206116  1  0.036191  0  -0.027469  -0.092142  0  3.989409  0
C  C148  1  0.46929110  0.03664680  0.91705323  1  -0.067382  0  -0.026675  -0.090961  0  3.989308  0
C  C149  1  0.02097287  0.52101423  0.04192772  1  0.143453  0  -0.00466  0.024565  0  3.954346  0
C  C150  1  0.97954065  0.47960952  0.95901577  1  -0.049479  0  -0.0035  0.026237  0  3.953073  0
C  C151  1  0.52037767  0.02044885  0.04098271  1  -0.049425  0  -0.003637  0.026431  0  3.953179  0
C  C152  1  0.47897606  0.97901907  0.95807162  1  0.142769  0  -0.004482  0.024556  0  3.954474  0
C  C153  1  0.86465505  0.49527780  0.04002669  1  -0.046467  0  -0.023154  0.006477  0  3.897237  0
C  C154  1  0.13723377  0.49121108  0.96078041  1  -0.086207  0  -0.022787  0.006495  0  3.897912  0
C  C155  1  0.53044307  0.17643737  0.03931086  1  0.027576  0  -0.022222  0.007429  0  3.898052  0
N  N156  1  0.25487130  0.58840094  0.20431098  1  -1.17517  0  -0.462817  -0.30552  0  3.575172  0
N  N157  1  0.75241219  0.35064126  0.79691849  1  -1.150595  0  -0.462182  -0.301404  0  3.586879  0
N  N158  1  0.55354130  0.95536044  0.20307746  1  -1.174201  0  -0.461473  -0.298933  0  3.585641  0
N  N159  1  0.38432979  0.05063871  0.79574718  1  -1.180385  0  -0.463607  -0.308154  0  3.578955  0
N  N160  1  0.94936023  0.61580480  0.20424629  1  -1.18808  0  -0.463387  -0.307507  0  3.579198  0
N  N161  1  0.04467877  0.44632535  0.79691818  1  -1.175932  0  -0.461863  -0.299157  0  3.586043  0
N  N162  1  0.64948467  0.24751648  0.20306708  1  -1.15108  0  -0.461646  -0.300241  0  3.586836  0
N  N163  1  0.41144891  0.74510723  0.79566021  1  -1.166485  0  -0.462607  -0.305729  0  3.575359  0
O  O164  1  0.75003585  0.24997216  0.49999685  1  -1.247743  0  -0.575321  -1.041035  0  2.556896  0
O  O165  1  0.26841155  0.85592181  0.67515438  1  -1.174261  0  -0.310186  -0.547943  0  2.324484  0
O  O166  1  0.18058257  0.59289603  0.32477136  1  -1.154398  0  -0.310425  -0.548324  0  2.325408  0
O  O167  1  0.84852957  0.40910472  0.67616156  1  -1.154778  0  -0.310876  -0.54684  0  2.342092  0
O  O168  1  0.59090730  0.15152367  0.32384023  1  -1.154421  0  -0.310801  -0.547067  0  2.342276  0
O  O169  1  0.40710054  0.81940570  0.67522638  1  -1.154747  0  -0.310441  -0.548357  0  2.325342  0
O  O170  1  0.14411164  0.73158764  0.32483660  1  -1.174164  0  -0.310375  -0.548091  0  2.324576  0
O  O171  1  0.82780968  0.26693905  0.67619437  1  -1.172798  0  -0.310934  -0.546363  0  2.342915  0
O  O172  1  0.73307875  0.17213138  0.32378869  1  -1.172459  0  -0.310955  -0.546367  0  2.342694  0
O  O173  1  0.25003859  0.74997255  0.50000239  1  -1.252414  0  -0.577104  -1.045276  0  2.567142  0
O  O174  1  0.88097895  0.11133763  0.44229660  1  -1.146187  0  -0.30001  -0.524824  0  2.267585  0
O  O175  1  0.08846213  0.85447195  0.53232066  1  -1.137385  0  -0.301514  -0.526974  0  2.267761  0
O  O176  1  0.11055760  0.56305117  0.44143768  1  -1.144273  0  -0.298189  -0.52492  0  2.272833  0
O  O177  1  0.85650367  0.44374978  0.53426525  1  -1.148154  0  -0.300598  -0.526919  0  2.274302  0
O  O178  1  0.56144193  0.33095154  0.44219645  1  -1.138002  0  -0.300272  -0.525907  0  2.270185  0
O  O179  1  0.44393106  0.67781645  0.53235426  1  -1.13915  0  -0.301863  -0.528121  0  2.266847  0
O  O180  1  0.33078379  0.87861050  0.44147077  1  -1.143371  0  -0.298691  -0.525466  0  2.275651  0
O  O181  1  0.67782240  0.09068314  0.53455364  1  -1.133649  0  -0.301043  -0.527463  0  2.274054  0
O  O182  1  0.12138684  0.66922116  0.55851501  1  -1.142666  0  -0.298596  -0.52526  0  2.275478  0
O  O183  1  0.90931692  0.32217924  0.46542933  1  -1.133464  0  -0.300946  -0.527381  0  2.274059  0
O  O184  1  0.88867827  0.11903798  0.55773704  1  -1.146277  0  -0.299912  -0.524677  0  2.267635  0
O  O185  1  0.14554163  0.91154107  0.46766812  1  -1.138031  0  -0.301446  -0.526912  0  2.267713  0
O  O186  1  0.43695789  0.88942951  0.55854096  1  -1.146361  0  -0.298427  -0.525302  0  2.273065  0
O  O187  1  0.55624873  0.14348891  0.46571293  1  -1.148541  0  -0.300783  -0.527156  0  2.274192  0
O  O188  1  0.66904664  0.43853470  0.55780961  1  -1.138449  0  -0.300303  -0.525857  0  2.270261  0
O  O189  1  0.32218494  0.55607336  0.46763958  1  -1.139205  0  -0.301844  -0.528154  0  2.267035  0
