# generated using pymatgen
data_AgH13C10N3ClO4
_symmetry_space_group_name_H-M   'P 1'
_cell_length_a   7.57639465
_cell_length_b   9.93967146
_cell_length_c   17.65375911
_cell_angle_alpha   102.98553460
_cell_angle_beta   89.99998062
_cell_angle_gamma   90.00014287
_symmetry_Int_Tables_number   1
_chemical_formula_structural   AgH13C10N3ClO4
_chemical_formula_sum   'Ag4 H52 C40 N12 Cl4 O16'
_cell_volume   1295.45116722
_cell_formula_units_Z   4
loop_
 _symmetry_equiv_pos_site_id
 _symmetry_equiv_pos_as_xyz
  1  'x, y, z'
loop_
 _atom_site_type_symbol
 _atom_site_label
 _atom_site_symmetry_multiplicity
 _atom_site_fract_x
 _atom_site_fract_y
 _atom_site_fract_z
 _atom_site_occupancy
 _atom_site_hle17_bader_spin_density
 _atom_site_hle17_ddec_charge
 _atom_site_hle17_ddec_spin_density
 _atom_site_hle17_ddec_sum_bond_order
 _atom_site_hle17_magmom
 _atom_site_hse06_10hf_bader_spin_density
 _atom_site_hse06_10hf_ddec_charge
 _atom_site_hse06_10hf_ddec_spin_density
 _atom_site_hse06_10hf_ddec_sum_bond_order
 _atom_site_hse06_10hf_magmom
 _atom_site_hse06_bader_spin_density
 _atom_site_hse06_ddec_charge
 _atom_site_hse06_ddec_spin_density
 _atom_site_hse06_ddec_sum_bond_order
 _atom_site_hse06_magmom
 _atom_site_pbe_bader_spin_density
 _atom_site_pbe_cm5_charge
 _atom_site_pbe_ddec_charge
 _atom_site_pbe_ddec_spin_density
 _atom_site_pbe_ddec_sum_bond_order
 _atom_site_pbe_magmom
Ag  Ag0  1  0.41561887  0.37705444  0.69115517  1  0  0.573469  0  1.339763  0  0  0.440658  0  1.761992  0  0  0.472333  0  1.714721  0  0  0.460051  0.417024  0  1.795968  0
Ag  Ag1  1  0.08438236  0.37705492  0.19115466  1  0  0.573447  0  1.339769  0  0  0.440641  0  1.761994  0  0  0.472314  0  1.714726  0  0  0.46005  0.417003  0  1.796008  0
Ag  Ag2  1  0.58438175  0.62294519  0.30884529  1  0  0.57347  0  1.339749  0  0  0.44065  0  1.761978  0  0  0.472325  0  1.714711  0  0  0.46005  0.417014  0  1.795985  0
Ag  Ag3  1  0.91561693  0.62294676  0.80884548  1  0  0.573431  0  1.339771  0  0  0.440622  0  1.761983  0  0  0.472298  0  1.714714  0  0  0.460033  0.416993  0  1.795945  0
H  H4  1  0.97033475  0.07483032  0.64515171  1  0  0.126225  0  0.925722  0  0  0.143235  0  0.988258  0  0  0.144114  0  0.987643  0  0  0.109454  0.142192  0  0.988555  0
H  H5  1  0.52966492  0.07483276  0.14515146  1  0  0.126242  0  0.925717  0  0  0.143259  0  0.988246  0  0  0.144137  0  0.987632  0  0  0.10946  0.14221  0  0.988567  0
H  H6  1  0.02966323  0.92517033  0.35484830  1  0  0.12628  0  0.925701  0  0  0.143256  0  0.988258  0  0  0.144134  0  0.987648  0  0  0.109452  0.142207  0  0.98858  0
H  H7  1  0.47033701  0.92517097  0.85484780  1  0  0.126253  0  0.92574  0  0  0.143222  0  0.988296  0  0  0.1441  0  0.987686  0  0  0.109442  0.142173  0  0.988617  0
H  H8  1  0.07443109  0.91434353  0.65052590  1  0  0.110387  0  0.945292  0  0  0.134094  0  1.001602  0  0  0.133572  0  1.002496  0  0  0.107958  0.133594  0  1.001667  0
H  H9  1  0.42556664  0.91434571  0.15052499  1  0  0.110418  0  0.945252  0  0  0.134132  0  1.001547  0  0  0.133611  0  1.00244  0  0  0.107969  0.133633  0  1.001612  0
H  H10  1  0.92556557  0.08565611  0.34947569  1  0  0.1104  0  0.945278  0  0  0.134109  0  1.001572  0  0  0.133586  0  1.002469  0  0  0.107948  0.13361  0  1.001639  0
H  H11  1  0.57443793  0.08565599  0.84947572  1  0  0.110373  0  0.945305  0  0  0.134077  0  1.0016  0  0  0.133555  0  1.002495  0  0  0.107961  0.13358  0  1.001646  0
H  H12  1  0.07664599  0.97214218  0.56081651  1  0  0.136801  0  0.970909  0  0  0.146242  0  1.040112  0  0  0.14846  0  1.03841  0  0  0.110226  0.144283  0  1.041204  0
H  H13  1  0.42335200  0.97214332  0.06081605  1  0  0.136834  0  0.970905  0  0  0.14629  0  1.040074  0  0  0.148508  0  1.038373  0  0  0.110255  0.144331  0  1.041166  0
H  H14  1  0.92335198  0.02785745  0.43918394  1  0  0.136866  0  0.970881  0  0  0.146297  0  1.04007  0  0  0.148515  0  1.038371  0  0  0.110257  0.144339  0  1.041162  0
H  H15  1  0.57664994  0.02785938  0.93918365  1  0  0.136775  0  0.970927  0  0  0.146211  0  1.040122  0  0  0.148434  0  1.038416  0  0  0.110214  0.144253  0  1.041213  0
H  H16  1  0.40065629  0.95943933  0.55737066  1  0  0.131818  0  0.97021  0  0  0.143662  0  1.036893  0  0  0.145569  0  1.035944  0  0  0.108288  0.141126  0  1.03908  0
H  H17  1  0.09934034  0.95943985  0.05737072  1  0  0.131811  0  0.970204  0  0  0.14363  0  1.036904  0  0  0.145537  0  1.035956  0  0  0.108262  0.141096  0  1.039088  0
H  H18  1  0.59933905  0.04056130  0.44262822  1  0  0.131841  0  0.970158  0  0  0.143659  0  1.036877  0  0  0.145565  0  1.03593  0  0  0.108277  0.141122  0  1.039066  0
H  H19  1  0.90066159  0.04056182  0.94262829  1  0  0.131843  0  0.970169  0  0  0.143663  0  1.036883  0  0  0.14557  0  1.035936  0  0  0.108287  0.141127  0  1.039072  0
H  H20  1  0.39729967  0.89802084  0.64615778  1  0  0.113772  0  0.936894  0  0  0.132565  0  1.001378  0  0  0.133028  0  1.000979  0  0  0.107667  0.13139  0  1.002105  0
H  H21  1  0.10269801  0.89802344  0.14615867  1  0  0.113803  0  0.936877  0  0  0.132595  0  1.001345  0  0  0.13306  0  1.000946  0  0  0.10768  0.13142  0  1.002074  0
H  H22  1  0.60269830  0.10197772  0.35384028  1  0  0.113768  0  0.936888  0  0  0.132568  0  1.001365  0  0  0.13303  0  1.000969  0  0  0.107662  0.131393  0  1.002091  0
H  H23  1  0.89730393  0.10197822  0.85383977  1  0  0.113762  0  0.936912  0  0  0.13256  0  1.001393  0  0  0.133023  0  1.000997  0  0  0.107674  0.131391  0  1.002094  0
H  H24  1  0.52488141  0.04878862  0.64021163  1  0  0.12503  0  0.9379  0  0  0.143386  0  1.000409  0  0  0.14444  0  0.999364  0  0  0.109404  0.142029  0  1.001333  0
H  H25  1  0.97511686  0.04879090  0.14021186  1  0  0.124988  0  0.937932  0  0  0.143346  0  1.000429  0  0  0.144396  0  0.999393  0  0  0.109388  0.141988  0  1.001374  0
H  H26  1  0.47511657  0.95120790  0.35978731  1  0  0.124978  0  0.9379  0  0  0.143349  0  1.000399  0  0  0.144397  0  0.999365  0  0  0.109388  0.14199  0  1.001343  0
H  H27  1  0.02488375  0.95120870  0.85978689  1  0  0.124978  0  0.937901  0  0  0.14335  0  1.000399  0  0  0.144398  0  0.999364  0  0  0.109388  0.141992  0  1.001342  0
H  H28  1  0.37725989  0.17116441  0.75397693  1  0  0.105993  0  0.971943  0  0  0.122531  0  1.042501  0  0  0.124198  0  1.039691  0  0  0.100418  0.120761  0  1.044822  0
H  H29  1  0.12273930  0.17116600  0.25397655  1  0  0.105983  0  0.971913  0  0  0.122543  0  1.042472  0  0  0.124209  0  1.039664  0  0  0.100414  0.12077  0  1.044822  0
H  H30  1  0.62274072  0.82883315  0.24602328  1  0  0.105961  0  0.971933  0  0  0.122507  0  1.042504  0  0  0.124172  0  1.039698  0  0  0.100414  0.120735  0  1.044853  0
H  H31  1  0.87726000  0.82883361  0.74602277  1  0  0.105953  0  0.971933  0  0  0.12252  0  1.042491  0  0  0.124187  0  1.039682  0  0  0.100408  0.120748  0  1.04484  0
H  H32  1  0.24534466  0.02186216  0.75670466  1  0  0.128458  0  0.94774  0  0  0.149095  0  1.002756  0  0  0.149841  0  1.003046  0  0  0.112431  0.147968  0  1.002805  0
H  H33  1  0.25465404  0.02186502  0.25670329  1  0  0.128489  0  0.947746  0  0  0.149134  0  1.002764  0  0  0.14988  0  1.003056  0  0  0.112446  0.148006  0  1.002813  0
H  H34  1  0.75465463  0.97813644  0.24329568  1  0  0.12847  0  0.947736  0  0  0.14911  0  1.00276  0  0  0.149856  0  1.003054  0  0  0.112436  0.147983  0  1.002809  0
H  H35  1  0.74534526  0.97813664  0.74329515  1  0  0.128473  0  0.9477  0  0  0.14912  0  1.00273  0  0  0.149866  0  1.003023  0  0  0.112444  0.147995  0  1.002749  0
H  H36  1  0.13995443  0.18531921  0.75579162  1  0  0.131332  0  0.958604  0  0  0.145749  0  1.023455  0  0  0.147675  0  1.021884  0  0  0.11063  0.143691  0  1.025115  0
H  H37  1  0.36004480  0.18532127  0.25579127  1  0  0.131283  0  0.95867  0  0  0.145752  0  1.023469  0  0  0.147679  0  1.021898  0  0  0.110621  0.143689  0  1.025176  0
H  H38  1  0.86004618  0.81468041  0.24420883  1  0  0.131288  0  0.958638  0  0  0.145741  0  1.023447  0  0  0.147667  0  1.02188  0  0  0.110619  0.143678  0  1.025154  0
H  H39  1  0.63995317  0.81468042  0.74420887  1  0  0.131308  0  0.95859  0  0  0.145747  0  1.023427  0  0  0.147675  0  1.021856  0  0  0.110618  0.143685  0  1.025133  0
H  H40  1  0.36762233  0.25127855  0.41276376  1  0  0.097978  0  0.952899  0  0  0.110607  0  1.010858  0  0  0.113498  0  1.009473  0  0  0.102933  0.108949  0  1.011428  0
H  H41  1  0.13238359  0.25128265  0.91276260  1  0  0.097938  0  0.952971  0  0  0.110574  0  1.010925  0  0  0.113464  0  1.009539  0  0  0.10295  0.108913  0  1.011498  0
H  H42  1  0.63237961  0.74871697  0.58723790  1  0  0.097931  0  0.952955  0  0  0.110572  0  1.010911  0  0  0.113463  0  1.009524  0  0  0.102944  0.108914  0  1.011481  0
H  H43  1  0.86761834  0.74871801  0.08723742  1  0  0.097991  0  0.952958  0  0  0.110626  0  1.010905  0  0  0.113517  0  1.009518  0  0  0.102966  0.108965  0  1.011483  0
H  H44  1  0.36833941  0.47419243  0.37088047  1  0  0.101919  0  1.002923  0  0  0.109563  0  1.074506  0  0  0.113513  0  1.070513  0  0  0.091859  0.106704  0  1.077617  0
H  H45  1  0.13166595  0.47419758  0.87088114  1  0  0.101975  0  1.002817  0  0  0.109577  0  1.074444  0  0  0.113525  0  1.070453  0  0  0.09187  0.106743  0  1.077494  0
H  H46  1  0.63166781  0.52580308  0.62912005  1  0  0.101965  0  1.002877  0  0  0.109567  0  1.0745  0  0  0.113517  0  1.070508  0  0  0.091868  0.106736  0  1.07754  0
H  H47  1  0.86833070  0.52580308  0.12911945  1  0  0.101956  0  1.002898  0  0  0.109559  0  1.074523  0  0  0.113507  0  1.070533  0  0  0.091874  0.106729  0  1.077589  0
H  H48  1  0.11377793  0.67154728  0.58542130  1  0  0.105481  0  0.942955  0  0  0.116671  0  1.002068  0  0  0.119547  0  1.001552  0  0  0.101145  0.114765  0  1.002489  0
H  H49  1  0.38622302  0.67154941  0.08542266  1  0  0.105548  0  0.942917  0  0  0.116742  0  1.002025  0  0  0.119616  0  1.00151  0  0  0.10116  0.114838  0  1.002445  0
H  H50  1  0.88622268  0.32845335  0.41457758  1  0  0.105491  0  0.942942  0  0  0.116682  0  1.002057  0  0  0.119558  0  1.001542  0  0  0.101145  0.114776  0  1.002479  0
H  H51  1  0.61377628  0.32845226  0.91457692  1  0  0.105475  0  0.94295  0  0  0.116662  0  1.002073  0  0  0.119537  0  1.001559  0  0  0.101151  0.114762  0  1.002472  0
H  H52  1  0.10858643  0.44756776  0.62547355  1  0  0.09992  0  0.970674  0  0  0.104851  0  1.040373  0  0  0.108316  0  1.037744  0  0  0.097377  0.102433  0  1.042373  0
H  H53  1  0.39141376  0.44756783  0.12547409  1  0  0.099931  0  0.970674  0  0  0.104852  0  1.040389  0  0  0.108317  0  1.03776  0  0  0.097377  0.102432  0  1.042395  0
H  H54  1  0.89141419  0.55243289  0.37452646  1  0  0.099918  0  0.970685  0  0  0.104854  0  1.040388  0  0  0.10832  0  1.037757  0  0  0.097378  0.102433  0  1.042398  0
H  H55  1  0.60858553  0.55243283  0.87452649  1  0  0.099918  0  0.970688  0  0  0.104846  0  1.040397  0  0  0.10831  0  1.037766  0  0  0.09738  0.102426  0  1.042371  0
C  C56  1  0.07898720  0.00385575  0.62400111  1  0  -0.220351  0  3.494858  0  0  -0.316132  0  3.728528  0  0  -0.311845  0  3.734788  0  0  -0.140431  -0.316631  0  3.723916  0
C  C57  1  0.42101023  0.00385791  0.12400020  1  0  -0.220475  0  3.494874  0  0  -0.31627  0  3.728559  0  0  -0.311995  0  3.734835  0  0  -0.140497  -0.316766  0  3.723949  0
C  C58  1  0.92100946  0.99614389  0.37599992  1  0  -0.220467  0  3.49488  0  0  -0.316209  0  3.728586  0  0  -0.311935  0  3.734858  0  0  -0.140463  -0.316699  0  3.723965  0
C  C59  1  0.57898906  0.99614376  0.87599938  1  0  -0.220316  0  3.49489  0  0  -0.316023  0  3.728527  0  0  -0.311751  0  3.734794  0  0  -0.140414  -0.316512  0  3.723894  0
C  C60  1  0.40579596  0.98877134  0.62067045  1  0  -0.226836  0  3.495873  0  0  -0.323901  0  3.729113  0  0  -0.320214  0  3.735893  0  0  -0.142762  -0.324157  0  3.724659  0
C  C61  1  0.09420072  0.98877288  0.12067064  1  0  -0.226856  0  3.495906  0  0  -0.323884  0  3.729164  0  0  -0.320203  0  3.735947  0  0  -0.142747  -0.324141  0  3.724718  0
C  C62  1  0.59420070  0.01122724  0.37932875  1  0  -0.226781  0  3.495894  0  0  -0.323843  0  3.729171  0  0  -0.320163  0  3.735956  0  0  -0.142743  -0.3241  0  3.724727  0
C  C63  1  0.90579990  0.01122776  0.87932881  1  0  -0.226732  0  3.495958  0  0  -0.323806  0  3.729248  0  0  -0.320124  0  3.736034  0  0  -0.142736  -0.324062  0  3.72479  0
C  C64  1  0.25249203  0.11754407  0.73590735  1  0  -0.231476  0  3.513013  0  0  -0.326455  0  3.745512  0  0  -0.323267  0  3.751968  0  0  -0.144889  -0.326365  0  3.741182  0
C  C65  1  0.24750832  0.11754591  0.23590699  1  0  -0.231468  0  3.512905  0  0  -0.326522  0  3.745422  0  0  -0.323341  0  3.751877  0  0  -0.144917  -0.326433  0  3.741123  0
C  C66  1  0.74750859  0.88245452  0.26409298  1  0  -0.231383  0  3.512889  0  0  -0.326404  0  3.745418  0  0  -0.323226  0  3.751877  0  0  -0.144901  -0.326316  0  3.741118  0
C  C67  1  0.75249229  0.88245370  0.76409233  1  0  -0.231354  0  3.512802  0  0  -0.326414  0  3.745351  0  0  -0.323233  0  3.751806  0  0  -0.144881  -0.326325  0  3.741038  0
C  C68  1  0.24610529  0.19751997  0.54469314  1  0  0.490785  0  3.920194  0  0  0.451305  0  4.205303  0  0  0.479639  0  4.207  0  0  0.209974  0.431635  0  4.203494  0
C  C69  1  0.25388755  0.19752076  0.04469095  1  0  0.490746  0  3.919989  0  0  0.451183  0  4.205223  0  0  0.479536  0  4.2069  0  0  0.209885  0.431493  0  4.20344  0
C  C70  1  0.75388741  0.80247966  0.45530788  1  0  0.490742  0  3.920053  0  0  0.451203  0  4.205233  0  0  0.479548  0  4.206921  0  0  0.20991  0.431526  0  4.203438  0
C  C71  1  0.74611306  0.80247884  0.95530780  1  0  0.49075  0  3.919994  0  0  0.451189  0  4.205228  0  0  0.479542  0  4.206906  0  0  0.209888  0.431501  0  4.203442  0
C  C72  1  0.24482919  0.33550973  0.52301256  1  0  -0.052331  0  3.773794  0  0  -0.036051  0  4.012201  0  0  -0.042002  0  4.034267  0  0  -0.022594  -0.031855  0  3.997053  0
C  C73  1  0.25517336  0.33551158  0.02301220  1  0  -0.052225  0  3.773612  0  0  -0.03592  0  4.012023  0  0  -0.041876  0  4.034083  0  0  -0.022514  -0.031719  0  3.996876  0
C  C74  1  0.75517143  0.66448992  0.47698903  1  0  -0.052274  0  3.773601  0  0  -0.035963  0  4.012002  0  0  -0.041918  0  4.034064  0  0  -0.022539  -0.031769  0  3.996858  0
C  C75  1  0.74482858  0.66448806  0.97698882  1  0  -0.052304  0  3.773561  0  0  -0.035987  0  4.011969  0  0  -0.041944  0  4.03403  0  0  -0.022565  -0.031789  0  3.99682  0
C  C76  1  0.31413132  0.34400774  0.45076478  1  0  -0.054207  0  3.724459  0  0  -0.07415  0  3.967699  0  0  -0.073714  0  3.987957  0  0  -0.084312  -0.074529  0  3.953658  0
C  C77  1  0.18587223  0.34400782  0.95076425  1  0  -0.054145  0  3.724519  0  0  -0.074086  0  3.96775  0  0  -0.073646  0  3.988003  0  0  -0.084337  -0.074466  0  3.953702  0
C  C78  1  0.68586929  0.65599188  0.54923511  1  0  -0.054144  0  3.72447  0  0  -0.074104  0  3.967722  0  0  -0.073667  0  3.987981  0  0  -0.084338  -0.074483  0  3.953685  0
C  C79  1  0.81412970  0.65599180  0.04923564  1  0  -0.054223  0  3.724559  0  0  -0.074175  0  3.967805  0  0  -0.073736  0  3.988057  0  0  -0.084343  -0.074554  0  3.953767  0
C  C80  1  0.31512277  0.46863793  0.42733136  1  0  -0.137379  0  3.753216  0  0  -0.158309  0  4.00123  0  0  -0.162999  0  4.0231  0  0  -0.100657  -0.155183  0  3.986729  0
C  C81  1  0.18488385  0.46863699  0.92733127  1  0  -0.137495  0  3.753154  0  0  -0.158416  0  4.001218  0  0  -0.163106  0  4.023086  0  0  -0.100689  -0.155306  0  3.986681  0
C  C82  1  0.68488444  0.53136274  0.57266979  1  0  -0.137453  0  3.753079  0  0  -0.158367  0  4.001126  0  0  -0.163057  0  4.022991  0  0  -0.100673  -0.155254  0  3.986609  0
C  C83  1  0.81511545  0.53136471  0.07267001  1  0  -0.137463  0  3.753132  0  0  -0.158346  0  4.001158  0  0  -0.163034  0  4.023024  0  0  -0.100695  -0.155234  0  3.986649  0
C  C84  1  0.24654547  0.58635247  0.47705806  1  0  0.139356  0  3.799426  0  0  0.152807  0  4.059047  0  0  0.15601  0  4.082192  0  0  0.013894  0.150466  0  4.043264  0
C  C85  1  0.25346149  0.58635269  0.97705753  1  0  0.139495  0  3.799328  0  0  0.15299  0  4.058882  0  0  0.156193  0  4.082026  0  0  0.014  0.150655  0  4.043091  0
C  C86  1  0.75346306  0.41364612  0.52294228  1  0  0.139422  0  3.799363  0  0  0.152931  0  4.058892  0  0  0.156133  0  4.082038  0  0  0.013971  0.150582  0  4.043116  0
C  C87  1  0.74653516  0.41364796  0.02294248  1  0  0.139447  0  3.799282  0  0  0.152901  0  4.058905  0  0  0.156103  0  4.082052  0  0  0.01396  0.150562  0  4.04312  0
C  C88  1  0.17373771  0.58014577  0.54879553  1  0  -0.12384  0  3.748079  0  0  -0.146382  0  3.998857  0  0  -0.150679  0  4.021514  0  0  -0.100106  -0.143055  0  3.982675  0
C  C89  1  0.32626429  0.58014675  0.04879676  1  0  -0.123959  0  3.748198  0  0  -0.146532  0  3.99899  0  0  -0.150829  0  4.021646  0  0  -0.100144  -0.1432  0  3.98278  0
C  C90  1  0.82626422  0.41985488  0.45120448  1  0  -0.123855  0  3.748113  0  0  -0.146418  0  3.99889  0  0  -0.150716  0  4.021548  0  0  -0.100111  -0.143092  0  3.982715  0
C  C91  1  0.67373501  0.41985391  0.95120383  1  0  -0.123767  0  3.748115  0  0  -0.146319  0  3.998909  0  0  -0.150618  0  4.021569  0  0  -0.100072  -0.142985  0  3.982675  0
C  C92  1  0.17207840  0.45430334  0.57112496  1  0  -0.090314  0  3.777348  0  0  -0.109  0  4.029167  0  0  -0.10945  0  4.049659  0  0  -0.097141  -0.108341  0  4.014704  0
C  C93  1  0.32792449  0.45430533  0.07112460  1  0  -0.090368  0  3.777452  0  0  -0.109041  0  4.029263  0  0  -0.10949  0  4.049754  0  0  -0.097182  -0.108398  0  4.014853  0
C  C94  1  0.82792089  0.54569627  0.42887437  1  0  -0.090317  0  3.777351  0  0  -0.109013  0  4.029156  0  0  -0.109465  0  4.049653  0  0  -0.09716  -0.108351  0  4.014692  0
C  C95  1  0.67207744  0.54569530  0.92887428  1  0  -0.090384  0  3.777407  0  0  -0.109059  0  4.029199  0  0  -0.109507  0  4.049689  0  0  -0.097196  -0.108407  0  4.014738  0
N  N96  1  0.25632386  0.20955704  0.62281335  1  0  -0.507972  0  2.942311  0  0  -0.452253  0  3.245976  0  0  -0.477277  0  3.255594  0  0  -0.327334  -0.433735  0  3.238457  0
N  N97  1  0.24367820  0.20955680  0.12281273  1  0  -0.508025  0  2.942239  0  0  -0.452265  0  3.245925  0  0  -0.477306  0  3.255536  0  0  -0.327299  -0.43374  0  3.238425  0
N  N98  1  0.74367940  0.79044260  0.37718768  1  0  -0.508013  0  2.942335  0  0  -0.452216  0  3.24596  0  0  -0.477255  0  3.255567  0  0  -0.327301  -0.433698  0  3.238457  0
N  N99  1  0.75631978  0.79044281  0.87718659  1  0  -0.507964  0  2.942295  0  0  -0.452179  0  3.245933  0  0  -0.477219  0  3.255541  0  0  -0.327295  -0.433655  0  3.238424  0
N  N100  1  0.24905105  0.07925730  0.64890792  1  0  0.277524  0  3.405042  0  0  0.371615  0  3.628208  0  0  0.364073  0  3.652849  0  0  -0.137786  0.374026  0  3.612214  0
N  N101  1  0.25094793  0.07925811  0.14890744  1  0  0.277641  0  3.404947  0  0  0.371712  0  3.628163  0  0  0.364201  0  3.652736  0  0  -0.13772  0.374122  0  3.612172  0
N  N102  1  0.75094561  0.92074232  0.35109254  1  0  0.277453  0  3.405118  0  0  0.371518  0  3.62832  0  0  0.364021  0  3.652857  0  0  -0.137767  0.373928  0  3.612332  0
N  N103  1  0.74905401  0.92074254  0.85109258  1  0  0.277335  0  3.405172  0  0  0.371421  0  3.628362  0  0  0.36391  0  3.652932  0  0  -0.137815  0.373832  0  3.61237  0
N  N104  1  0.77240059  0.32569043  0.75759156  1  0  0.682396  0  4.150096  0  0  0.70969  0  4.442683  0  0  0.738923  0  4.450361  0  0  0.091873  0.702603  0  4.418735  0
N  N105  1  0.72759980  0.32569017  0.25759208  1  0  0.682329  0  4.15007  0  0  0.709655  0  4.442623  0  0  0.738861  0  4.450335  0  0  0.091838  0.689745  0  4.43655  0
N  N106  1  0.22760134  0.67430817  0.24240877  1  0  0.682433  0  4.149839  0  0  0.709686  0  4.442467  0  0  0.738943  0  4.450117  0  0  0.091895  0.689776  0  4.436393  0
N  N107  1  0.27239817  0.67430945  0.74240838  1  0  0.682453  0  4.149898  0  0  0.709719  0  4.442514  0  0  0.738973  0  4.450165  0  0  0.091902  0.689809  0  4.436436  0
Cl  Cl108  1  0.24626988  0.74193987  0.44817789  1  0  -0.069015  0  1.381751  0  0  -0.046165  0  1.626087  0  0  -0.049177  0  1.620828  0  0  0.030178  -0.043667  0  1.630496  0
Cl  Cl109  1  0.25372969  0.74194426  0.94818071  1  0  -0.069062  0  1.381741  0  0  -0.046229  0  1.62606  0  0  -0.04924  0  1.620798  0  0  0.030139  -0.043734  0  1.630469  0
Cl  Cl110  1  0.75373470  0.25805662  0.55181992  1  0  -0.069057  0  1.381769  0  0  -0.046232  0  1.626088  0  0  -0.049245  0  1.620829  0  0  0.030143  -0.043713  0  1.630497  0
Cl  Cl111  1  0.74626168  0.25805847  0.05182069  1  0  -0.069065  0  1.381744  0  0  -0.046214  0  1.626066  0  0  -0.049225  0  1.620806  0  0  0.030153  -0.043716  0  1.630477  0
O  O112  1  0.23875995  0.08888528  0.49239932  1  0  -0.568649  0  1.927073  0  0  -0.515059  0  2.140821  0  0  -0.53743  0  2.136811  0  0  -0.316128  -0.499747  0  2.144154  0
O  O113  1  0.26123218  0.08888653  0.99239836  1  0  -0.568645  0  1.926996  0  0  -0.515035  0  2.140794  0  0  -0.537411  0  2.136775  0  0  -0.316135  -0.499716  0  2.144135  0
O  O114  1  0.76122087  0.91111538  0.50760126  1  0  -0.568604  0  1.927046  0  0  -0.515031  0  2.140869  0  0  -0.537408  0  2.136859  0  0  -0.316111  -0.499715  0  2.144204  0
O  O115  1  0.73877899  0.91111617  0.00760134  1  0  -0.568581  0  1.92699  0  0  -0.515007  0  2.140833  0  0  -0.537387  0  2.13682  0  0  -0.316088  -0.499688  0  2.144171  0
O  O116  1  0.68429290  0.43085318  0.74566097  1  0  -0.494906  0  1.957134  0  0  -0.45256  0  2.229231  0  0  -0.47585  0  2.216808  0  0  -0.207268  -0.439885  0  2.232856  0
O  O117  1  0.81570785  0.43085309  0.24566093  1  0  -0.494893  0  1.95711  0  0  -0.452553  0  2.229187  0  0  -0.475834  0  2.216777  0  0  -0.207254  -0.43566  0  2.237548  0
O  O118  1  0.31570772  0.56914437  0.25433867  1  0  -0.494919  0  1.957038  0  0  -0.452539  0  2.229121  0  0  -0.475838  0  2.216698  0  0  -0.207243  -0.435644  0  2.237478  0
O  O119  1  0.18429277  0.56914551  0.75433940  1  0  -0.494942  0  1.957092  0  0  -0.452573  0  2.22917  0  0  -0.475873  0  2.21675  0  0  -0.207263  -0.435676  0  2.237505  0
O  O120  1  0.92872827  0.34580427  0.78132218  1  0  -0.43136  0  1.804532  0  0  -0.406394  0  2.024958  0  0  -0.423524  0  2.018868  0  0  -0.168369  -0.398676  0  2.024388  0
O  O121  1  0.57127217  0.34580371  0.28132269  1  0  -0.431314  0  1.804483  0  0  -0.406365  0  2.024904  0  0  -0.423489  0  2.018825  0  0  -0.168352  -0.394325  0  2.029538  0
O  O122  1  0.07127498  0.65419638  0.21867727  1  0  -0.431374  0  1.804557  0  0  -0.406392  0  2.024983  0  0  -0.423533  0  2.018887  0  0  -0.168382  -0.394354  0  2.02962  0
O  O123  1  0.42872317  0.65419794  0.71867518  1  0  -0.431392  0  1.804629  0  0  -0.406363  0  2.025007  0  0  -0.423516  0  2.018931  0  0  -0.168357  -0.394326  0  2.029635  0
O  O124  1  0.70031995  0.20898792  0.74620866  1  0  -0.470007  0  1.793185  0  0  -0.465506  0  2.02382  0  0  -0.4793  0  2.016176  0  0  -0.185981  -0.459879  0  2.024074  0
O  O125  1  0.79968007  0.20898677  0.24620849  1  0  -0.469983  0  1.793207  0  0  -0.465502  0  2.023843  0  0  -0.479285  0  2.016207  0  0  -0.185979  -0.455499  0  2.029291  0
O  O126  1  0.29968330  0.79101175  0.25379464  1  0  -0.470007  0  1.792951  0  0  -0.465529  0  2.023656  0  0  -0.47933  0  2.016002  0  0  -0.18602  -0.455525  0  2.029103  0
O  O127  1  0.20031790  0.79101291  0.75379481  1  0  -0.470003  0  1.792911  0  0  -0.465549  0  2.023628  0  0  -0.479346  0  2.015973  0  0  -0.186028  -0.455545  0  2.029075  0
