# generated using pymatgen
data_CoH20C26(NO5)2
_symmetry_space_group_name_H-M   'P 1'
_cell_length_a   6.62911646
_cell_length_b   8.47776699
_cell_length_c   11.09780008
_cell_angle_alpha   91.00732461
_cell_angle_beta   104.66692091
_cell_angle_gamma   84.53019587
_symmetry_Int_Tables_number   1
_chemical_formula_structural   CoH20C26(NO5)2
_chemical_formula_sum   'Co1 H20 C26 N2 O10'
_cell_volume   600.61244538
_cell_formula_units_Z   1
loop_
 _symmetry_equiv_pos_site_id
 _symmetry_equiv_pos_as_xyz
  1  'x, y, z'
loop_
 _atom_site_type_symbol
 _atom_site_label
 _atom_site_symmetry_multiplicity
 _atom_site_fract_x
 _atom_site_fract_y
 _atom_site_fract_z
 _atom_site_occupancy
 _atom_site_hle17_ddec_charge
 _atom_site_hle17_ddec_spin_density
 _atom_site_hle17_ddec_sum_bond_order
 _atom_site_hle17_magmom
 _atom_site_hse06_10hf_ddec_charge
 _atom_site_hse06_10hf_ddec_spin_density
 _atom_site_hse06_10hf_ddec_sum_bond_order
 _atom_site_hse06_10hf_magmom
 _atom_site_hse06_ddec_charge
 _atom_site_hse06_ddec_spin_density
 _atom_site_hse06_ddec_sum_bond_order
 _atom_site_hse06_magmom
 _atom_site_pbe_cm5_charge
 _atom_site_pbe_ddec_charge
 _atom_site_pbe_ddec_spin_density
 _atom_site_pbe_ddec_sum_bond_order
 _atom_site_pbe_magmom
Co  Co0  1  0.49998642  0.49999501  0.99999964  1  0.757481  -1.147198  2.308176  -1.036  0.73734  -1.045696  2.740534  -0.978  0.802007  -1.034996  2.666319  -0.975  0.622944  0.700491  -1.050066  2.786171  -0.973
H  H1  1  0.81884046  0.61607196  0.01920800  1  0.401268  0.00014  0.908252  0.0  0.370944  8.6e-05  0.985548  0.0  0.382598  6.3e-05  0.969019  0.0  0.29146  0.362771  8.1e-05  0.995962  0.0
H  H2  1  0.18113766  0.38390903  0.98078921  1  0.401106  0.000141  0.908472  0.0  0.370797  8.6e-05  0.985757  0.0  0.382453  6.3e-05  0.969226  0.0  0.291419  0.362629  8.2e-05  0.996154  0.0
H  H3  1  0.81312200  0.56462906  0.16079237  1  0.416378  0.000119  0.890009  0.0  0.388734  0.000107  0.950265  0.0  0.399718  9.5e-05  0.934686  0.0  0.296921  0.381139  9.1e-05  0.961021  0.0
H  H4  1  0.18684587  0.43536851  0.83920120  1  0.41643  0.00012  0.889805  0.0  0.388754  0.000107  0.950188  0.0  0.399736  9.5e-05  0.934612  0.0  0.296937  0.381166  9.1e-05  0.960933  0.0
H  H5  1  0.36674162  0.58343490  0.69254576  1  0.407823  -2e-06  0.875455  0.0  0.376854  -2e-05  0.953049  0.0  0.390675  4e-05  0.938241  0.0  0.302219  0.367173  -9.5e-05  0.963222  0.0
H  H6  1  0.63328363  0.41657417  0.30745783  1  0.407752  -2e-06  0.875613  0.0  0.37687  -2e-05  0.953038  0.0  0.390658  4e-05  0.938292  0.0  0.302272  0.367202  -9.5e-05  0.963179  0.0
H  H7  1  0.63934793  0.82431549  0.04398972  1  0.084931  -1.9e-05  0.98186  -0.001  0.091421  0.000134  1.0462  0.0  0.093972  8.5e-05  1.043494  0.0  0.120286  0.089354  0.000159  1.048596  0.0
H  H8  1  0.36061571  0.17567578  0.95598999  1  0.084925  -1.9e-05  0.981912  -0.001  0.091447  0.000134  1.046188  0.0  0.094003  8.5e-05  1.043471  0.0  0.1203  0.089298  0.00016  1.048687  0.0
H  H9  1  0.57017426  0.04804139  0.17584047  1  0.113681  0.000563  0.94448  0.001  0.12625  9e-05  0.997898  0.0  0.129256  0.000104  0.99742  0.0  0.112918  0.124034  8e-05  0.998476  0.0
H  H10  1  0.42981700  0.95195320  0.82414193  1  0.113595  0.000563  0.944561  0.001  0.126224  9e-05  0.997893  0.0  0.129232  0.000104  0.997412  0.0  0.112911  0.124008  8e-05  0.998479  0.0
H  H11  1  0.07766116  0.79839399  0.25562906  1  0.117332  0.000408  0.972158  0.001  0.123607  2.8e-05  1.037666  0.0  0.127406  4e-05  1.035633  0.0  0.107059  0.120909  2.3e-05  1.039347  0.0
H  H12  1  0.92234241  0.20161446  0.74438494  1  0.117365  0.000407  0.97216  0.001  0.123641  2.8e-05  1.037657  0.0  0.127436  3.9e-05  1.035627  0.0  0.107082  0.120945  2.3e-05  1.039337  0.0
H  H13  1  0.16838275  0.58465785  0.12118031  1  0.090563  7.4e-05  0.958828  0.0  0.101582  0.000195  1.017263  0.0  0.103792  0.000148  1.014986  0.0  0.124605  0.099686  0.000211  1.019284  0.0
H  H14  1  0.83159492  0.41534368  0.87883025  1  0.090557  7.3e-05  0.958783  0.0  0.101597  0.000195  1.017214  0.0  0.103809  0.000148  1.014934  0.0  0.124633  0.0997  0.000211  1.019231  0.0
H  H15  1  0.29900863  0.46125988  0.38675227  1  0.109799  0.00013  0.944162  0.0  0.116872  2.5e-05  1.010669  0.0  0.120553  1.7e-05  1.007988  0.0  0.108897  0.114112  3.7e-05  1.012864  0.0
H  H16  1  0.70102051  0.53874205  0.61325168  1  0.109805  0.000131  0.944325  0.0  0.116894  2.6e-05  1.010801  0.0  0.120576  1.7e-05  1.008117  0.0  0.10889  0.114134  3.7e-05  1.012994  0.0
H  H17  1  0.18025230  0.08817758  0.60921158  1  0.095644  0.000112  0.958646  0.0  0.103443  1.1e-05  1.025418  0.0  0.106669  9e-06  1.023581  0.0  0.104424  0.101107  1.9e-05  1.026796  0.0
H  H18  1  0.81977592  0.91182683  0.39079592  1  0.095488  0.000112  0.958902  0.0  0.103316  1.1e-05  1.025635  0.0  0.106543  9e-06  1.023794  0.0  0.10439  0.100993  1.9e-05  1.026989  0.0
H  H19  1  0.23005742  0.89249330  0.44835822  1  0.102786  -0.000115  0.941208  0.0  0.114067  -3e-05  0.998883  0.0  0.117061  -2e-05  0.998181  0.0  0.10666  0.111959  -4.4e-05  0.999477  0.0
H  H20  1  0.76997747  0.10750871  0.55165067  1  0.102874  -0.000116  0.941242  0.0  0.114188  -3e-05  0.998873  0.0  0.117185  -2e-05  0.998166  0.0  0.106705  0.112086  -4.4e-05  0.999463  0.0
C  C21  1  0.51637455  0.82239123  0.09281526  1  0.116576  0.020406  3.680754  0.014  0.088038  0.007011  3.937205  0.004  0.099329  0.005186  3.95215  0.003  0.040936  0.08015  0.008535  3.92837  0.005
C  C22  1  0.48359652  0.17760493  0.90717216  1  0.116605  0.020423  3.680478  0.014  0.088116  0.007016  3.936818  0.004  0.099412  0.005188  3.951764  0.003  0.040955  0.080298  0.008539  3.927985  0.005
C  C23  1  0.47455326  0.94865669  0.16669672  1  -0.155621  -0.006051  3.705714  -0.009  -0.177108  -0.000732  3.95866  -0.002  -0.186102  -0.000959  3.977525  -0.002  -0.08192  -0.171467  -0.000578  3.946756  -0.002
C  C24  1  0.52543516  0.05133815  0.83329278  1  -0.155502  -0.006058  3.70538  -0.009  -0.177006  -0.000732  3.958254  -0.002  -0.185996  -0.00096  3.977117  -0.002  -0.081837  -0.17136  -0.000578  3.94633  -0.002
C  C25  1  0.31926933  0.94361784  0.23185450  1  0.106631  0.020865  3.762048  0.014  0.116234  0.007333  3.998303  0.005  0.124297  0.004703  4.017625  0.003  0.011038  0.110424  0.010054  3.985665  0.006
C  C26  1  0.68073279  0.05638304  0.76814403  1  0.106489  0.02088  3.762061  0.014  0.116034  0.007338  3.998407  0.005  0.12409  0.004705  4.017739  0.003  0.010999  0.110239  0.010059  3.985757  0.006
C  C27  1  0.20577372  0.80986297  0.21224954  1  -0.158174  -0.005718  3.676365  -0.008  -0.174156  -0.000752  3.919918  -0.002  -0.182787  -0.001034  3.937109  -0.002  -0.083051  -0.168791  -0.0005  3.909292  -0.002
C  C28  1  0.79422550  0.19014056  0.78775696  1  -0.158191  -0.005722  3.676456  -0.008  -0.174135  -0.000753  3.920024  -0.002  -0.182764  -0.001034  3.937218  -0.002  -0.082984  -0.168779  -0.0005  3.909404  -0.002
C  C29  1  0.25569425  0.68828106  0.13675804  1  0.146614  0.019161  3.646005  0.013  0.115265  0.006556  3.898913  0.004  0.127682  0.004942  3.912471  0.003  0.046147  0.106499  0.007905  3.891176  0.005
C  C30  1  0.74428649  0.31172025  0.86324635  1  0.146601  0.01917  3.64599  0.013  0.115216  0.00656  3.898972  0.004  0.127636  0.004943  3.912532  0.003  0.046001  0.106451  0.007908  3.891238  0.005
C  C31  1  0.28272786  0.06584203  0.32205969  1  0.052629  -0.002288  3.724738  -0.004  0.055606  -0.000798  3.95845  -0.001  0.057114  -0.000772  3.978957  -0.001  0.006807  0.054566  -0.000866  3.945082  -0.002
C  C32  1  0.71728618  0.93415888  0.67794418  1  0.052777  -0.002287  3.724809  -0.004  0.055695  -0.000798  3.958622  -0.001  0.057218  -0.000773  3.979109  -0.001  0.006747  0.054634  -0.000865  3.945285  -0.002
C  C33  1  0.30212894  0.22827978  0.30553506  1  -0.084028  0.003205  3.688308  0.002  -0.06514  0.000123  3.924966  -0.001  -0.070819  0.000211  3.943378  -0.001  -0.007552  -0.062137  0.000101  3.913253  -0.001
C  C34  1  0.69788356  0.77172115  0.69446871  1  -0.084052  0.003204  3.688227  0.002  -0.065119  0.000124  3.924897  -0.001  -0.070799  0.000211  3.943301  -0.001  -0.007479  -0.062111  0.000102  3.91319  -0.001
C  C35  1  0.28168687  0.33660386  0.39888849  1  -0.052828  -0.001811  3.683633  -0.003  -0.09145  -0.000346  3.935622  -0.001  -0.088069  -0.000421  3.951641  -0.001  -0.074636  -0.093665  -0.00032  3.925514  -0.001
C  C36  1  0.71833796  0.66339354  0.60112070  1  -0.052742  -0.00181  3.683577  -0.003  -0.091381  -0.000346  3.935521  -0.001  -0.087997  -0.000421  3.951536  -0.001  -0.074617  -0.093592  -0.00032  3.925409  -0.001
C  C37  1  0.23631637  0.28694268  0.50802765  1  -0.081805  0.005861  3.778095  0.004  -0.059942  0.001788  4.019034  0.001  -0.068545  0.001289  4.041403  0.001  -0.020067  -0.054744  0.002671  4.004402  0.002
C  C38  1  0.76370852  0.71306154  0.49197234  1  -0.082178  0.005861  3.77839  0.004  -0.060276  0.00179  4.019409  0.001  -0.068885  0.00129  4.041777  0.001  -0.020089  -0.055067  0.002673  4.004792  0.002
C  C39  1  0.21168127  0.12680286  0.52330998  1  -0.055911  -0.002087  3.748616  -0.003  -0.085524  -0.000809  4.005042  -0.001  -0.083997  -0.000687  4.024639  -0.001  -0.080524  -0.086306  -0.001054  3.991901  -0.001
C  C40  1  0.78834694  0.87320155  0.47669751  1  -0.055484  -0.002085  3.748629  -0.003  -0.08513  -0.000809  4.005037  -0.001  -0.083596  -0.000687  4.024636  -0.001  -0.080455  -0.08592  -0.001054  3.991905  -0.001
C  C41  1  0.23732319  0.01804091  0.43223006  1  -0.107836  0.005833  3.734314  0.004  -0.125249  0.001626  3.987999  0.001  -0.129461  0.001288  4.009014  0.001  -0.084292  -0.122618  0.002232  3.973995  0.001
C  C42  1  0.76269943  0.98196243  0.56777890  1  -0.108005  0.005831  3.734406  0.004  -0.125431  0.001626  3.988113  0.001  -0.129647  0.001289  4.009123  0.001  -0.084295  -0.122799  0.002233  3.974119  0.001
C  C43  1  0.22949292  0.39673441  0.61289667  1  0.669959  0.000637  3.802211  0.0  0.616711  0.000146  4.101634  0.0  0.650619  4.1e-05  4.092618  0.0  0.238731  0.593547  0.000353  4.107606  0.0
C  C44  1  0.77051148  0.60327034  0.38711289  1  0.670057  0.000636  3.801847  0.0  0.616701  0.000146  4.101439  0.0  0.650618  4.1e-05  4.092417  0.0  0.238674  0.5935  0.000354  4.107451  0.0
C  C45  1  0.32685051  0.28932536  0.18396993  1  0.645435  0.002203  3.890058  0.002  0.591108  0.000583  4.201285  0.0  0.624356  0.000636  4.194719  0.0  0.216256  0.568812  0.000506  4.204321  0.0
C  C46  1  0.67315218  0.71067439  0.81603047  1  0.645337  0.002203  3.890007  0.002  0.590934  0.000583  4.201359  0.0  0.624178  0.000636  4.194796  0.0  0.216185  0.568636  0.000505  4.20439  0.0
N  N47  1  0.41323036  0.69021186  0.07968028  1  -0.257958  0.012514  3.337876  0.006  -0.212342  0.009381  3.625471  0.006  -0.237667  0.008052  3.639474  0.006  -0.343101  -0.197355  0.009767  3.616629  0.007
N  N48  1  0.58673977  0.30978338  0.92031529  1  -0.257886  0.012512  3.337858  0.006  -0.212345  0.00938  3.625517  0.006  -0.237682  0.008051  3.639534  0.006  -0.343105  -0.197361  0.009768  3.616662  0.007
O  O49  1  0.79273510  0.52715080  0.07272473  1  -0.753112  0.016302  2.064996  0.013  -0.730901  0.008852  2.302092  0.008  -0.7649  0.008654  2.269618  0.008  -0.562786  -0.706639  0.007452  2.322263  0.007
O  O50  1  0.20723721  0.47283509  0.92727567  1  -0.752974  0.016301  2.06497  0.013  -0.730782  0.008853  2.302242  0.008  -0.764779  0.008654  2.269767  0.008  -0.562726  -0.706515  0.007453  2.322366  0.007
O  O51  1  0.48855292  0.36284447  0.18392984  1  -0.631133  -0.019412  2.037374  -0.034  -0.580346  -0.018705  2.279866  -0.031  -0.61124  -0.015109  2.268548  -0.025  -0.297694  -0.55746  -0.022958  2.285966  -0.038
O  O52  1  0.51143638  0.63716228  0.81606229  1  -0.631141  -0.019405  2.037237  -0.034  -0.580258  -0.018701  2.279732  -0.031  -0.611182  -0.015106  2.268431  -0.025  -0.297697  -0.55737  -0.022953  2.285839  -0.038
O  O53  1  0.18245803  0.26626037  0.08861225  1  -0.583008  0.001155  1.978345  0.001  -0.533928  0.000438  2.198417  0.0  -0.557739  0.000546  2.189897  0.0  -0.303542  -0.51704  0.000335  2.203399  0.0
O  O54  1  0.81753325  0.73373120  0.91138751  1  -0.58298  0.001154  1.978406  0.001  -0.533866  0.000438  2.198513  0.0  -0.557671  0.000546  2.189993  0.0  -0.303499  -0.516998  0.000334  2.203519  0.0
O  O55  1  0.15961379  0.35807412  0.70104005  1  -0.577256  0.001257  2.01853  0.001  -0.52349  0.000569  2.236947  0.0  -0.545227  0.000389  2.228102  0.0  -0.280814  -0.508993  0.000864  2.243204  0.001
O  O56  1  0.84037317  0.64195478  0.29893977  1  -0.57735  0.001262  2.01758  0.001  -0.523597  0.00057  2.236048  0.0  -0.545346  0.000388  2.22721  0.0  -0.280853  -0.509081  0.000865  2.242315  0.001
O  O57  1  0.30962049  0.53253773  0.60604047  1  -0.558154  0.00014  2.105949  0.0  -0.505896  -5.3e-05  2.325788  0.0  -0.5296  -3.9e-05  2.311756  0.0  -0.326929  -0.489338  -4.2e-05  2.334954  0.0
O  O58  1  0.69040700  0.46746881  0.39395875  1  -0.557985  0.00014  2.106354  0.0  -0.505703  -5.2e-05  2.326165  0.0  -0.529389  -3.9e-05  2.312176  0.0  -0.326864  -0.489149  -4.1e-05  2.335328  0.0
