# generated using pymatgen
data_Al2H33C34I(N4O5)2
_symmetry_space_group_name_H-M   'P 1'
_cell_length_a   6.76955385
_cell_length_b   22.23634316
_cell_length_c   26.56578998
_cell_angle_alpha   101.07735740
_cell_angle_beta   89.99990809
_cell_angle_gamma   90.00106681
_symmetry_Int_Tables_number   1
_chemical_formula_structural   Al2H33C34I(N4O5)2
_chemical_formula_sum   'Al4 H66 C68 I2 N16 O20'
_cell_volume   3924.44582985
_cell_formula_units_Z   2
loop_
 _symmetry_equiv_pos_site_id
 _symmetry_equiv_pos_as_xyz
  1  'x, y, z'
loop_
 _atom_site_type_symbol
 _atom_site_label
 _atom_site_symmetry_multiplicity
 _atom_site_fract_x
 _atom_site_fract_y
 _atom_site_fract_z
 _atom_site_occupancy
 _atom_site_pbe_bader_charge
 _atom_site_pbe_bader_spin_density
 _atom_site_pbe_cm5_charge
 _atom_site_pbe_ddec_charge
 _atom_site_pbe_ddec_spin_density
 _atom_site_pbe_ddec_sum_bond_order
 _atom_site_pbe_magmom
Al  Al0  1  0.90387569  0.50095115  0.50201006  1  2.504565  0  0.403255  1.640098  0  2.575068  0
Al  Al1  1  0.40387662  0.49904957  0.49798672  1  2.504518  0  0.403244  1.640171  0  2.574896  0
Al  Al2  1  0.30053058  0.00058932  0.99882706  1  2.505487  0  0.405732  1.649356  0  2.571684  0
Al  Al3  1  0.80054046  0.99941198  0.00116929  1  2.505384  0  0.405802  1.64957  0  2.571163  0
H  H4  1  0.85599675  0.73794488  0.81409287  1  0.055214  0  0.08854  0.101378  0  1.025368  0
H  H5  1  0.35602252  0.26206166  0.18590736  1  0.055334  0  0.088563  0.101425  0  1.025349  0
H  H6  1  0.99429750  0.65640566  0.75914616  1  0.052056  0  0.104542  0.06543  0  0.980209  0
H  H7  1  0.49431755  0.34359875  0.24085795  1  0.052263  0  0.104595  0.065549  0  0.98011  0
H  H8  1  0.45617215  0.71574625  0.73163357  1  0.044088  0  0.102433  0.102945  0  1.051583  0
H  H9  1  0.95618824  0.28425511  0.26836860  1  0.043901  0  0.102425  0.103008  0  1.051503  0
H  H10  1  0.32936462  0.65813770  0.75652222  1  0.080374  0  0.099151  0.122994  0  0.986242  0
H  H11  1  0.82939708  0.34185949  0.24348026  1  0.079841  0  0.099179  0.123015  0  0.986274  0
H  H12  1  0.99606050  0.77393805  0.67574454  1  0.015479  0  0.10848  0.058203  0  1.002197  0
H  H13  1  0.49609540  0.22605771  0.32425915  1  0.015572  0  0.108471  0.05813  0  1.002314  0
H  H14  1  0.03164761  0.85650311  0.74357007  1  0.042155  0  0.097256  0.105308  0  0.977011  0
H  H15  1  0.53161546  0.14349980  0.25642694  1  0.042071  0  0.097231  0.105283  0  0.977153  0
H  H16  1  0.80274876  0.78017185  0.76443129  1  0.024309  0  0.095938  0.099822  0  1.009841  0
H  H17  1  0.30275389  0.21983097  0.23556584  1  0.024448  0  0.095999  0.09994  0  1.009744  0
H  H18  1  0.28811989  0.84300847  0.74966538  1  0.050302  0  0.097083  0.104366  0  0.994021  0
H  H19  1  0.78810166  0.15698314  0.25032977  1  0.050381  0  0.097107  0.104416  0  0.993973  0
H  H20  1  0.37260690  0.91883236  0.11776513  1  0.120362  0  0.110684  0.122479  0  1.004588  0
H  H21  1  0.87263169  0.08116289  0.88222700  1  0.120138  0  0.110616  0.12233  0  1.00469  0
H  H22  1  0.78774984  0.81032718  0.16775519  1  0.092886  0  0.107241  0.108296  0  1.021261  0
H  H23  1  0.28777447  0.18966928  0.83224152  1  0.0931  0  0.107245  0.108404  0  1.021125  0
H  H24  1  0.75707967  0.87336268  0.09956251  1  0.090474  0  0.103179  0.111236  0  1.013454  0
H  H25  1  0.25711267  0.12662443  0.90043030  1  0.090088  0  0.103257  0.111281  0  1.013449  0
H  H26  1  0.41438823  0.64719718  0.30384284  1  0.122505  0  0.107355  0.106532  0  1.016166  0
H  H27  1  0.91439796  0.35280873  0.69615512  1  0.122782  0  0.10738  0.106502  0  1.016165  0
H  H28  1  0.43812459  0.58693756  0.37441493  1  0.074117  0  0.11233  0.118477  0  0.987507  0
H  H29  1  0.93811525  0.41307176  0.62558650  1  0.074188  0  0.112319  0.11851  0  0.987393  0
H  H30  1  0.83778748  0.63368469  0.41740999  1  0.106861  0  0.111154  0.117394  0  0.991374  0
H  H31  1  0.33777592  0.36630832  0.58259400  1  0.106735  0  0.111141  0.11749  0  0.991243  0
H  H32  1  0.81586087  0.69669304  0.34881376  1  0.097511  0  0.103765  0.101401  0  1.02238  0
H  H33  1  0.31586655  0.30330343  0.65119138  1  0.09752  0  0.103788  0.101464  0  1.022422  0
H  H34  1  0.69095973  0.64750930  0.72259415  1  0.414798  0  0.297295  0.243022  0  0.969682  0
H  H35  1  0.57901170  0.67979388  0.65135558  1  0.124402  0  0.105401  0.118141  0  1.006527  0
H  H36  1  0.82101741  0.69883249  0.63475356  1  0.038267  0  0.097467  0.106299  0  0.994872  0
H  H37  1  0.68707825  0.75070154  0.68216521  1  -0.059071  0  0.073141  0.046779  0  1.050262  0
H  H38  1  0.19097722  0.35248646  0.27740864  1  0.415045  0  0.29729  0.243119  0  0.969628  0
H  H39  1  0.07903606  0.32019397  0.34864290  1  0.12447  0  0.105388  0.118182  0  1.00643  0
H  H40  1  0.32104303  0.30116030  0.36524927  1  0.038232  0  0.097466  0.106222  0  0.994719  0
H  H41  1  0.18710487  0.24928864  0.31783064  1  -0.059301  0  0.073112  0.046754  0  1.050189  0
H  H42  1  0.54422852  0.89249995  0.18170874  1  0.43408  0  0.311938  0.255613  0  0.952925  0
H  H43  1  0.60976128  0.88075211  0.26204892  1  0.062998  0  0.105707  0.11497  0  0.984242  0
H  H44  1  0.35449956  0.86612272  0.27186603  1  0.009496  0  0.096933  0.10198  0  0.987802  0
H  H45  1  0.51663761  0.80518743  0.24410928  1  0.123004  0  0.101095  0.110338  0  1.033268  0
H  H46  1  0.04425778  0.10750321  0.81828751  1  0.434019  0  0.311994  0.255703  0  0.952744  0
H  H47  1  0.10979865  0.11926393  0.73795125  1  0.062917  0  0.105686  0.114806  0  0.984236  0
H  H48  1  0.85454463  0.13388609  0.72813230  1  0.00982  0  0.096847  0.10171  0  0.988045  0
H  H49  1  0.01665598  0.19482820  0.75589622  1  0.122499  0  0.101014  0.110045  0  1.033265  0
H  H50  1  0.57550101  0.75442299  0.80284968  1  0.41278  0  0.294319  0.234014  0  1.002246  0
H  H51  1  0.65453309  0.82978119  0.86620426  1  0.040893  0  0.100353  0.113701  0  1.012646  0
H  H52  1  0.43119581  0.80650506  0.89354232  1  0.056714  0  0.087361  0.1025  0  1.01853  0
H  H53  1  0.43113878  0.87012975  0.86152029  1  0.059724  0  0.10083  0.120655  0  1.001107  0
H  H54  1  0.07551526  0.24556811  0.19714920  1  0.412905  0  0.294348  0.233988  0  1.002187  0
H  H55  1  0.15454678  0.17021343  0.13379506  1  0.041104  0  0.100344  0.113675  0  1.012557  0
H  H56  1  0.93120412  0.19349301  0.10645293  1  0.056968  0  0.087361  0.102479  0  1.018485  0
H  H57  1  0.93113411  0.12986787  0.13847495  1  0.059834  0  0.100864  0.120671  0  1.001157  0
H  H58  1  0.42468815  0.78200707  0.67374420  1  0.368887  0  0.275595  0.207899  0  1.020459  0
H  H59  1  0.37373944  0.83120055  0.60405750  1  0.04345  0  0.101227  0.109766  0  0.97846  0
H  H60  1  0.23847308  0.87466914  0.65641213  1  -0.028872  0  0.077855  0.069788  0  1.010573  0
H  H61  1  0.11543796  0.82017493  0.60849061  1  0.039408  0  0.098101  0.103174  0  0.984638  0
H  H62  1  0.92472422  0.21798348  0.32624142  1  0.368445  0  0.275482  0.207701  0  1.020447  0
H  H63  1  0.87380359  0.16879801  0.39593734  1  0.043196  0  0.10113  0.109623  0  0.978441  0
H  H64  1  0.73851593  0.12532827  0.34358838  1  -0.029094  0  0.077914  0.06988  0  1.010442  0
H  H65  1  0.61549052  0.17982360  0.39151178  1  0.039031  0  0.098088  0.103215  0  0.984634  0
H  H66  1  0.64667190  0.57673656  0.52909746  1  0.597664  0  0.351057  0.428011  0  0.857874  0
H  H67  1  0.14667576  0.42325788  0.47090300  1  0.597416  0  0.351018  0.427962  0  0.857919  0
H  H68  1  0.54818245  0.91897286  0.99013727  1  0.627384  0  0.356971  0.437552  0  0.841447  0
H  H69  1  0.04818177  0.08102894  0.00988120  1  0.627702  0  0.357018  0.437601  0  0.841218  0
C  C70  1  0.65025493  0.43047113  0.55921435  1  1.587064  0  0.267546  0.638778  0  4.105439  0
C  C71  1  0.15024830  0.56953012  0.44078845  1  1.587166  0  0.267682  0.639099  0  4.104911  0
C  C72  1  0.66044892  0.42516700  0.42138505  1  1.68623  0  0.279962  0.733141  0  4.137427  0
C  C73  1  0.16043822  0.57482860  0.57861466  1  1.686066  0  0.279777  0.73282  0  4.138035  0
C  C74  1  0.95552533  0.69296750  0.73828866  1  0.397305  0  0.011726  0.10435  0  3.838756  0
C  C75  1  0.45554398  0.30703351  0.26171198  1  0.39706  0  0.011618  0.104114  0  3.838757  0
C  C76  1  0.31644405  0.70452921  0.74849516  1  -0.058806  0  -0.157868  -0.288563  0  3.860537  0
C  C77  1  0.81646218  0.29546806  0.25150347  1  -0.057611  0  -0.157897  -0.288678  0  3.860684  0
C  C78  1  0.28355845  0.75183223  0.79836488  1  0.422921  0  0.109823  0.228703  0  3.663382  0
C  C79  1  0.78356648  0.24816699  0.20163414  1  0.423526  0  0.10992  0.228753  0  3.66347  0
C  C80  1  0.04556876  0.87845870  0.87543790  1  0.239615  0  -0.044014  -0.221455  0  3.951475  0
C  C81  1  0.54559719  0.12153778  0.12456061  1  0.239659  0  -0.043963  -0.22148  0  3.951475  0
C  C82  1  0.14778358  0.70594532  0.70960714  1  0.117839  0  0.007698  0.091739  0  3.825207  0
C  C83  1  0.64780056  0.29405238  0.29039181  1  0.117312  0  0.007754  0.091667  0  3.82509  0
C  C84  1  0.91251738  0.75127321  0.77901747  1  -0.072403  0  -0.167067  -0.275809  0  3.850251  0
C  C85  1  0.41253445  0.24872747  0.22098122  1  -0.072672  0  -0.167156  -0.275995  0  3.850276  0
C  C86  1  0.09918737  0.79151855  0.79252614  1  0.139683  0  0.003327  0.122743  0  3.887598  0
C  C87  1  0.59918506  0.20848051  0.20747241  1  0.139419  0  0.003339  0.122881  0  3.887807  0
C  C88  1  0.14250903  0.82078978  0.74493129  1  -0.052973  0  -0.155582  -0.252933  0  3.82726  0
C  C89  1  0.64249983  0.17920804  0.25506612  1  -0.053244  0  -0.155613  -0.253082  0  3.827417  0
C  C90  1  0.13801828  0.77107302  0.69502870  1  0.388947  0  0.010626  0.098273  0  3.798617  0
C  C91  1  0.63803725  0.22892489  0.30496909  1  0.389095  0  0.010617  0.098389  0  3.798446  0
C  C92  1  0.06628852  0.83867643  0.83750970  1  -0.504571  0  -0.016456  -0.0021  0  4.008505  0
C  C93  1  0.56627306  0.16132287  0.16248960  1  -0.504574  0  -0.016507  -0.002211  0  4.008506  0
C  C94  1  0.17256082  0.65931543  0.66380579  1  -0.491055  0  -0.010724  0.006796  0  4.029053  0
C  C95  1  0.67262039  0.34068211  0.33619470  1  -0.491616  0  -0.010672  0.006893  0  4.029437  0
C  C96  1  0.16956115  0.61958090  0.62544455  1  0.228098  0  -0.044019  -0.222088  0  3.955561  0
C  C97  1  0.66957977  0.38041146  0.37455285  1  0.228494  0  -0.044226  -0.222292  0  3.955908  0
C  C98  1  0.24425094  0.89521484  0.12956682  1  -0.082352  0  -0.091754  -0.205708  0  3.935603  0
C  C99  1  0.74428240  0.10478265  0.87042603  1  -0.082514  0  -0.091737  -0.205359  0  3.935328  0
C  C100  1  0.26323015  0.86300323  0.17047527  1  0.494054  0  0.114066  0.215133  0  4.049252  0
C  C101  1  0.76325548  0.13699289  0.82951567  1  0.494681  0  0.113934  0.214637  0  4.049568  0
C  C102  1  0.09452964  0.83012302  0.18284676  1  0.024515  0  -0.018424  -0.092482  0  3.95586  0
C  C103  1  0.59454823  0.16987580  0.81715063  1  0.024289  0  -0.018473  -0.092211  0  3.955765  0
C  C104  1  0.91337608  0.83633136  0.15778336  1  -0.051609  0  -0.089948  -0.104107  0  4.0218  0
C  C105  1  0.41339816  0.16366216  0.84221146  1  -0.051598  0  -0.089986  -0.104416  0  4.0219  0
C  C106  1  0.89567625  0.87068242  0.11983094  1  -0.07795  0  -0.107676  -0.147055  0  4.036797  0
C  C107  1  0.39571162  0.12931229  0.88016504  1  -0.077268  0  -0.107691  -0.14697  0  4.036824  0
C  C108  1  0.06568438  0.89929113  0.10482086  1  0.021901  0  -0.016142  -0.016574  0  4.015444  0
C  C109  1  0.56572056  0.10070383  0.89517306  1  0.021314  0  -0.016128  -0.016766  0  4.015282  0
C  C110  1  0.10093383  0.71159572  0.28128647  1  0.916332  0  0.236854  0.239496  0  3.997602  0
C  C111  1  0.60094103  0.28841501  0.71872211  1  0.916952  0  0.236763  0.239387  0  3.997947  0
C  C112  1  0.09678905  0.78548314  0.21680491  1  0.889987  0  0.234278  0.248265  0  4.005926  0
C  C113  1  0.59680462  0.21451771  0.78319556  1  0.890461  0  0.234357  0.24832  0  4.005786  0
C  C114  1  0.29001028  0.64481015  0.32940769  1  -0.056073  0  -0.08109  -0.109208  0  3.962285  0
C  C115  1  0.79000325  0.35520016  0.67059675  1  -0.05703  0  -0.080995  -0.108863  0  3.962084  0
C  C116  1  0.30295651  0.61120021  0.36833565  1  -0.004708  0  -0.077262  -0.084076  0  3.962702  0
C  C117  1  0.80295089  0.38881025  0.63166957  1  -0.004465  0  -0.077398  -0.084337  0  3.962814  0
C  C118  1  0.13968067  0.60717065  0.39999685  1  -0.068168  0  -0.009816  -0.034359  0  3.960802  0
C  C119  1  0.63966902  0.39283508  0.60000980  1  -0.067922  0  -0.00986  -0.034373  0  3.961098  0
C  C120  1  0.96373877  0.63780252  0.39273097  1  -0.008505  0  -0.07871  -0.085676  0  3.967105  0
C  C121  1  0.46373044  0.36219813  0.60727617  1  -0.008134  0  -0.078514  -0.085561  0  3.96715  0
C  C122  1  0.95138496  0.67247049  0.35457146  1  -0.037374  0  -0.084438  -0.112887  0  3.9721  0
C  C123  1  0.45138248  0.32753072  0.64543607  1  -0.037017  0  -0.084707  -0.11322  0  3.972545  0
C  C124  1  0.11418420  0.67588750  0.32226160  1  0.000306  0  -0.005343  0.01979  0  3.996275  0
C  C125  1  0.61417986  0.32412330  0.67774737  1  0.000237  0  -0.005191  0.019798  0  3.996521  0
C  C126  1  0.54652815  0.07740831  0.07715979  1  1.665107  0  0.275394  0.719544  0  4.157865  0
C  C127  1  0.04647544  0.92259468  0.92283570  1  1.664935  0  0.275166  0.718963  0  4.158386  0
C  C128  1  0.55594727  0.06556722  0.93766030  1  1.551109  0  0.270946  0.651607  0  4.075338  0
C  C129  1  0.05593792  0.93442793  0.06233437  1  1.551016  0  0.271058  0.651626  0  4.075458  0
C  C130  1  0.71754509  0.70122083  0.66702999  1  0.281837  0  -0.145644  -0.207832  0  4.026143  0
C  C131  1  0.21757558  0.29877096  0.33296934  1  0.281992  0  -0.145658  -0.207817  0  4.02573  0
C  C132  1  0.48130202  0.85378513  0.24591152  1  0.285365  0  -0.137183  -0.22461  0  3.99375  0
C  C133  1  0.98133791  0.14622737  0.75408842  1  0.285564  0  -0.13695  -0.223749  0  3.993433  0
C  C134  1  0.49418248  0.82480184  0.86121553  1  0.287976  0  -0.147173  -0.216175  0  3.917639  0
C  C135  1  0.99419030  0.17519475  0.13877973  1  0.287284  0  -0.147181  -0.216184  0  3.917439  0
C  C136  1  0.25227895  0.82900590  0.63106117  1  0.309897  0  -0.146627  -0.213174  0  4.028389  0
C  C137  1  0.75232635  0.17099339  0.36893783  1  0.310708  0  -0.146607  -0.2132  0  4.028028  0
I  I138  1  0.19345300  0.69439059  0.86378664  1  -0.236671  0  -0.119467  -0.293986  0  1.077483  0
I  I139  1  0.69345474  0.30562477  0.13622545  1  -0.236647  0  -0.119453  -0.293959  0  1.077504  0
N  N140  1  0.92999246  0.78061368  0.24433808  1  -0.577301  0  -0.153035  -0.148369  0  3.240421  0
N  N141  1  0.43000259  0.21939060  0.75566486  1  -0.577696  0  -0.153016  -0.148453  0  3.240295  0
N  N142  1  0.93221697  0.74330461  0.27707704  1  -0.515583  0  -0.159567  -0.153831  0  3.223467  0
N  N143  1  0.43222298  0.25670581  0.72293129  1  -0.515692  0  -0.159559  -0.153621  0  3.223586  0
N  N144  1  0.25044308  0.70769809  0.24707494  1  -0.516622  0  -0.157434  -0.15024  0  3.215195  0
N  N145  1  0.75045592  0.29231082  0.75293293  1  -0.516487  0  -0.157264  -0.150167  0  3.214942  0
N  N146  1  0.24890696  0.74508157  0.21406973  1  -0.576452  0  -0.158404  -0.146079  0  3.213751  0
N  N147  1  0.74892390  0.25492145  0.78593388  1  -0.577154  0  -0.158548  -0.14622  0  3.213604  0
N  N148  1  0.79503037  0.66847494  0.70464509  1  -1.149376  0  -0.494102  -0.349892  0  3.517986  0
N  N149  1  0.29505915  0.33152314  0.29535699  1  -1.149504  0  -0.493983  -0.34979  0  3.517893  0
N  N150  1  0.43976028  0.86773400  0.19595462  1  -1.204523  0  -0.431791  -0.268256  0  3.616204  0
N  N151  1  0.93978258  0.13226399  0.80403833  1  -1.204574  0  -0.431737  -0.268215  0  3.616216  0
N  N152  1  0.45815991  0.78263452  0.81282264  1  -1.145027  0  -0.456453  -0.291054  0  3.568997  0
N  N153  1  0.95816086  0.21736187  0.18717338  1  -1.14515  0  -0.456576  -0.291035  0  3.568712  0
N  N154  1  0.28771303  0.77828891  0.65743036  1  -1.071865  0  -0.494142  -0.348342  0  3.460442  0
N  N155  1  0.78776105  0.22170866  0.34256329  1  -1.071557  0  -0.494024  -0.348111  0  3.459925  0
O  O156  1  0.48878427  0.44209729  0.43812329  1  -1.240509  0  -0.226779  -0.5811  0  2.265531  0
O  O157  1  0.98876948  0.55790235  0.56187352  1  -1.240308  0  -0.226739  -0.580982  0  2.265788  0
O  O158  1  0.82096619  0.44682928  0.54662361  1  -1.254903  0  -0.23674  -0.595219  0  2.335103  0
O  O159  1  0.32095835  0.55316821  0.45337809  1  -1.254591  0  -0.236736  -0.59537  0  2.334931  0
O  O160  1  0.82514029  0.44312418  0.44219247  1  -1.247891  0  -0.229831  -0.591399  0  2.291499  0
O  O161  1  0.32513783  0.55687601  0.55780925  1  -1.248222  0  -0.229792  -0.59133  0  2.291479  0
O  O162  1  0.98569957  0.55719919  0.45976439  1  -1.255513  0  -0.23743  -0.598673  0  2.363704  0
O  O163  1  0.48571198  0.44279813  0.54023202  1  -1.255432  0  -0.23735  -0.598535  0  2.363781  0
O  O164  1  0.65281891  0.53738355  0.50586865  1  -1.401854  0  -0.448677  -0.985011  0  2.163167  0
O  O165  1  0.15281760  0.46261501  0.49412609  1  -1.40164  0  -0.448662  -0.984966  0  2.163234  0
O  O166  1  0.72043103  0.05163653  0.95571151  1  -1.259092  0  -0.237622  -0.602048  0  2.364334  0
O  O167  1  0.22042118  0.94836150  0.04428555  1  -1.259216  0  -0.237669  -0.602067  0  2.364388  0
O  O168  1  0.37945861  0.06135841  0.05703456  1  -1.248299  0  -0.228866  -0.583996  0  2.291021  0
O  O169  1  0.87940717  0.93864283  0.94296030  1  -1.248181  0  -0.228888  -0.583846  0  2.291306  0
O  O170  1  0.38506338  0.05249855  0.95284507  1  -1.249344  0  -0.236343  -0.598158  0  2.325692  0
O  O171  1  0.88506164  0.94749956  0.04714786  1  -1.24953  0  -0.236467  -0.59823  0  2.325727  0
O  O172  1  0.21658080  0.94056754  0.94015503  1  -1.233373  0  -0.225318  -0.58054  0  2.282366  0
O  O173  1  0.71664314  0.05944206  0.05984555  1  -1.233513  0  -0.225574  -0.580929  0  2.282219  0
O  O174  1  0.54975587  0.96332304  0.99618109  1  -1.429891  0  -0.447781  -0.994902  0  2.177615  0
O  O175  1  0.04977104  0.03667904  0.00382244  1  -1.430149  0  -0.447833  -0.994893  0  2.177415  0
