# generated using pymatgen
data_ErZnH16C26N2ClO11
_symmetry_space_group_name_H-M   'P 1'
_cell_length_a   9.58438618
_cell_length_b   12.34705493
_cell_length_c   12.62744873
_cell_angle_alpha   73.92629934
_cell_angle_beta   84.27655397
_cell_angle_gamma   71.61157354
_symmetry_Int_Tables_number   1
_chemical_formula_structural   ErZnH16C26N2ClO11
_chemical_formula_sum   'Er2 Zn2 H32 C52 N4 Cl2 O22'
_cell_volume   1362.45740851
_cell_formula_units_Z   2
loop_
 _symmetry_equiv_pos_site_id
 _symmetry_equiv_pos_as_xyz
  1  'x, y, z'
loop_
 _atom_site_type_symbol
 _atom_site_label
 _atom_site_symmetry_multiplicity
 _atom_site_fract_x
 _atom_site_fract_y
 _atom_site_fract_z
 _atom_site_occupancy
 _atom_site_hle17_bader_spin_density
 _atom_site_hle17_ddec_charge
 _atom_site_hle17_ddec_spin_density
 _atom_site_hle17_ddec_sum_bond_order
 _atom_site_hle17_magmom
 _atom_site_hse06_10hf_bader_spin_density
 _atom_site_hse06_10hf_ddec_charge
 _atom_site_hse06_10hf_ddec_spin_density
 _atom_site_hse06_10hf_ddec_sum_bond_order
 _atom_site_hse06_10hf_magmom
 _atom_site_hse06_bader_spin_density
 _atom_site_hse06_ddec_charge
 _atom_site_hse06_ddec_spin_density
 _atom_site_hse06_ddec_sum_bond_order
 _atom_site_hse06_magmom
 _atom_site_pbe_bader_spin_density
 _atom_site_pbe_cm5_charge
 _atom_site_pbe_ddec_charge
 _atom_site_pbe_ddec_spin_density
 _atom_site_pbe_ddec_sum_bond_order
 _atom_site_pbe_magmom
Er  Er0  1  0.79435350  0.47113123  0.03126523  1  0  2.299567  0  1.62942  0  0  2.163132  0  2.094182  0  0  2.28822  0  1.907181  0  0  1.529218  2.127207  0  2.125207  0
Er  Er1  1  0.20563945  0.52888331  0.96874254  1  0  2.299509  0  1.629326  0  0  2.163065  0  2.094079  0  0  2.288144  0  1.907098  0  0  1.529156  2.12713  0  2.125133  0
Zn  Zn2  1  0.66420269  0.65179858  0.31280100  1  0  1.013062  0  1.911101  0  0  0.831969  0  2.403634  0  0  0.879459  0  2.344737  0  0  0.631499  0.799318  0  2.44378  0
Zn  Zn3  1  0.33579611  0.34820004  0.68719797  1  0  1.013139  0  1.911052  0  0  0.832015  0  2.403593  0  0  0.879532  0  2.344677  0  0  0.631502  0.799369  0  2.443732  0
H  H4  1  0.93801613  0.25563621  0.94031257  1  0  0.405695  0  0.910937  0  0  0.363052  0  0.992423  0  0  0.375521  0  0.974977  0  0  0.284914  0.354412  0  1.004606  0
H  H5  1  0.06198676  0.74437124  0.05968922  1  0  0.405722  0  0.910937  0  0  0.363071  0  0.992431  0  0  0.375538  0  0.974987  0  0  0.284952  0.354429  0  1.004619  0
H  H6  1  0.05277308  0.32328865  0.95569670  1  0  0.445606  0  0.853648  0  0  0.417035  0  0.912534  0  0  0.427387  0  0.897623  0  0  0.299806  0.408905  0  0.924411  0
H  H7  1  0.94721730  0.67672147  0.04430851  1  0  0.445543  0  0.853735  0  0  0.416959  0  0.912628  0  0  0.427303  0  0.897729  0  0  0.299744  0.408827  0  0.924509  0
H  H8  1  0.06535270  0.05223488  0.52857473  1  0  0.107477  0  0.957386  0  0  0.116658  0  1.022566  0  0  0.120074  0  1.02022  0  0  0.106654  0.114128  0  1.02449  0
H  H9  1  0.93465284  0.94775400  0.47142319  1  0  0.107565  0  0.957478  0  0  0.116583  0  1.022815  0  0  0.119997  0  1.020466  0  0  0.106597  0.11406  0  1.024732  0
H  H10  1  0.34018025  0.21090718  0.28264548  1  0  0.101465  0  0.977967  0  0  0.110108  0  1.041527  0  0  0.112249  0  1.041723  0  0  0.103534  0.108436  0  1.041613  0
H  H11  1  0.65981748  0.78909144  0.71734882  1  0  0.101494  0  0.977855  0  0  0.110148  0  1.041411  0  0  0.112293  0  1.041603  0  0  0.103571  0.108477  0  1.041498  0
H  H12  1  0.31358757  0.04368452  0.44069391  1  0  0.096302  0  0.928446  0  0  0.110405  0  0.978407  0  0  0.11331  0  0.977148  0  0  0.107406  0.108279  0  0.979545  0
H  H13  1  0.68641696  0.95630701  0.55929625  1  0  0.096356  0  0.92859  0  0  0.110505  0  0.978472  0  0  0.113377  0  0.977253  0  0  0.107425  0.108377  0  0.979612  0
H  H14  1  0.55066335  0.25759338  0.53024502  1  0  0.101078  0  0.942116  0  0  0.10734  0  1.007292  0  0  0.110796  0  1.004316  0  0  0.11518  0.103612  0  1.011414  0
H  H15  1  0.44932455  0.74240350  0.46975052  1  0  0.101104  0  0.942164  0  0  0.107373  0  1.007323  0  0  0.110828  0  1.00435  0  0  0.115213  0.103647  0  1.01144  0
H  H16  1  0.94984743  0.33900327  0.56234942  1  0  0.126975  0  0.946241  0  0  0.134818  0  1.008541  0  0  0.137979  0  1.006573  0  0  0.110899  0.131492  0  1.011758  0
H  H17  1  0.05015024  0.66097857  0.43765182  1  0  0.126786  0  0.946385  0  0  0.134749  0  1.008591  0  0  0.137918  0  1.006615  0  0  0.110853  0.131424  0  1.011807  0
H  H18  1  0.81031092  0.45641062  0.69375062  1  0  0.120087  0  0.932484  0  0  0.132004  0  0.983764  0  0  0.134854  0  0.983142  0  0  0.116983  0.129746  0  0.984542  0
H  H19  1  0.18969345  0.54357297  0.30625200  1  0  0.120157  0  0.932474  0  0  0.132068  0  0.983768  0  0  0.134917  0  0.983146  0  0  0.117016  0.129812  0  0.984547  0
H  H20  1  0.54780872  0.46552841  0.74035839  1  0  0.105734  0  0.920073  0  0  0.113509  0  0.981778  0  0  0.117021  0  0.978323  0  0  0.126386  0.110649  0  0.984541  0
H  H21  1  0.45219907  0.53445164  0.25964810  1  0  0.105957  0  0.919988  0  0  0.113693  0  0.981718  0  0  0.117216  0  0.978246  0  0  0.126462  0.110782  0  0.984541  0
H  H22  1  0.33239170  0.82717812  0.79183787  1  0  0.106727  0  0.93824  0  0  0.115953  0  0.998534  0  0  0.119953  0  0.995518  0  0  0.108314  0.113362  0  1.000196  0
H  H23  1  0.66760070  0.17282935  0.20816711  1  0  0.106633  0  0.938315  0  0  0.115973  0  0.998489  0  0  0.119971  0  0.995474  0  0  0.108334  0.113378  0  1.000161  0
H  H24  1  0.38992769  0.01857357  0.70156740  1  0  0.092509  0  0.972341  0  0  0.100522  0  1.036371  0  0  0.10365  0  1.034735  0  0  0.090713  0.098192  0  1.037348  0
H  H25  1  0.61008569  0.98141971  0.29843664  1  0  0.092437  0  0.972319  0  0  0.100496  0  1.036309  0  0  0.103612  0  1.034687  0  0  0.090708  0.098166  0  1.037285  0
H  H26  1  0.57742522  0.07018410  0.78228206  1  0  0.116274  0  0.950022  0  0  0.12527  0  1.012043  0  0  0.128841  0  1.010142  0  0  0.106388  0.122717  0  1.013435  0
H  H27  1  0.42258498  0.92980919  0.21771272  1  0  0.116266  0  0.949898  0  0  0.125273  0  1.011932  0  0  0.12884  0  1.010036  0  0  0.106377  0.12271  0  1.013356  0
H  H28  1  0.76231844  0.12557097  0.00401191  1  0  0.096695  0  0.967854  0  0  0.102224  0  1.038129  0  0  0.104299  0  1.037359  0  0  0.11704  0.100741  0  1.038438  0
H  H29  1  0.23770444  0.87442493  0.99598750  1  0  0.096759  0  0.96782  0  0  0.102291  0  1.038081  0  0  0.104375  0  1.0373  0  0  0.117061  0.100797  0  1.038422  0
H  H30  1  0.90515324  0.87859007  0.80276412  1  0  0.114188  0  0.956231  0  0  0.123391  0  1.019513  0  0  0.125185  0  1.019903  0  0  0.110676  0.122083  0  1.01929  0
H  H31  1  0.09483969  0.12141297  0.19722381  1  0  0.114297  0  0.956285  0  0  0.123489  0  1.019524  0  0  0.125285  0  1.019913  0  0  0.110707  0.122181  0  1.019308  0
H  H32  1  0.08818505  0.98523768  0.71283388  1  0  0.097619  0  0.949244  0  0  0.11203  0  1.001195  0  0  0.114192  0  1.001476  0  0  0.10796  0.110485  0  1.000755  0
H  H33  1  0.91181684  0.01476092  0.28714901  1  0  0.097568  0  0.949335  0  0  0.112056  0  1.001183  0  0  0.114216  0  1.00147  0  0  0.107991  0.110511  0  1.000742  0
H  H34  1  0.09605462  0.16035977  0.77211833  1  0  0.083357  0  0.951741  0  0  0.088172  0  1.022602  0  0  0.091259  0  1.019727  0  0  0.106938  0.086008  0  1.024513  0
H  H35  1  0.90395601  0.83963792  0.22786888  1  0  0.083354  0  0.951685  0  0  0.088159  0  1.022582  0  0  0.091237  0  1.019701  0  0  0.106946  0.085996  0  1.024496  0
C  C36  1  0.45280753  0.66373074  0.97772596  1  0  0.73571  0  3.840102  0  0  0.688467  0  4.129474  0  0  0.725058  0  4.120788  0  0  0.241271  0.663333  0  4.13816  0
C  C37  1  0.54717249  0.33628471  0.02227940  1  0  0.73584  0  3.839924  0  0  0.688531  0  4.129441  0  0  0.725124  0  4.120751  0  0  0.241278  0.663393  0  4.138127  0
C  C38  1  0.08027960  0.12246285  0.45846384  1  0  -0.144911  0  3.72958  0  0  -0.175722  0  3.995245  0  0  -0.177167  0  4.012431  0  0  -0.090982  -0.17455  0  3.98338  0
C  C39  1  0.91971912  0.87753312  0.54153269  1  0  -0.144998  0  3.729861  0  0  -0.17567  0  3.995522  0  0  -0.177113  0  4.012724  0  0  -0.090977  -0.174501  0  3.983649  0
C  C40  1  0.97107770  0.31150356  0.32803641  1  0  -0.14069  0  3.688559  0  0  -0.135116  0  3.927858  0  0  -0.139398  0  3.94462  0  0  -0.003891  -0.132233  0  3.916434  0
C  C41  1  0.02892877  0.68849416  0.67196062  1  0  -0.140633  0  3.688077  0  0  -0.135192  0  3.927496  0  0  -0.13946  0  3.944249  0  0  -0.003943  -0.132321  0  3.916098  0
C  C42  1  0.11048269  0.30638717  0.27870722  1  0  -0.061558  0  3.726267  0  0  -0.045842  0  3.959975  0  0  -0.051584  0  3.978992  0  0  -0.008356  -0.041764  0  3.946315  0
C  C43  1  0.88951508  0.69361145  0.72129499  1  0  -0.061497  0  3.726026  0  0  -0.045762  0  3.959739  0  0  -0.051512  0  3.978756  0  0  -0.008361  -0.04168  0  3.946079  0
C  C44  1  0.23342090  0.21140649  0.32127279  1  0  -0.064186  0  3.720593  0  0  -0.094021  0  3.975379  0  0  -0.093683  0  3.995051  0  0  -0.079738  -0.093832  0  3.961486  0
C  C45  1  0.76657829  0.78859389  0.67872408  1  0  -0.064234  0  3.720592  0  0  -0.094097  0  3.975408  0  0  -0.093747  0  3.995061  0  0  -0.079779  -0.093913  0  3.961515  0
C  C46  1  0.21803756  0.11863334  0.40929520  1  0  -0.035377  0  3.762263  0  0  -0.050559  0  4.021946  0  0  -0.051861  0  4.041106  0  0  -0.085824  -0.049739  0  4.008791  0
C  C47  1  0.78195945  0.88136440  0.59070019  1  0  -0.03546  0  3.762651  0  0  -0.050657  0  4.022276  0  0  -0.051939  0  4.041434  0  0  -0.085818  -0.049837  0  4.009131  0
C  C48  1  0.95912587  0.21940352  0.41862130  1  0  0.23537  0  3.775241  0  0  0.221496  0  4.041171  0  0  0.229155  0  4.057852  0  0  0.082382  0.216328  0  4.029293  0
C  C49  1  0.04088134  0.78059508  0.58137860  1  0  0.235465  0  3.775011  0  0  0.221591  0  4.040957  0  0  0.229231  0  4.057646  0  0  0.082454  0.216424  0  4.029078  0
C  C50  1  0.83792518  0.41651622  0.29025718  1  0  0.729861  0  3.874032  0  0  0.669816  0  4.18204  0  0  0.706644  0  4.172415  0  0  0.231589  0.644436  0  4.190699  0
C  C51  1  0.16209531  0.58349471  0.70974862  1  0  0.729741  0  3.874432  0  0  0.669843  0  4.182201  0  0  0.706676  0  4.172576  0  0  0.231657  0.644454  0  4.190864  0
C  C52  1  0.12927771  0.39609713  0.17617338  1  0  0.682574  0  3.888156  0  0  0.635652  0  4.179753  0  0  0.670534  0  4.177297  0  0  0.215168  0.611427  0  4.186911  0
C  C53  1  0.87071543  0.60391122  0.82383447  1  0  0.682254  0  3.888332  0  0  0.635388  0  4.179828  0  0  0.670274  0  4.177385  0  0  0.215113  0.611165  0  4.186978  0
C  C54  1  0.61231529  0.30009130  0.56507865  1  0  0.010075  0  3.686065  0  0  -0.029053  0  3.935039  0  0  -0.025333  0  3.952764  0  0  0.03544  -0.031033  0  3.924305  0
C  C55  1  0.38768187  0.69989761  0.43492230  1  0  0.009965  0  3.685961  0  0  -0.029076  0  3.935004  0  0  -0.025371  0  3.952727  0  0  0.035465  -0.031054  0  3.924267  0
C  C56  1  0.75990141  0.28906249  0.53718008  1  0  0.23395  0  3.792525  0  0  0.228865  0  4.053429  0  0  0.234237  0  4.071463  0  0  0.090984  0.224262  0  4.04184  0
C  C57  1  0.24009035  0.71093526  0.46281413  1  0  0.23431  0  3.791955  0  0  0.229029  0  4.053205  0  0  0.234408  0  4.071228  0  0  0.090985  0.224426  0  4.041616  0
C  C58  1  0.83467782  0.34555424  0.58287503  1  0  -0.116248  0  3.691284  0  0  -0.144515  0  3.943507  0  0  -0.143997  0  3.961138  0  0  -0.072465  -0.144203  0  3.932592  0
C  C59  1  0.16532276  0.65443113  0.41712899  1  0  -0.116093  0  3.691092  0  0  -0.144443  0  3.943432  0  0  -0.143931  0  3.96106  0  0  -0.07247  -0.144127  0  3.932521  0
C  C60  1  0.75722276  0.41071060  0.65586747  1  0  -0.070923  0  3.710204  0  0  -0.082042  0  3.962345  0  0  -0.086608  0  3.98184  0  0  -0.069202  -0.079064  0  3.948992  0
C  C61  1  0.24277833  0.58926770  0.34413764  1  0  -0.070974  0  3.71009  0  0  -0.082086  0  3.962247  0  0  -0.086659  0  3.981756  0  0  -0.06908  -0.079107  0  3.948886  0
C  C62  1  0.61062837  0.41735838  0.68186942  1  0  0.112234  0  3.664037  0  0  0.07359  0  3.920479  0  0  0.08058  0  3.936839  0  0  0.044872  0.068895  0  3.909697  0
C  C63  1  0.38936845  0.58263141  0.31812973  1  0  0.111984  0  3.663853  0  0  0.073399  0  3.920307  0  0  0.080391  0  3.936623  0  0  0.044706  0.068747  0  3.909544  0
C  C64  1  0.62542204  0.91149525  0.91548693  1  0  0.255142  0  3.757107  0  0  0.237459  0  4.025099  0  0  0.247202  0  4.040203  0  0  0.087953  0.230385  0  4.014966  0
C  C65  1  0.37457154  0.08850339  0.08451957  1  0  0.255185  0  3.756988  0  0  0.237513  0  4.024918  0  0  0.24727  0  4.040032  0  0  0.087997  0.230416  0  4.014779  0
C  C66  1  0.59272288  0.80650930  0.96731149  1  0  -0.157337  0  3.706364  0  0  -0.153514  0  3.952364  0  0  -0.159148  0  3.969807  0  0  -0.012617  -0.149597  0  3.941333  0
C  C67  1  0.40727021  0.19349640  0.03270183  1  0  -0.157319  0  3.70632  0  0  -0.1533  0  3.952143  0  0  -0.158999  0  3.96968  0  0  -0.012613  -0.149387  0  3.941114  0
C  C68  1  0.48715382  0.77658519  0.92138063  1  0  -0.069223  0  3.74478  0  0  -0.056633  0  3.981702  0  0  -0.060994  0  3.999819  0  0  -0.008923  -0.054178  0  3.969561  0
C  C69  1  0.51285105  0.22341695  0.07862483  1  0  -0.069487  0  3.744849  0  0  -0.057008  0  3.981897  0  0  -0.061357  0  4.000034  0  0  -0.009017  -0.054551  0  3.96976  0
C  C70  1  0.41445023  0.85240386  0.82530212  1  0  -0.08501  0  3.734458  0  0  -0.112474  0  3.992658  0  0  -0.112421  0  4.009143  0  0  -0.087102  -0.112193  0  3.980612  0
C  C71  1  0.58554665  0.14760007  0.17470822  1  0  -0.084824  0  3.734442  0  0  -0.112355  0  3.9927  0  0  -0.112299  0  4.009179  0  0  -0.087118  -0.112082  0  3.980661  0
C  C72  1  0.44777875  0.95720209  0.77499612  1  0  -0.050773  0  3.769271  0  0  -0.0644  0  4.026505  0  0  -0.065244  0  4.045727  0  0  -0.090176  -0.063276  0  4.012608  0
C  C73  1  0.55222651  0.04280182  0.22500566  1  0  -0.050694  0  3.769318  0  0  -0.064364  0  4.026605  0  0  -0.065191  0  4.045833  0  0  -0.090086  -0.063233  0  4.012702  0
C  C74  1  0.55387742  0.98702571  0.81948280  1  0  -0.154556  0  3.730113  0  0  -0.182582  0  3.99454  0  0  -0.185099  0  4.012063  0  0  -0.092861  -0.180726  0  3.98237  0
C  C75  1  0.44612679  0.01297819  0.18051985  1  0  -0.154519  0  3.73011  0  0  -0.182609  0  3.994605  0  0  -0.185116  0  4.012113  0  0  -0.092911  -0.18076  0  3.982434  0
C  C76  1  0.66539314  0.72958115  0.07376459  1  0  0.740512  0  3.852016  0  0  0.678858  0  4.15671  0  0  0.716163  0  4.145645  0  0  0.236634  0.65238  0  4.167481  0
C  C77  1  0.33458603  0.27042813  0.92624568  1  0  0.740477  0  3.852103  0  0  0.678756  0  4.156839  0  0  0.716098  0  4.145756  0  0  0.236549  0.652285  0  4.167589  0
C  C78  1  0.83148403  0.09390177  0.93832279  1  0  0.026899  0  3.677705  0  0  -0.016176  0  3.937995  0  0  -0.011413  0  3.953714  0  0  0.040905  -0.018322  0  3.926486  0
C  C79  1  0.16853460  0.90609150  0.06167925  1  0  0.026696  0  3.677499  0  0  -0.016492  0  3.937858  0  0  -0.011722  0  3.953564  0  0  0.040761  -0.018636  0  3.926348  0
C  C80  1  0.81908801  0.99677683  0.90836243  1  0  0.218984  0  3.79384  0  0  0.213695  0  4.057021  0  0  0.218903  0  4.073547  0  0  0.089342  0.209529  0  4.045975  0
C  C81  1  0.18091261  0.00322532  0.09163148  1  0  0.219066  0  3.794096  0  0  0.213872  0  4.057128  0  0  0.219064  0  4.073668  0  0  0.089402  0.209676  0  4.046088  0
C  C82  1  0.91104783  0.95582597  0.82570957  1  0  -0.114582  0  3.708908  0  0  -0.14073  0  3.958011  0  0  -0.1404  0  3.97704  0  0  -0.072813  -0.141079  0  3.945257  0
C  C83  1  0.08894438  0.04417619  0.17427865  1  0  -0.115052  0  3.709201  0  0  -0.141167  0  3.958259  0  0  -0.14084  0  3.977302  0  0  -0.072972  -0.14152  0  3.945513  0
C  C84  1  0.01204929  0.01532903  0.77609796  1  0  -0.103861  0  3.759409  0  0  -0.115286  0  4.013418  0  0  -0.121728  0  4.037175  0  0  -0.083455  -0.110835  0  3.996794  0
C  C85  1  0.98794624  0.98466693  0.22388694  1  0  -0.103412  0  3.759054  0  0  -0.114885  0  4.013031  0  0  -0.121328  0  4.036795  0  0  -0.083289  -0.110435  0  3.996415  0
C  C86  1  0.01791668  0.11228740  0.80979956  1  0  0.103365  0  3.718985  0  0  0.068343  0  3.979103  0  0  0.073359  0  3.99791  0  0  0.039352  0.065464  0  3.965877  0
C  C87  1  0.98209727  0.88770410  0.19018353  1  0  0.103214  0  3.718958  0  0  0.068127  0  3.97917  0  0  0.073161  0  3.997963  0  0  0.039258  0.065245  0  3.96595  0
N  N88  1  0.54029891  0.36250949  0.63638866  1  0  -0.315268  0  3.365082  0  0  -0.228098  0  3.643523  0  0  -0.246843  0  3.660269  0  0  -0.330886  -0.215401  0  3.631747  0
N  N89  1  0.45970007  0.63748294  0.36360881  1  0  -0.315289  0  3.364764  0  0  -0.228182  0  3.643254  0  0  -0.246903  0  3.659986  0  0  -0.330944  -0.21548  0  3.631463  0
N  N90  1  0.92897256  0.15030434  0.88974341  1  0  -0.281271  0  3.209386  0  0  -0.213783  0  3.452707  0  0  -0.227125  0  3.469224  0  0  -0.301555  -0.204657  0  3.440717  0
N  N91  1  0.07105179  0.84968184  0.11024824  1  0  -0.281053  0  3.209219  0  0  -0.213475  0  3.452464  0  0  -0.226811  0  3.468974  0  0  -0.301452  -0.204351  0  3.44048  0
Cl  Cl92  1  0.73518519  0.75308187  0.40565381  1  0  -0.595532  0  0.901117  0  0  -0.53133  0  1.165458  0  0  -0.549471  0  1.140505  0  0  -0.316762  -0.517371  0  1.183632  0
Cl  Cl93  1  0.26480908  0.24691764  0.59434368  1  0  -0.595598  0  0.901111  0  0  -0.531363  0  1.165428  0  0  -0.549518  0  1.14048  0  0  -0.316783  -0.517409  0  1.183601  0
O  O94  1  0.81948895  0.49788342  0.33845807  1  0  -0.606504  0  2.067932  0  0  -0.532862  0  2.340574  0  0  -0.561796  0  2.323763  0  0  -0.299934  -0.512184  0  2.351293  0
O  O95  1  0.18053057  0.50213280  0.66152737  1  0  -0.606653  0  2.067741  0  0  -0.533022  0  2.340299  0  0  -0.561967  0  2.32349  0  0  -0.300073  -0.512331  0  2.351008  0
O  O96  1  0.75571813  0.41685683  0.21783448  1  0  -0.723164  0  2.007328  0  0  -0.67703  0  2.263565  0  0  -0.712817  0  2.245696  0  0  -0.392673  -0.659771  0  2.273444  0
O  O97  1  0.24429354  0.58316648  0.78215835  1  0  -0.72291  0  2.007586  0  0  -0.676825  0  2.263713  0  0  -0.712606  0  2.245849  0  0  -0.392542  -0.659569  0  2.273603  0
O  O98  1  0.02465814  0.44449729  0.10620271  1  0  -0.802556  0  2.167694  0  0  -0.74262  0  2.424948  0  0  -0.785793  0  2.415258  0  0  -0.406747  -0.72334  0  2.430896  0
O  O99  1  0.97532794  0.55552169  0.89381071  1  0  -0.802578  0  2.167881  0  0  -0.742644  0  2.425088  0  0  -0.785829  0  2.415411  0  0  -0.406805  -0.723361  0  2.431032  0
O  O100  1  0.25012186  0.42032227  0.15523651  1  0  -0.681289  0  1.951346  0  0  -0.638808  0  2.188234  0  0  -0.671845  0  2.176612  0  0  -0.367641  -0.622142  0  2.194635  0
O  O101  1  0.74987116  0.57968079  0.84477675  1  0  -0.681088  0  1.951311  0  0  -0.638611  0  2.18813  0  0  -0.671658  0  2.176522  0  0  -0.367584  -0.621953  0  2.194531  0
O  O102  1  0.82044727  0.21984502  0.46562092  1  0  -0.295056  0  2.331962  0  0  -0.228164  0  2.551288  0  0  -0.245121  0  2.553716  0  0  -0.15663  -0.215828  0  2.549475  0
O  O103  1  0.17955019  0.78017125  0.53436305  1  0  -0.295304  0  2.331731  0  0  -0.228329  0  2.55111  0  0  -0.245276  0  2.553525  0  0  -0.156678  -0.21599  0  2.549288  0
O  O104  1  0.60104824  0.75162167  0.16120073  1  0  -0.59039  0  2.065877  0  0  -0.519387  0  2.338461  0  0  -0.547967  0  2.323219  0  0  -0.291543  -0.499378  0  2.348457  0
O  O105  1  0.39892257  0.24837614  0.83880460  1  0  -0.590448  0  2.065633  0  0  -0.519522  0  2.33837  0  0  -0.548084  0  2.323042  0  0  -0.291581  -0.499515  0  2.348357  0
O  O106  1  0.78685211  0.64869299  0.07102401  1  0  -0.759267  0  2.12325  0  0  -0.698654  0  2.373  0  0  -0.733917  0  2.357852  0  0  -0.380943  -0.679936  0  2.382559  0
O  O107  1  0.21313579  0.35131538  0.92898662  1  0  -0.759112  0  2.123359  0  0  -0.698467  0  2.37314  0  0  -0.733739  0  2.357979  0  0  -0.380812  -0.679782  0  2.382748  0
O  O108  1  0.54980603  0.58082521  0.03869041  1  0  -0.737573  0  2.07844  0  0  -0.688887  0  2.33384  0  0  -0.725557  0  2.321068  0  0  -0.381188  -0.669362  0  2.340378  0
O  O109  1  0.45018851  0.41918226  0.96132311  1  0  -0.737458  0  2.078942  0  0  -0.688761  0  2.334406  0  0  -0.725428  0  2.321627  0  0  -0.381059  -0.669239  0  2.340956  0
O  O110  1  0.72328768  0.93951651  0.96949830  1  0  -0.282486  0  2.348056  0  0  -0.213584  0  2.572309  0  0  -0.231391  0  2.576859  0  0  -0.148443  -0.201157  0  2.568936  0
O  O111  1  0.27671730  0.06047680  0.03050560  1  0  -0.2825  0  2.348118  0  0  -0.21367  0  2.572397  0  0  -0.231475  0  2.576948  0  0  -0.148438  -0.201176  0  2.568979  0
O  O112  1  0.95205173  0.31768583  0.97468616  1  0  -0.954109  0  1.913553  0  0  -0.902704  0  2.12886  0  0  -0.934415  0  2.089175  0  0  -0.676869  -0.887873  0  2.15346  0
O  O113  1  0.04794266  0.68231634  0.02532406  1  0  -0.954158  0  1.913606  0  0  -0.902687  0  2.128896  0  0  -0.934427  0  2.089264  0  0  -0.676872  -0.887861  0  2.153515  0
O  O114  1  0.32530914  0.66004488  0.96315117  1  0  -0.721331  0  2.038638  0  0  -0.669187  0  2.295154  0  0  -0.705878  0  2.278361  0  0  -0.406109  -0.651077  0  2.3046  0
O  O115  1  0.67468663  0.33997053  0.03685535  1  0  -0.721559  0  2.038182  0  0  -0.669363  0  2.294748  0  0  -0.706064  0  2.277947  0  0  -0.406257  -0.651252  0  2.304186  0
