# generated using pymatgen
data_CdH10C12(NO)4
_symmetry_space_group_name_H-M   'P 1'
_cell_length_a   9.21199645
_cell_length_b   9.21200485
_cell_length_c   14.96313406
_cell_angle_alpha   93.69406162
_cell_angle_beta   93.69418125
_cell_angle_gamma   95.25343367
_symmetry_Int_Tables_number   1
_chemical_formula_structural   CdH10C12(NO)4
_chemical_formula_sum   'Cd4 H40 C48 N16 O16'
_cell_volume   1258.66073120
_cell_formula_units_Z   4
loop_
 _symmetry_equiv_pos_site_id
 _symmetry_equiv_pos_as_xyz
  1  'x, y, z'
loop_
 _atom_site_type_symbol
 _atom_site_label
 _atom_site_symmetry_multiplicity
 _atom_site_fract_x
 _atom_site_fract_y
 _atom_site_fract_z
 _atom_site_occupancy
 _atom_site_hle17_bader_spin_density
 _atom_site_hle17_ddec_charge
 _atom_site_hle17_ddec_spin_density
 _atom_site_hle17_ddec_sum_bond_order
 _atom_site_hle17_magmom
 _atom_site_hse06_10hf_bader_spin_density
 _atom_site_hse06_10hf_ddec_charge
 _atom_site_hse06_10hf_ddec_spin_density
 _atom_site_hse06_10hf_ddec_sum_bond_order
 _atom_site_hse06_10hf_magmom
 _atom_site_hse06_bader_spin_density
 _atom_site_hse06_ddec_charge
 _atom_site_hse06_ddec_spin_density
 _atom_site_hse06_ddec_sum_bond_order
 _atom_site_hse06_magmom
 _atom_site_pbe_bader_spin_density
 _atom_site_pbe_cm5_charge
 _atom_site_pbe_ddec_charge
 _atom_site_pbe_ddec_spin_density
 _atom_site_pbe_ddec_sum_bond_order
 _atom_site_pbe_magmom
Cd  Cd0  1  0.45337727  0.57874520  0.61378170  1  0  1.18784  0  1.620801  0  0  1.003315  0  2.060082  0  0  1.06071  0  2.007055  0  0  0.779402  0.962798  0  2.09543  0
Cd  Cd1  1  0.42125579  0.54662181  0.88621882  1  0  1.187839  0  1.620828  0  0  1.003315  0  2.060116  0  0  1.06071  0  2.007088  0  0  0.779409  0.962829  0  2.095414  0
Cd  Cd2  1  0.54662185  0.42125548  0.38621865  1  0  1.187832  0  1.62081  0  0  1.003312  0  2.060086  0  0  1.060706  0  2.007063  0  0  0.779401  0.962813  0  2.095432  0
Cd  Cd3  1  0.57874442  0.45337887  0.11378157  1  0  1.18784  0  1.620796  0  0  1.003318  0  2.06007  0  0  1.060712  0  2.007045  0  0  0.77941  0.96282  0  2.095422  0
H  H4  1  0.13402900  0.53132663  0.70205829  1  0  0.121153  0  0.968101  0  0  0.129248  0  1.030466  0  0  0.131779  0  1.029027  0  0  0.120486  0.126881  0  1.031917  0
H  H5  1  0.46867150  0.86596982  0.79794195  1  0  0.121157  0  0.968092  0  0  0.129234  0  1.030475  0  0  0.131765  0  1.029036  0  0  0.120483  0.126867  0  1.031931  0
H  H6  1  0.86596892  0.46867296  0.29794198  1  0  0.121199  0  0.968035  0  0  0.129254  0  1.030448  0  0  0.131786  0  1.029008  0  0  0.120488  0.126874  0  1.031936  0
H  H7  1  0.53132653  0.13403086  0.20205836  1  0  0.121203  0  0.968026  0  0  0.129255  0  1.030442  0  0  0.131786  0  1.029003  0  0  0.120485  0.126875  0  1.031924  0
H  H8  1  0.29443030  0.89640535  0.57074506  1  0  0.100216  0  0.926381  0  0  0.112062  0  0.985218  0  0  0.11441  0  0.982391  0  0  0.140723  0.110352  0  0.987011  0
H  H9  1  0.10359415  0.70557016  0.92925583  1  0  0.1002  0  0.926385  0  0  0.112049  0  0.98522  0  0  0.114397  0  0.98239  0  0  0.140709  0.110332  0  0.987054  0
H  H10  1  0.70556883  0.10359534  0.42925596  1  0  0.100199  0  0.926377  0  0  0.11205  0  0.98521  0  0  0.114397  0  0.982382  0  0  0.140695  0.110339  0  0.987038  0
H  H11  1  0.89640497  0.29443052  0.07074452  1  0  0.100202  0  0.926388  0  0  0.112058  0  0.985215  0  0  0.114404  0  0.982389  0  0  0.140712  0.110332  0  0.987059  0
H  H12  1  0.80945131  0.80026753  0.68385322  1  0  0.106543  0  0.946479  0  0  0.117787  0  1.006054  0  0  0.120135  0  1.003926  0  0  0.110784  0.115764  0  1.008307  0
H  H13  1  0.19972994  0.19054830  0.81614661  1  0  0.106558  0  0.946441  0  0  0.117801  0  1.006025  0  0  0.120151  0  1.003895  0  0  0.11079  0.115767  0  1.008308  0
H  H14  1  0.19054857  0.19972986  0.31614637  1  0  0.106579  0  0.946428  0  0  0.117827  0  1.006009  0  0  0.120175  0  1.00388  0  0  0.110809  0.115797  0  1.008271  0
H  H15  1  0.80027124  0.80945127  0.18385310  1  0  0.106572  0  0.94643  0  0  0.117819  0  1.006012  0  0  0.120163  0  1.003892  0  0  0.110801  0.115789  0  1.008273  0
H  H16  1  0.90638786  0.53821223  0.78217501  1  0  0.11472  0  0.940975  0  0  0.128649  0  0.994284  0  0  0.132451  0  0.993448  0  0  0.105269  0.125752  0  0.995885  0
H  H17  1  0.46178849  0.09361142  0.71782448  1  0  0.114727  0  0.940994  0  0  0.12865  0  0.994292  0  0  0.132451  0  0.993457  0  0  0.105268  0.125741  0  0.995904  0
H  H18  1  0.09361016  0.46178844  0.21782396  1  0  0.114688  0  0.940996  0  0  0.128604  0  0.994308  0  0  0.132404  0  0.993474  0  0  0.105252  0.125694  0  0.995941  0
H  H19  1  0.53821171  0.90638925  0.28217524  1  0  0.114695  0  0.940988  0  0  0.128615  0  0.9943  0  0  0.132416  0  0.993464  0  0  0.105253  0.125715  0  0.995902  0
H  H20  1  0.72386387  0.99939259  0.64702318  1  0  0.091168  0  0.949837  0  0  0.101204  0  1.012061  0  0  0.103988  0  1.00851  0  0  0.130298  0.098577  0  1.015734  0
H  H21  1  0.00060720  0.27613688  0.85297727  1  0  0.091159  0  0.949809  0  0  0.101196  0  1.012025  0  0  0.103976  0  1.008479  0  0  0.130292  0.098558  0  1.015738  0
H  H22  1  0.27613742  0.00060807  0.35297658  1  0  0.09116  0  0.949847  0  0  0.101194  0  1.012069  0  0  0.103977  0  1.008517  0  0  0.130278  0.098565  0  1.015753  0
H  H23  1  0.99939193  0.72386381  0.14702375  1  0  0.091155  0  0.949819  0  0  0.10119  0  1.012038  0  0  0.103976  0  1.008483  0  0  0.130278  0.09856  0  1.015738  0
H  H24  1  0.83388722  0.43637963  0.59015744  1  0  0.122127  0  0.968928  0  0  0.129801  0  1.034135  0  0  0.132424  0  1.033582  0  0  0.120203  0.126974  0  1.036  0
H  H25  1  0.56362107  0.16611205  0.90984274  1  0  0.122133  0  0.968957  0  0  0.129801  0  1.034164  0  0  0.132422  0  1.033614  0  0  0.120197  0.126971  0  1.036034  0
H  H26  1  0.16611397  0.56361996  0.40984294  1  0  0.122131  0  0.968899  0  0  0.129808  0  1.034103  0  0  0.132432  0  1.03355  0  0  0.120203  0.126977  0  1.035972  0
H  H27  1  0.43638011  0.83388752  0.09015697  1  0  0.122122  0  0.968911  0  0  0.12977  0  1.034139  0  0  0.13239  0  1.033592  0  0  0.120194  0.126933  0  1.036021  0
H  H28  1  0.11509378  0.41223592  0.54456968  1  0  0.091879  0  0.956338  0  0  0.103159  0  1.020988  0  0  0.105375  0  1.019388  0  0  0.103627  0.101582  0  1.02172  0
H  H29  1  0.58776435  0.88490434  0.95543000  1  0  0.09183  0  0.956427  0  0  0.103125  0  1.02105  0  0  0.105343  0  1.019449  0  0  0.103613  0.101548  0  1.021795  0
H  H30  1  0.88490632  0.58776367  0.45543066  1  0  0.091821  0  0.956397  0  0  0.103139  0  1.021009  0  0  0.105356  0  1.019408  0  0  0.103609  0.101557  0  1.021756  0
H  H31  1  0.41223673  0.11509415  0.04457033  1  0  0.091822  0  0.956395  0  0  0.10312  0  1.021023  0  0  0.105336  0  1.019423  0  0  0.103606  0.10154  0  1.021772  0
H  H32  1  0.20644278  0.09928809  0.53429508  1  0  0.108188  0  0.973594  0  0  0.116794  0  1.039301  0  0  0.120236  0  1.038818  0  0  0.098079  0.11437  0  1.039978  0
H  H33  1  0.90071329  0.79355816  0.96570499  1  0  0.108177  0  0.973632  0  0  0.116781  0  1.039342  0  0  0.120223  0  1.038858  0  0  0.098077  0.114356  0  1.040033  0
H  H34  1  0.79355950  0.90071149  0.46570534  1  0  0.108196  0  0.973624  0  0  0.116788  0  1.03935  0  0  0.12023  0  1.038869  0  0  0.098088  0.114374  0  1.040023  0
H  H35  1  0.09928778  0.20644032  0.03429535  1  0  0.108223  0  0.973532  0  0  0.116783  0  1.039308  0  0  0.120226  0  1.038827  0  0  0.098089  0.114373  0  1.039974  0
H  H36  1  0.03412900  0.94806334  0.61772061  1  0  0.289843  0  0.947579  0  0  0.257994  0  1.027507  0  0  0.267998  0  1.020013  0  0  0.295101  0.250938  0  1.032921  0
H  H37  1  0.05193507  0.96587096  0.88227935  1  0  0.289828  0  0.947582  0  0  0.257981  0  1.027509  0  0  0.267984  0  1.020014  0  0  0.295107  0.250939  0  1.032897  0
H  H38  1  0.96587001  0.05193625  0.38227969  1  0  0.289852  0  0.947575  0  0  0.257994  0  1.02751  0  0  0.267998  0  1.020017  0  0  0.295119  0.250967  0  1.032853  0
H  H39  1  0.94806405  0.03412972  0.11772099  1  0  0.289863  0  0.947537  0  0  0.258015  0  1.027459  0  0  0.26802  0  1.019965  0  0  0.295114  0.250984  0  1.032812  0
H  H40  1  0.63592534  0.25831461  0.63858424  1  0  0.314474  0  0.931128  0  0  0.292493  0  0.99287  0  0  0.302194  0  0.985183  0  0  0.30682  0.286489  0  0.996441  0
H  H41  1  0.74168419  0.36407495  0.86141589  1  0  0.314495  0  0.931105  0  0  0.292559  0  0.992784  0  0  0.302259  0  0.985091  0  0  0.306836  0.286554  0  0.996365  0
H  H42  1  0.36407584  0.74168496  0.36141548  1  0  0.314485  0  0.931103  0  0  0.292544  0  0.992787  0  0  0.302247  0  0.985095  0  0  0.306829  0.286539  0  0.996361  0
H  H43  1  0.25831591  0.63592463  0.13858445  1  0  0.31448  0  0.931128  0  0  0.292539  0  0.992812  0  0  0.302239  0  0.985121  0  0  0.306828  0.286538  0  0.99638  0
C  C44  1  0.02853933  0.73450305  0.67242634  1  0  0.14029  0  3.787449  0  0  0.137212  0  4.038233  0  0  0.136283  0  4.06225  0  0  0.078451  0.137595  0  4.021385  0
C  C45  1  0.26549653  0.97145908  0.82757307  1  0  0.140315  0  3.78745  0  0  0.137238  0  4.038234  0  0  0.136309  0  4.062251  0  0  0.078462  0.13765  0  4.021327  0
C  C46  1  0.97145750  0.26549654  0.32757389  1  0  0.14039  0  3.787448  0  0  0.137282  0  4.038268  0  0  0.136352  0  4.06229  0  0  0.078482  0.137712  0  4.021287  0
C  C47  1  0.73450378  0.02854269  0.17242669  1  0  0.140314  0  3.787521  0  0  0.13721  0  4.038345  0  0  0.13628  0  4.062366  0  0  0.078437  0.137639  0  4.021369  0
C  C48  1  0.13441336  0.63647883  0.67356924  1  0  -0.021873  0  3.681832  0  0  -0.064077  0  3.947208  0  0  -0.060341  0  3.9674  0  0  0.0102  -0.065048  0  3.932461  0
C  C49  1  0.36351980  0.86558393  0.82643023  1  0  -0.021857  0  3.681803  0  0  -0.064041  0  3.947175  0  0  -0.060304  0  3.967365  0  0  0.010225  -0.065027  0  3.932468  0
C  C50  1  0.86558357  0.36352185  0.32643037  1  0  -0.021921  0  3.681824  0  0  -0.064081  0  3.947213  0  0  -0.060346  0  3.967406  0  0  0.010199  -0.065064  0  3.932507  0
C  C51  1  0.63647921  0.13441565  0.17357007  1  0  -0.021921  0  3.681827  0  0  -0.064076  0  3.947206  0  0  -0.060339  0  3.967396  0  0  0.010194  -0.065059  0  3.932486  0
C  C52  1  0.22122931  0.82411980  0.60554592  1  0  0.234537  0  3.661518  0  0  0.168523  0  3.939529  0  0  0.183256  0  3.953748  0  0  0.150419  0.158409  0  3.930273  0
C  C53  1  0.17587963  0.77877027  0.89445426  1  0  0.234533  0  3.6615  0  0  0.168518  0  3.939513  0  0  0.183251  0  3.953729  0  0  0.150431  0.158386  0  3.930375  0
C  C54  1  0.77876981  0.17588088  0.39445443  1  0  0.234522  0  3.661524  0  0  0.168501  0  3.939532  0  0  0.183234  0  3.953752  0  0  0.150447  0.158352  0  3.930413  0
C  C55  1  0.82411948  0.22123040  0.10554542  1  0  0.234536  0  3.661596  0  0  0.168522  0  3.9396  0  0  0.183256  0  3.953819  0  0  0.150449  0.158385  0  3.930462  0
C  C56  1  0.88480416  0.72192344  0.70445235  1  0  -0.032306  0  3.733705  0  0  -0.05818  0  3.987604  0  0  -0.050542  0  4.003208  0  0  -0.066915  -0.062857  0  3.97775  0
C  C57  1  0.27807509  0.11519447  0.79554691  1  0  -0.032405  0  3.733673  0  0  -0.058298  0  3.987577  0  0  -0.050661  0  4.003182  0  0  -0.066968  -0.062973  0  3.977702  0
C  C58  1  0.11519115  0.27807179  0.29554767  1  0  -0.032486  0  3.73362  0  0  -0.05839  0  3.987556  0  0  -0.050752  0  4.003159  0  0  -0.066997  -0.063056  0  3.977632  0
C  C59  1  0.72192857  0.88480836  0.20445167  1  0  -0.032464  0  3.733635  0  0  -0.05836  0  3.987573  0  0  -0.050722  0  4.003173  0  0  -0.066979  -0.063032  0  3.97766  0
C  C60  1  0.83477135  0.61669139  0.75691996  1  0  -0.251872  0  3.688403  0  0  -0.266475  0  3.950466  0  0  -0.28001  0  3.967252  0  0  -0.107272  -0.259244  0  3.941082  0
C  C61  1  0.38330905  0.16522563  0.74307935  1  0  -0.251792  0  3.688336  0  0  -0.266356  0  3.950356  0  0  -0.279889  0  3.967144  0  0  -0.107216  -0.259117  0  3.940968  0
C  C62  1  0.16522429  0.38330711  0.24308019  1  0  -0.251697  0  3.688208  0  0  -0.266252  0  3.95021  0  0  -0.279786  0  3.967001  0  0  -0.107163  -0.259021  0  3.940833  0
C  C63  1  0.61669332  0.83477502  0.25691978  1  0  -0.251682  0  3.688208  0  0  -0.266252  0  3.950227  0  0  -0.279785  0  3.967015  0  0  -0.107159  -0.259022  0  3.940833  0
C  C64  1  0.68312503  0.60288870  0.78293987  1  0  0.679759  0  3.945175  0  0  0.628111  0  4.237936  0  0  0.663946  0  4.231726  0  0  0.192395  0.605043  0  4.240311  0
C  C65  1  0.39711144  0.31687262  0.71706003  1  0  0.67967  0  3.945333  0  0  0.628016  0  4.238081  0  0  0.663852  0  4.231871  0  0  0.192356  0.604959  0  4.240406  0
C  C66  1  0.31687300  0.39711197  0.21705977  1  0  0.67963  0  3.945421  0  0  0.627991  0  4.238136  0  0  0.663827  0  4.231928  0  0  0.192358  0.604933  0  4.240464  0
C  C67  1  0.60288865  0.68312695  0.28293964  1  0  0.679681  0  3.945407  0  0  0.628053  0  4.238121  0  0  0.663888  0  4.231911  0  0  0.1924  0.604991  0  4.240486  0
C  C68  1  0.96943867  0.24303976  0.59046265  1  0  0.124959  0  3.870714  0  0  0.127518  0  4.127638  0  0  0.12557  0  4.152727  0  0  0.064305  0.129244  0  4.108876  0
C  C69  1  0.75695969  0.03056263  0.90953709  1  0  0.125005  0  3.870603  0  0  0.127553  0  4.127545  0  0  0.125603  0  4.152635  0  0  0.064359  0.129288  0  4.108766  0
C  C70  1  0.03056361  0.75695981  0.40953777  1  0  0.125008  0  3.870676  0  0  0.12763  0  4.127529  0  0  0.125681  0  4.152619  0  0  0.064381  0.129362  0  4.108748  0
C  C71  1  0.24304041  0.96943695  0.09046325  1  0  0.125045  0  3.870567  0  0  0.127575  0  4.127532  0  0  0.125627  0  4.152623  0  0  0.06438  0.129316  0  4.108744  0
C  C72  1  0.79210406  0.09553032  0.63121996  1  0  0.21131  0  3.690218  0  0  0.151899  0  3.971515  0  0  0.164371  0  3.983525  0  0  0.138953  0.14271  0  3.964602  0
C  C73  1  0.90446839  0.20789645  0.86878038  1  0  0.211351  0  3.690258  0  0  0.151953  0  3.971549  0  0  0.164417  0  3.983555  0  0  0.138981  0.142746  0  3.964723  0
C  C74  1  0.20789602  0.90446925  0.36877905  1  0  0.211292  0  3.69026  0  0  0.151881  0  3.971564  0  0  0.164351  0  3.983572  0  0  0.138947  0.14267  0  3.96469  0
C  C75  1  0.09553181  0.79210423  0.13122001  1  0  0.211366  0  3.690192  0  0  0.151956  0  3.971494  0  0  0.164421  0  3.983503  0  0  0.138991  0.142747  0  3.964647  0
C  C76  1  0.85056694  0.32383935  0.60154556  1  0  -0.033486  0  3.632867  0  0  -0.079249  0  3.895655  0  0  -0.076131  0  3.914602  0  0  0.014089  -0.079331  0  3.88219  0
C  C77  1  0.67615950  0.14943282  0.89845397  1  0  -0.033486  0  3.632834  0  0  -0.079228  0  3.89564  0  0  -0.076122  0  3.914596  0  0  0.01409  -0.079305  0  3.882181  0
C  C78  1  0.14943435  0.67616131  0.39845419  1  0  -0.033454  0  3.632851  0  0  -0.079236  0  3.895626  0  0  -0.076119  0  3.91457  0  0  0.014105  -0.079308  0  3.882149  0
C  C79  1  0.32383930  0.85056458  0.10154624  1  0  -0.033473  0  3.63281  0  0  -0.079197  0  3.895642  0  0  -0.076084  0  3.914585  0  0  0.014093  -0.079284  0  3.882205  0
C  C80  1  0.10386148  0.29564456  0.55509514  1  0  -0.03958  0  3.767031  0  0  -0.065729  0  4.023301  0  0  -0.058006  0  4.039274  0  0  -0.076985  -0.069647  0  4.010189  0
C  C81  1  0.70435476  0.89613831  0.94490464  1  0  -0.039605  0  3.767039  0  0  -0.065769  0  4.023304  0  0  -0.058044  0  4.039275  0  0  -0.077015  -0.069698  0  4.010211  0
C  C82  1  0.89613971  0.70435502  0.44490525  1  0  -0.039584  0  3.767089  0  0  -0.065792  0  4.023351  0  0  -0.058068  0  4.039323  0  0  -0.077013  -0.069714  0  4.010257  0
C  C83  1  0.29564337  0.10386346  0.05509504  1  0  -0.039586  0  3.766995  0  0  -0.065746  0  4.023256  0  0  -0.058019  0  4.039229  0  0  -0.076992  -0.069669  0  4.010155  0
C  C84  1  0.21214205  0.21667490  0.52893683  1  0  -0.243271  0  3.689513  0  0  -0.261854  0  3.955294  0  0  -0.275059  0  3.972119  0  0  -0.117309  -0.253223  0  3.942961  0
C  C85  1  0.78332605  0.78785725  0.97106311  1  0  -0.24324  0  3.689502  0  0  -0.261805  0  3.955292  0  0  -0.27501  0  3.972115  0  0  -0.117297  -0.253176  0  3.942982  0
C  C86  1  0.78785815  0.78332577  0.47106289  1  0  -0.243262  0  3.689523  0  0  -0.261835  0  3.955331  0  0  -0.275039  0  3.972152  0  0  -0.11732  -0.253213  0  3.943009  0
C  C87  1  0.21667449  0.21214672  0.02893808  1  0  -0.243258  0  3.689418  0  0  -0.261813  0  3.955234  0  0  -0.275009  0  3.972029  0  0  -0.117316  -0.253198  0  3.942897  0
C  C88  1  0.33674842  0.28247317  0.48440882  1  0  0.668084  0  3.956275  0  0  0.621595  0  4.24508  0  0  0.656732  0  4.239861  0  0  0.177639  0.598458  0  4.24651  0
C  C89  1  0.71752825  0.66325294  0.01559075  1  0  0.668065  0  3.956204  0  0  0.621547  0  4.245048  0  0  0.656685  0  4.239825  0  0  0.177661  0.598411  0  4.246488  0
C  C90  1  0.66325177  0.71752750  0.51559089  1  0  0.668047  0  3.956283  0  0  0.62156  0  4.245086  0  0  0.656697  0  4.239866  0  0  0.177629  0.598422  0  4.246525  0
C  C91  1  0.28247197  0.33674775  0.98441030  1  0  0.668027  0  3.956432  0  0  0.621544  0  4.245205  0  0  0.656682  0  4.239988  0  0  0.177612  0.598411  0  4.246617  0
N  N92  1  0.25249839  0.69312678  0.63185735  1  0  -0.403127  0  3.285735  0  0  -0.321438  0  3.578361  0  0  -0.34574  0  3.596808  0  0  -0.359556  -0.305865  0  3.565522  0
N  N93  1  0.30687288  0.74750089  0.86814159  1  0  -0.403129  0  3.285735  0  0  -0.321447  0  3.578362  0  0  -0.345748  0  3.596806  0  0  -0.359566  -0.30589  0  3.565628  0
N  N94  1  0.74750072  0.30687389  0.36814232  1  0  -0.403162  0  3.285804  0  0  -0.321479  0  3.578435  0  0  -0.345782  0  3.596882  0  0  -0.359587  -0.305915  0  3.56571  0
N  N95  1  0.69312623  0.25249979  0.13185809  1  0  -0.403137  0  3.285811  0  0  -0.321451  0  3.578426  0  0  -0.345754  0  3.59687  0  0  -0.35956  -0.305888  0  3.56569  0
N  N96  1  0.08745046  0.85255110  0.62878441  1  0  -0.319276  0  3.421694  0  0  -0.248385  0  3.656135  0  0  -0.266246  0  3.673397  0  0  -0.362242  -0.236705  0  3.644869  0
N  N97  1  0.14744856  0.91254872  0.87121500  1  0  -0.31923  0  3.421654  0  0  -0.248344  0  3.656101  0  0  -0.266213  0  3.67339  0  0  -0.362242  -0.236654  0  3.644824  0
N  N98  1  0.91254866  0.14744958  0.37121594  1  0  -0.319246  0  3.421721  0  0  -0.248321  0  3.656152  0  0  -0.266178  0  3.673405  0  0  -0.362236  -0.236632  0  3.644833  0
N  N99  1  0.85255065  0.08745304  0.12878406  1  0  -0.319246  0  3.421765  0  0  -0.248346  0  3.656209  0  0  -0.266202  0  3.67346  0  0  -0.362252  -0.236657  0  3.644886  0
N  N100  1  0.74050177  0.22894937  0.62666632  1  0  -0.277257  0  3.44939  0  0  -0.210468  0  3.692824  0  0  -0.22704  0  3.707347  0  0  -0.376829  -0.200014  0  3.680822  0
N  N101  1  0.77105069  0.25949871  0.87333394  1  0  -0.277307  0  3.449406  0  0  -0.210574  0  3.692842  0  0  -0.227126  0  3.70734  0  0  -0.376842  -0.200111  0  3.680885  0
N  N102  1  0.25949950  0.77105129  0.37333276  1  0  -0.27728  0  3.449362  0  0  -0.210526  0  3.692785  0  0  -0.227093  0  3.707296  0  0  -0.376835  -0.200063  0  3.680795  0
N  N103  1  0.22895048  0.74050086  0.12666577  1  0  -0.27732  0  3.449425  0  0  -0.210572  0  3.692849  0  0  -0.227127  0  3.707353  0  0  -0.376864  -0.200116  0  3.680886  0
N  N104  1  0.93024993  0.09917320  0.60992006  1  0  -0.410113  0  3.051975  0  0  -0.361204  0  3.314387  0  0  -0.375796  0  3.330753  0  0  -0.331444  -0.352145  0  3.304056  0
N  N105  1  0.90082654  0.06975060  0.89007839  1  0  -0.41012  0  3.05193  0  0  -0.361198  0  3.314331  0  0  -0.375789  0  3.330699  0  0  -0.331479  -0.35213  0  3.304007  0
N  N106  1  0.06975027  0.90082746  0.39007899  1  0  -0.410118  0  3.051921  0  0  -0.361217  0  3.31431  0  0  -0.37581  0  3.330676  0  0  -0.331467  -0.352149  0  3.303956  0
N  N107  1  0.09917148  0.93025008  0.10992125  1  0  -0.410161  0  3.051881  0  0  -0.361221  0  3.314284  0  0  -0.375819  0  3.330657  0  0  -0.331471  -0.35215  0  3.303941  0
O  O108  1  0.58881509  0.68082144  0.74980878  1  0  -0.67602  0  2.015645  0  0  -0.608298  0  2.270261  0  0  -0.63561  0  2.258087  0  0  -0.333797  -0.590252  0  2.277554  0
O  O109  1  0.31917849  0.41118249  0.75019167  1  0  -0.676026  0  2.015732  0  0  -0.608316  0  2.270366  0  0  -0.635629  0  2.258191  0  0  -0.333807  -0.590279  0  2.277648  0
O  O110  1  0.41118175  0.31917816  0.25019145  1  0  -0.676004  0  2.015785  0  0  -0.608301  0  2.270395  0  0  -0.635613  0  2.258223  0  0  -0.333811  -0.590256  0  2.277669  0
O  O111  1  0.68082161  0.58881710  0.24980867  1  0  -0.676029  0  2.015779  0  0  -0.608318  0  2.27037  0  0  -0.635633  0  2.258208  0  0  -0.333824  -0.590274  0  2.277667  0
O  O112  1  0.65044735  0.50896497  0.84074386  1  0  -0.649478  0  2.062029  0  0  -0.569872  0  2.297689  0  0  -0.600957  0  2.288751  0  0  -0.317298  -0.547883  0  2.301345  0
O  O113  1  0.49103511  0.34955207  0.65925547  1  0  -0.649435  0  2.062094  0  0  -0.569824  0  2.297771  0  0  -0.600904  0  2.288828  0  0  -0.317288  -0.547842  0  2.301423  0
O  O114  1  0.34955176  0.49103570  0.15925582  1  0  -0.649438  0  2.062132  0  0  -0.569837  0  2.297773  0  0  -0.600924  0  2.288838  0  0  -0.317294  -0.547856  0  2.301421  0
O  O115  1  0.50896509  0.65044860  0.34074424  1  0  -0.649473  0  2.062118  0  0  -0.569874  0  2.297754  0  0  -0.60096  0  2.288825  0  0  -0.317326  -0.547889  0  2.301421  0
O  O116  1  0.35072014  0.42387520  0.47816968  1  0  -0.714537  0  2.021988  0  0  -0.631557  0  2.278809  0  0  -0.664245  0  2.267906  0  0  -0.351128  -0.608028  0  2.285683  0
O  O117  1  0.57612545  0.64928077  0.02183111  1  0  -0.71452  0  2.021915  0  0  -0.631524  0  2.278743  0  0  -0.664212  0  2.267838  0  0  -0.35116  -0.607994  0  2.285622  0
O  O118  1  0.64928006  0.57612547  0.52183004  1  0  -0.71449  0  2.021981  0  0  -0.631525  0  2.278817  0  0  -0.664213  0  2.267915  0  0  -0.351109  -0.607996  0  2.285704  0
O  O119  1  0.42387379  0.35072102  0.97817061  1  0  -0.714525  0  2.021946  0  0  -0.631563  0  2.278799  0  0  -0.66425  0  2.267893  0  0  -0.351119  -0.608031  0  2.285662  0
O  O120  1  0.42528622  0.20160509  0.44942337  1  0  -0.634892  0  1.879314  0  0  -0.580581  0  2.107738  0  0  -0.606139  0  2.096885  0  0  -0.336473  -0.561703  0  2.112339  0
O  O121  1  0.79839591  0.57471426  0.05057693  1  0  -0.634894  0  1.87929  0  0  -0.580577  0  2.107731  0  0  -0.606135  0  2.096875  0  0  -0.336476  -0.561706  0  2.112329  0
O  O122  1  0.57471398  0.79839558  0.55057634  1  0  -0.634898  0  1.87932  0  0  -0.580582  0  2.107735  0  0  -0.60614  0  2.096882  0  0  -0.336476  -0.561702  0  2.11232  0
O  O123  1  0.20160637  0.42528533  0.94942416  1  0  -0.63486  0  1.879429  0  0  -0.580555  0  2.107851  0  0  -0.606115  0  2.096997  0  0  -0.336464  -0.561678  0  2.112419  0
