# generated using pymatgen
data_TbH16C15O11
_symmetry_space_group_name_H-M   'P 1'
_cell_length_a   8.02888528
_cell_length_b   9.34773418
_cell_length_c   12.78017744
_cell_angle_alpha   104.75859007
_cell_angle_beta   95.39057731
_cell_angle_gamma   109.78226893
_symmetry_Int_Tables_number   1
_chemical_formula_structural   TbH16C15O11
_chemical_formula_sum   'Tb2 H32 C30 O22'
_cell_volume   855.51478794
_cell_formula_units_Z   2
loop_
 _symmetry_equiv_pos_site_id
 _symmetry_equiv_pos_as_xyz
  1  'x, y, z'
loop_
 _atom_site_type_symbol
 _atom_site_label
 _atom_site_symmetry_multiplicity
 _atom_site_fract_x
 _atom_site_fract_y
 _atom_site_fract_z
 _atom_site_occupancy
 _atom_site_hle17_bader_spin_density
 _atom_site_hle17_ddec_charge
 _atom_site_hle17_ddec_spin_density
 _atom_site_hle17_ddec_sum_bond_order
 _atom_site_hle17_magmom
 _atom_site_hse06_10hf_bader_spin_density
 _atom_site_hse06_10hf_ddec_charge
 _atom_site_hse06_10hf_ddec_spin_density
 _atom_site_hse06_10hf_ddec_sum_bond_order
 _atom_site_hse06_10hf_magmom
 _atom_site_hse06_bader_spin_density
 _atom_site_hse06_ddec_charge
 _atom_site_hse06_ddec_spin_density
 _atom_site_hse06_ddec_sum_bond_order
 _atom_site_hse06_magmom
 _atom_site_pbe_bader_spin_density
 _atom_site_pbe_cm5_charge
 _atom_site_pbe_ddec_charge
 _atom_site_pbe_ddec_spin_density
 _atom_site_pbe_ddec_sum_bond_order
 _atom_site_pbe_magmom
Tb  Tb0  1  0.63599947  0.22259180  0.51284621  1  0  2.238678  0  1.630751  0  0  2.089677  0  2.097569  0  0  2.214694  0  1.91414  0  0  1.502713  2.05288  0  2.129769  0
Tb  Tb1  1  0.36399291  0.77740295  0.48714963  1  0  2.238706  0  1.630667  0  0  2.08972  0  2.097439  0  0  2.214719  0  1.914042  0  0  1.502763  2.052898  0  2.129695  0
H  H2  1  0.53828045  0.01110365  0.80609875  1  0  0.097906  0  0.912452  0  0  0.106929  0  0.976538  0  0  0.108564  0  0.975819  0  0  0.116291  0.105848  0  0.977024  0
H  H3  1  0.46170402  0.98888039  0.19390255  1  0  0.097965  0  0.912579  0  0  0.106967  0  0.976686  0  0  0.108593  0  0.97597  0  0  0.116299  0.105891  0  0.977172  0
H  H4  1  0.71614166  0.94261294  0.77611363  1  0  0.095497  0  0.932864  0  0  0.102183  0  1.004277  0  0  0.103934  0  1.00286  0  0  0.115325  0.100998  0  1.005152  0
H  H5  1  0.28385030  0.05738074  0.22388748  1  0  0.095534  0  0.932921  0  0  0.102198  0  1.004349  0  0  0.103948  0  1.002935  0  0  0.115343  0.10102  0  1.005223  0
H  H6  1  0.59214480  0.88534605  0.92793060  1  0  0.104626  0  0.975033  0  0  0.114049  0  1.039072  0  0  0.117005  0  1.038032  0  0  0.101267  0.111926  0  1.039887  0
H  H7  1  0.40787708  0.11465710  0.07208180  1  0  0.104626  0  0.975017  0  0  0.114034  0  1.039078  0  0  0.116989  0  1.038039  0  0  0.101219  0.11189  0  1.039922  0
H  H8  1  0.65892590  0.80721768  0.08887871  1  0  0.092469  0  1.012596  0  0  0.101828  0  1.078156  0  0  0.103228  0  1.080005  0  0  0.094049  0.100732  0  1.077094  0
H  H9  1  0.34109400  0.19279006  0.91113203  1  0  0.092522  0  1.012448  0  0  0.10185  0  1.078043  0  0  0.103247  0  1.07989  0  0  0.094063  0.100757  0  1.076979  0
H  H10  1  0.09088224  0.26626668  0.23789100  1  0  0.104858  0  0.973823  0  0  0.116494  0  1.034437  0  0  0.120735  0  1.030496  0  0  0.101082  0.113454  0  1.037285  0
H  H11  1  0.90913577  0.73373612  0.76211094  1  0  0.104605  0  0.973966  0  0  0.116264  0  1.034593  0  0  0.120451  0  1.030719  0  0  0.10098  0.113223  0  1.037445  0
H  H12  1  0.03342841  0.34059229  0.06757180  1  0  0.110457  0  0.944757  0  0  0.122914  0  1.001351  0  0  0.125773  0  0.999808  0  0  0.10709  0.120811  0  1.00263  0
H  H13  1  0.96659411  0.65940596  0.93242961  1  0  0.110518  0  0.944634  0  0  0.12293  0  1.001275  0  0  0.125788  0  0.999734  0  0  0.107095  0.12083  0  1.002551  0
H  H14  1  0.93090449  0.80906359  0.32387783  1  0  0.093406  0  0.934107  0  0  0.103391  0  0.998868  0  0  0.105853  0  0.995961  0  0  0.115205  0.101684  0  1.000871  0
H  H15  1  0.06911479  0.19093927  0.67612497  1  0  0.093458  0  0.934091  0  0  0.10345  0  0.99882  0  0  0.105917  0  0.995912  0  0  0.115211  0.101743  0  1.000823  0
H  H16  1  0.74807625  0.76225986  0.21688902  1  0  0.092781  0  0.962845  0  0  0.101909  0  1.028216  0  0  0.103345  0  1.027438  0  0  0.111966  0.100936  0  1.028631  0
H  H17  1  0.25194034  0.23775222  0.78311056  1  0  0.09273  0  0.962855  0  0  0.101884  0  1.028181  0  0  0.103324  0  1.027405  0  0  0.111989  0.100909  0  1.028609  0
H  H18  1  0.35580449  0.33701075  0.21849500  1  0  0.084439  0  0.950736  0  0  0.092487  0  1.022317  0  0  0.093595  0  1.02152  0  0  0.112512  0.091732  0  1.022712  0
H  H19  1  0.64418128  0.66298955  0.78149673  1  0  0.08443  0  0.950604  0  0  0.092444  0  1.022318  0  0  0.093554  0  1.021509  0  0  0.112499  0.091692  0  1.02271  0
H  H20  1  0.50483691  0.53094168  0.30282491  1  0  0.099613  0  0.962796  0  0  0.107503  0  1.029448  0  0  0.110264  0  1.027819  0  0  0.115912  0.105169  0  1.031636  0
H  H21  1  0.49513737  0.46905483  0.69717250  1  0  0.099537  0  0.962829  0  0  0.107454  0  1.029547  0  0  0.110214  0  1.027914  0  0  0.115874  0.105115  0  1.031742  0
H  H22  1  0.74739705  0.39753455  0.00706752  1  0  0.122271  0  0.95452  0  0  0.130091  0  1.016749  0  0  0.134054  0  1.013851  0  0  0.10968  0.127305  0  1.018789  0
H  H23  1  0.25260849  0.60247487  0.99293483  1  0  0.122234  0  0.954518  0  0  0.130061  0  1.016759  0  0  0.134024  0  1.013858  0  0  0.109657  0.127271  0  1.018794  0
H  H24  1  0.34278317  0.53624637  0.15763396  1  0  0.114912  0  0.956699  0  0  0.126272  0  1.015934  0  0  0.129616  0  1.01413  0  0  0.109434  0.123918  0  1.017231  0
H  H25  1  0.65721235  0.46375331  0.84236763  1  0  0.115015  0  0.956594  0  0  0.126289  0  1.015914  0  0  0.129634  0  1.01411  0  0  0.109436  0.123935  0  1.017204  0
H  H26  1  0.68412979  0.57004278  0.58274525  1  0  0.437077  0  0.86479  0  0  0.407125  0  0.926764  0  0  0.418999  0  0.909719  0  0  0.296289  0.399068  0  0.938398  0
H  H27  1  0.31585935  0.42994357  0.41724656  1  0  0.437083  0  0.864771  0  0  0.407149  0  0.926745  0  0  0.419024  0  0.9097  0  0  0.296267  0.399089  0  0.938382  0
H  H28  1  0.86824588  0.55617924  0.55729238  1  0  0.44215  0  0.84847  0  0  0.416881  0  0.90139  0  0  0.4276  0  0.886005  0  0  0.305251  0.409523  0  0.912105  0
H  H29  1  0.13175134  0.44382155  0.44270404  1  0  0.442228  0  0.848362  0  0  0.416942  0  0.901316  0  0  0.427664  0  0.885928  0  0  0.305254  0.40958  0  0.912036  0
H  H30  1  0.05355668  0.36741427  0.59290857  1  0  0.445811  0  0.796074  0  0  0.427577  0  0.8478  0  0  0.435537  0  0.840239  0  0  0.340472  0.421949  0  0.85385  0
H  H31  1  0.94643075  0.63258389  0.40708992  1  0  0.445843  0  0.795945  0  0  0.427604  0  0.847688  0  0  0.435562  0  0.84013  0  0  0.340471  0.421981  0  0.853741  0
H  H32  1  0.96642396  0.22318463  0.47983906  1  0  0.443829  0  0.843714  0  0  0.412456  0  0.907235  0  0  0.423797  0  0.89078  0  0  0.315926  0.404079  0  0.919623  0
H  H33  1  0.03356470  0.77682643  0.52015787  1  0  0.443773  0  0.843575  0  0  0.412404  0  0.907248  0  0  0.423745  0  0.890796  0  0  0.315903  0.40403  0  0.919633  0
C  C34  1  0.69076559  0.10920004  0.69685375  1  0  0.727061  0  3.813501  0  0  0.679826  0  4.112359  0  0  0.713907  0  4.109263  0  0  0.219617  0.656536  0  4.119203  0
C  C35  1  0.30921529  0.89077793  0.30314313  1  0  0.726871  0  3.814141  0  0  0.679886  0  4.112542  0  0  0.713967  0  4.109443  0  0  0.219633  0.656609  0  4.119379  0
C  C36  1  0.68077493  0.04939300  0.79623698  1  0  -0.064559  0  3.637945  0  0  -0.117006  0  3.8927  0  0  -0.11382  0  3.892929  0  0  -0.058888  -0.11907  0  3.891921  0
C  C37  1  0.31921752  0.95060197  0.20376908  1  0  -0.064578  0  3.638366  0  0  -0.117052  0  3.893012  0  0  -0.113863  0  3.893242  0  0  -0.058911  -0.119129  0  3.89225  0
C  C38  1  0.81562490  0.11574721  0.98411987  1  0  0.244281  0  3.806925  0  0  0.233798  0  4.070949  0  0  0.24234  0  4.088906  0  0  0.072341  0.227784  0  4.05874  0
C  C39  1  0.18436731  0.88424065  0.01588257  1  0  0.244437  0  3.806802  0  0  0.233941  0  4.070843  0  0  0.242483  0  4.088802  0  0  0.072342  0.227938  0  4.058624  0
C  C40  1  0.70676783  0.96864297  0.99284481  1  0  -0.181556  0  3.781184  0  0  -0.201615  0  4.036937  0  0  -0.205987  0  4.059163  0  0  -0.112031  -0.198627  0  4.022046  0
C  C41  1  0.29324120  0.03135603  0.00715826  1  0  -0.181809  0  3.780763  0  0  -0.201843  0  4.036529  0  0  -0.206215  0  4.058757  0  0  -0.112098  -0.198846  0  4.021665  0
C  C42  1  0.74359868  0.92484989  0.08695194  1  0  -0.180348  0  3.786976  0  0  -0.200008  0  4.038755  0  0  -0.204016  0  4.060834  0  0  -0.114342  -0.197274  0  4.024044  0
C  C43  1  0.25641370  0.07514804  0.91305114  1  0  -0.180396  0  3.786782  0  0  -0.199996  0  4.038596  0  0  -0.203999  0  4.06067  0  0  -0.114359  -0.197267  0  4.023884  0
C  C44  1  0.88787194  0.02903976  0.17263838  1  0  0.247228  0  3.795637  0  0  0.236839  0  4.060833  0  0  0.246262  0  4.076598  0  0  0.069255  0.230236  0  4.050053  0
C  C45  1  0.11214932  0.97097147  0.82736915  1  0  0.247325  0  3.795342  0  0  0.236835  0  4.060687  0  0  0.246263  0  4.076432  0  0  0.069366  0.230259  0  4.049892  0
C  C46  1  0.98720522  0.18142830  0.16716426  1  0  -0.151953  0  3.76133  0  0  -0.174848  0  4.018405  0  0  -0.176998  0  4.034573  0  0  -0.103675  -0.17321  0  4.007389  0
C  C47  1  0.01280739  0.81857675  0.83284166  1  0  -0.15166  0  3.761299  0  0  -0.174515  0  4.018339  0  0  -0.176623  0  4.034526  0  0  -0.103593  -0.172882  0  4.007318  0
C  C48  1  0.95293651  0.22396233  0.07347079  1  0  -0.143838  0  3.754468  0  0  -0.165446  0  4.009753  0  0  -0.167626  0  4.028186  0  0  -0.097706  -0.163895  0  3.997364  0
C  C49  1  0.04707538  0.77604731  0.92653198  1  0  -0.143989  0  3.754889  0  0  -0.165549  0  4.010162  0  0  -0.16773  0  4.028582  0  0  -0.097669  -0.164002  0  3.997771  0
C  C50  1  0.83942492  0.85802733  0.28952825  1  0  -0.06949  0  3.623779  0  0  -0.123986  0  3.877956  0  0  -0.120337  0  3.876129  0  0  -0.062706  -0.126216  0  3.878035  0
C  C51  1  0.16059251  0.14198368  0.71047510  1  0  -0.069497  0  3.623739  0  0  -0.123965  0  3.877818  0  0  -0.120349  0  3.875998  0  0  -0.062685  -0.126208  0  3.877925  0
C  C52  1  0.72990912  0.90101904  0.37547755  1  0  0.737796  0  3.786586  0  0  0.690808  0  4.085749  0  0  0.725667  0  4.078816  0  0  0.235416  0.667575  0  4.09213  0
C  C53  1  0.27008961  0.09896297  0.62451485  1  0  0.737928  0  3.786615  0  0  0.690975  0  4.085691  0  0  0.725896  0  4.078681  0  0  0.235489  0.667746  0  4.092073  0
C  C54  1  0.54913418  0.33977501  0.34455748  1  0  0.653133  0  3.90053  0  0  0.605216  0  4.204277  0  0  0.636805  0  4.204116  0  0  0.190446  0.583047  0  4.209028  0
C  C55  1  0.45085599  0.66023022  0.65543851  1  0  0.652602  0  3.900677  0  0  0.604795  0  4.204418  0  0  0.636378  0  4.204253  0  0  0.190298  0.58263  0  4.209156  0
C  C56  1  0.49768136  0.41033692  0.25923546  1  0  -0.084855  0  3.679483  0  0  -0.138297  0  3.93734  0  0  -0.135198  0  3.936691  0  0  -0.07127  -0.139949  0  3.936785  0
C  C57  1  0.50230560  0.58966005  0.74076279  1  0  -0.084382  0  3.678892  0  0  -0.138076  0  3.937076  0  0  -0.134998  0  3.936498  0  0  -0.071185  -0.13973  0  3.936514  0
C  C58  1  0.55264391  0.46117448  0.09307528  1  0  0.230934  0  3.827042  0  0  0.223029  0  4.09059  0  0  0.231523  0  4.107565  0  0  0.067794  0.217048  0  4.078975  0
C  C59  1  0.44734339  0.53882011  0.90692101  1  0  0.230837  0  3.827539  0  0  0.223011  0  4.090901  0  0  0.231509  0  4.107869  0  0  0.067859  0.21703  0  4.07928  0
C  C60  1  0.64054904  0.44422792  0.00418892  1  0  -0.146904  0  3.750117  0  0  -0.169563  0  4.005604  0  0  -0.171242  0  4.021924  0  0  -0.099359  -0.168264  0  3.994463  0
C  C61  1  0.35944331  0.55576673  0.99580220  1  0  -0.146696  0  3.75026  0  0  -0.16941  0  4.005737  0  0  -0.171088  0  4.022054  0  0  -0.099277  -0.168101  0  3.994581  0
C  C62  1  0.41182721  0.51803596  0.08905454  1  0  -0.190889  0  3.779591  0  0  -0.211354  0  4.036218  0  0  -0.214726  0  4.055179  0  0  -0.108246  -0.208862  0  4.023153  0
C  C63  1  0.58816171  0.48195630  0.91093987  1  0  -0.190843  0  3.779472  0  0  -0.211261  0  4.03604  0  0  -0.214626  0  4.054988  0  0  -0.10819  -0.20877  0  4.022974  0
O  O64  1  0.78502090  0.24939175  0.69961848  1  0  -0.661535  0  1.90541  0  0  -0.621428  0  2.136291  0  0  -0.65206  0  2.12369  0  0  -0.356907  -0.605894  0  2.143405  0
O  O65  1  0.21497252  0.75060895  0.30038004  1  0  -0.661471  0  1.905932  0  0  -0.621453  0  2.136692  0  0  -0.652079  0  2.124088  0  0  -0.356943  -0.605916  0  2.143805  0
O  O66  1  0.58971033  0.00684461  0.60547923  1  0  -0.854458  0  2.211044  0  0  -0.796287  0  2.475006  0  0  -0.842218  0  2.465553  0  0  -0.457949  -0.77631  0  2.479363  0
O  O67  1  0.41027412  0.99315233  0.39452199  1  0  -0.854359  0  2.21083  0  0  -0.796305  0  2.47474  0  0  -0.842242  0  2.465281  0  0  -0.457929  -0.776335  0  2.479108  0
O  O68  1  0.79862386  0.16652301  0.89245591  1  0  -0.257436  0  2.327141  0  0  -0.19227  0  2.559741  0  0  -0.208051  0  2.561446  0  0  -0.182575  -0.180945  0  2.557966  0
O  O69  1  0.20136787  0.83347659  0.10754857  1  0  -0.257433  0  2.327278  0  0  -0.19228  0  2.559908  0  0  -0.208059  0  2.561612  0  0  -0.182559  -0.180961  0  2.558145  0
O  O70  1  0.95087305  0.99305605  0.26368330  1  0  -0.2595  0  2.319905  0  0  -0.195929  0  2.55618  0  0  -0.210607  0  2.555889  0  0  -0.188037  -0.185159  0  2.555516  0
O  O71  1  0.04915167  0.00694465  0.73631945  1  0  -0.259506  0  2.319852  0  0  -0.19596  0  2.556189  0  0  -0.210639  0  2.555903  0  0  -0.188172  -0.185219  0  2.555551  0
O  O72  1  0.77716261  0.04761258  0.42977563  1  0  -0.738009  0  2.107838  0  0  -0.680783  0  2.354223  0  0  -0.716713  0  2.341149  0  0  -0.379511  -0.662138  0  2.361482  0
O  O73  1  0.22285469  0.95240786  0.57023016  1  0  -0.737942  0  2.108882  0  0  -0.680737  0  2.355262  0  0  -0.716673  0  2.342154  0  0  -0.379485  -0.6621  0  2.362531  0
O  O74  1  0.60015159  0.78687273  0.38773318  1  0  -0.705927  0  2.006404  0  0  -0.654298  0  2.255085  0  0  -0.6911  0  2.243293  0  0  -0.379498  -0.63563  0  2.260653  0
O  O75  1  0.39986402  0.21314972  0.61225956  1  0  -0.70604  0  2.005405  0  0  -0.654446  0  2.25409  0  0  -0.691279  0  2.242275  0  0  -0.379569  -0.635772  0  2.259647  0
O  O76  1  0.44660765  0.32539760  0.41626621  1  0  -0.704642  0  2.012287  0  0  -0.649842  0  2.245572  0  0  -0.683285  0  2.236015  0  0  -0.37236  -0.631467  0  2.251082  0
O  O77  1  0.55337574  0.67459332  0.58372919  1  0  -0.704544  0  2.012566  0  0  -0.64974  0  2.245769  0  0  -0.683171  0  2.236214  0  0  -0.372435  -0.631359  0  2.251266  0
O  O78  1  0.68329408  0.29811204  0.34797616  1  0  -0.648233  0  1.941121  0  0  -0.607419  0  2.176977  0  0  -0.638331  0  2.167476  0  0  -0.373459  -0.591632  0  2.18229  0
O  O79  1  0.31668413  0.70188819  0.65202449  1  0  -0.648  0  1.940849  0  0  -0.607207  0  2.176629  0  0  -0.638139  0  2.167189  0  0  -0.373311  -0.591412  0  2.181936  0
O  O80  1  0.61076099  0.41681492  0.18042645  1  0  -0.2517  0  2.30976  0  0  -0.187552  0  2.541002  0  0  -0.202311  0  2.541512  0  0  -0.186244  -0.176829  0  2.539853  0
O  O81  1  0.38923375  0.58318600  0.81958001  1  0  -0.25177  0  2.309751  0  0  -0.187478  0  2.54097  0  0  -0.202234  0  2.541478  0  0  -0.186202  -0.176754  0  2.539818  0
O  O82  1  0.76196460  0.50612543  0.58759241  1  0  -0.920367  0  1.854921  0  0  -0.871824  0  2.044432  0  0  -0.902518  0  2.006627  0  0  -0.652985  -0.857219  0  2.066078  0
O  O83  1  0.23803202  0.49387057  0.41239999  1  0  -0.920471  0  1.854803  0  0  -0.871958  0  2.044239  0  0  -0.902659  0  2.006431  0  0  -0.653001  -0.857339  0  2.065903  0
O  O84  1  0.98415459  0.33573772  0.51835292  1  0  -0.845252  0  1.866054  0  0  -0.789725  0  2.044116  0  0  -0.816126  0  2.014019  0  0  -0.567699  -0.775836  0  2.063349  0
O  O85  1  0.01584618  0.66426905  0.48164320  1  0  -0.845186  0  1.865834  0  0  -0.78966  0  2.044014  0  0  -0.816058  0  2.013923  0  0  -0.567626  -0.77577  0  2.063244  0
