# generated using pymatgen
data_FeH24C26(SN3)2
_symmetry_space_group_name_H-M   'P 1'
_cell_length_a   13.04677166
_cell_length_b   13.47442563
_cell_length_c   13.32803542
_cell_angle_alpha   75.91801718
_cell_angle_beta   60.71113878
_cell_angle_gamma   61.95186617
_symmetry_Int_Tables_number   1
_chemical_formula_structural   FeH24C26(SN3)2
_chemical_formula_sum   'Fe2 H48 C52 S4 N12'
_cell_volume   1803.24173020
_cell_formula_units_Z   2
loop_
 _symmetry_equiv_pos_site_id
 _symmetry_equiv_pos_as_xyz
  1  'x, y, z'
loop_
 _atom_site_type_symbol
 _atom_site_label
 _atom_site_symmetry_multiplicity
 _atom_site_fract_x
 _atom_site_fract_y
 _atom_site_fract_z
 _atom_site_occupancy
 _atom_site_pbe_bader_charge
 _atom_site_pbe_bader_spin_density
 _atom_site_pbe_cm5_charge
 _atom_site_pbe_ddec_charge
 _atom_site_pbe_ddec_spin_density
 _atom_site_pbe_ddec_sum_bond_order
 _atom_site_pbe_magmom
Fe  Fe0  1  0.99973564  0.01129692  0.99290782  1  1.171644  0  0.720354  0.434299  0  3.580628  0
Fe  Fe1  1  0.00877294  0.48844551  0.50263846  1  1.182218  0  0.717928  0.43406  0  3.572525  0
H  H2  1  0.22305780  0.56986910  0.89936519  1  0.067398  0  0.106716  0.112533  0  0.997409  0
H  H3  1  0.77929234  0.10034201  0.43257958  1  0.080815  0  0.106755  0.112608  0  0.99597  0
H  H4  1  0.68833430  0.93018502  0.60415011  1  0.072897  0  0.106432  0.112602  0  0.997441  0
H  H5  1  0.30989717  0.39623280  0.07136841  1  0.078087  0  0.107269  0.113788  0  0.993178  0
H  H6  1  0.77941731  0.42135335  0.10194184  1  0.054672  0  0.107628  0.115211  0  0.992891  0
H  H7  1  0.21721256  0.89839141  0.57636179  1  0.070642  0  0.107671  0.115136  0  0.992955  0
H  H8  1  0.30471294  0.07742646  0.39599625  1  0.05583  0  0.107449  0.114658  0  0.99379  0
H  H9  1  0.69396707  0.60383403  0.92211329  1  0.067338  0  0.107757  0.115397  0  0.991109  0
H  H10  1  0.20791023  0.76261240  0.89126625  1  0.076308  0  0.117301  0.086402  0  1.020039  0
H  H11  1  0.79558864  0.11084958  0.23710457  1  0.12405  0  0.118874  0.088494  0  1.019528  0
H  H12  1  0.85953131  0.74088260  0.60822840  1  0.104591  0  0.116851  0.086031  0  1.015142  0
H  H13  1  0.14129225  0.38634325  0.26600281  1  0.101636  0  0.119446  0.08871  0  1.026723  0
H  H14  1  0.79545776  0.23053379  0.10561747  1  0.123074  0  0.120207  0.091377  0  1.030373  0
H  H15  1  0.20050330  0.89709123  0.76951801  1  0.106885  0  0.12049  0.090831  0  1.030385  0
H  H16  1  0.13537034  0.26557825  0.39254691  1  0.104769  0  0.120582  0.091135  0  1.02791  0
H  H17  1  0.87099221  0.60334428  0.72952665  1  0.109749  0  0.119654  0.08923  0  1.032697  0
H  H18  1  0.83069213  0.68457073  0.16452730  1  0.065654  0  0.107421  0.113478  0  0.99628  0
H  H19  1  0.16419604  0.83498248  0.31206429  1  0.073375  0  0.107544  0.114127  0  0.998011  0
H  H20  1  0.67883286  0.81167169  0.33731529  1  0.057693  0  0.107477  0.114436  0  0.995202  0
H  H21  1  0.31252764  0.66542236  0.18963117  1  0.053071  0  0.107327  0.113785  0  0.996692  0
H  H22  1  0.16880648  0.31283807  0.83244677  1  0.09232  0  0.108708  0.114955  0  0.997658  0
H  H23  1  0.83520344  0.16755428  0.68795473  1  0.085262  0  0.108348  0.11496  0  0.998456  0
H  H24  1  0.31495020  0.19282560  0.66403132  1  0.057472  0  0.108497  0.115239  0  0.995135  0
H  H25  1  0.68728071  0.33243522  0.81182299  1  0.062156  0  0.108385  0.115311  0  0.995663  0
H  H26  1  0.13003004  0.43267173  0.00722477  1  0.039844  0  0.094205  0.094245  0  0.982192  0
H  H27  1  0.86873989  0.99097318  0.57150999  1  0.045629  0  0.095403  0.096089  0  0.979681  0
H  H28  1  0.57217254  0.06611554  0.49358448  1  0.032162  0  0.094347  0.094365  0  0.981715  0
H  H29  1  0.43030042  0.50670492  0.93077924  1  0.025428  0  0.095052  0.095903  0  0.980883  0
H  H30  1  0.86959137  0.56198511  0.99504677  1  0.045214  0  0.094779  0.094058  0  0.982435  0
H  H31  1  0.13141555  0.00500164  0.43318788  1  0.03954  0  0.095183  0.09474  0  0.980991  0
H  H32  1  0.42298172  0.93929666  0.50530140  1  0.0316  0  0.094755  0.094421  0  0.982347  0
H  H33  1  0.56971165  0.49684118  0.06599952  1  0.02152  0  0.095367  0.095145  0  0.981236  0
H  H34  1  0.97637224  0.47320436  0.12757917  1  0.069713  0  0.08936  0.098142  0  1.015743  0
H  H35  1  0.02128805  0.87409351  0.52756595  1  0.078478  0  0.089474  0.097196  0  1.015867  0
H  H36  1  0.58032661  0.02400367  0.37305628  1  0.085522  0  0.089625  0.09798  0  1.014487  0
H  H37  1  0.42343770  0.62509924  0.97374758  1  0.068631  0  0.088701  0.096568  0  1.01724  0
H  H38  1  0.02274370  0.52316437  0.87432929  1  0.071966  0  0.090806  0.097554  0  1.008311  0
H  H39  1  0.97951370  0.12234539  0.47455330  1  0.074332  0  0.091409  0.097881  0  1.006254  0
H  H40  1  0.41521995  0.98045197  0.62608255  1  0.045945  0  0.091796  0.098945  0  1.004802  0
H  H41  1  0.57515218  0.37799051  0.02551773  1  0.070338  0  0.091248  0.09747  0  1.007498  0
H  H42  1  0.82863735  0.87617340  0.13906034  1  0.135979  0  0.117428  0.090319  0  1.016167  0
H  H43  1  0.16833376  0.86214133  0.11783428  1  0.113432  0  0.118589  0.091175  0  1.019062  0
H  H44  1  0.84401615  0.62326606  0.35932345  1  0.099453  0  0.116573  0.088132  0  1.014524  0
H  H45  1  0.14907737  0.63908577  0.38329418  1  0.133023  0  0.119163  0.092833  0  1.021421  0
H  H46  1  0.17205914  0.12324811  0.85032157  1  0.109116  0  0.11997  0.093525  0  1.023109  0
H  H47  1  0.83124176  0.15266844  0.87957773  1  0.123346  0  0.119504  0.091854  0  1.022251  0
H  H48  1  0.14940461  0.37985222  0.64536496  1  0.126805  0  0.120269  0.094114  0  1.021454  0
H  H49  1  0.86131081  0.34672406  0.62037552  1  0.125364  0  0.119117  0.090907  0  1.022757  0
C  C50  1  0.02774360  0.61047757  0.03374573  1  -0.038988  0  0.01127  0.167715  0  3.964711  0
C  C51  1  0.97089498  0.96585713  0.38946582  1  -0.056839  0  0.009609  0.163857  0  3.972518  0
C  C52  1  0.66894121  0.88801811  0.46914827  1  0.010404  0  0.011678  0.165239  0  3.955881  0
C  C53  1  0.32688123  0.53224275  0.11276481  1  0.0314  0  0.009267  0.163141  0  3.968024  0
C  C54  1  0.97315803  0.38476036  0.96586891  1  0.060414  0  0.007082  0.160112  0  3.974965  0
C  C55  1  0.02739106  0.03439628  0.61432949  1  0.005349  0  0.006594  0.159951  0  3.976239  0
C  C56  1  0.32592502  0.11707512  0.53113919  1  0.013188  0  0.00874  0.159131  0  3.96294  0
C  C57  1  0.67490705  0.46696260  0.88491565  1  0.024766  0  0.00857  0.160962  0  3.969043  0
C  C58  1  0.13393128  0.63456810  0.95584009  1  0.004766  0  -0.085755  -0.182891  0  3.964602  0
C  C59  1  0.86717130  0.04424781  0.36605866  1  -0.005995  0  -0.085711  -0.182084  0  3.967363  0
C  C60  1  0.72088071  0.86532812  0.54671586  1  -0.054483  0  -0.0852  -0.182322  0  3.962198  0
C  C61  1  0.27646035  0.45320413  0.13724403  1  -0.012865  0  -0.085569  -0.182616  0  3.968113  0
C  C62  1  0.86863944  0.35838971  0.04339941  1  -0.028116  0  -0.085321  -0.177752  0  3.973047  0
C  C63  1  0.12967362  0.95751273  0.64036260  1  -0.038726  0  -0.085956  -0.17948  0  3.971482  0
C  C64  1  0.27308723  0.14134822  0.45404224  1  0.028842  0  -0.08551  -0.176148  0  3.966918  0
C  C65  1  0.72848135  0.54402961  0.85848590  1  0.006641  0  -0.084182  -0.177623  0  3.959581  0
C  C66  1  0.70182415  0.10247961  0.10306897  1  0.428201  0  0.11958  0.225892  0  4.36966  0
C  C67  1  0.29777801  0.90072682  0.89540564  1  0.458826  0  0.118628  0.22413  0  4.370223  0
C  C68  1  0.90905183  0.39425606  0.39605820  1  0.476456  0  0.119409  0.226569  0  4.367359  0
C  C69  1  0.09389548  0.60294202  0.60474120  1  0.472012  0  0.118986  0.224287  0  4.370054  0
C  C70  1  0.12549286  0.74246916  0.94915135  1  0.492918  0  0.049695  0.092478  0  3.943335  0
C  C71  1  0.87632676  0.05235130  0.25642656  1  0.44204  0  0.049564  0.091987  0  3.928492  0
C  C72  1  0.81495856  0.75912726  0.55106002  1  0.489655  0  0.049489  0.091759  0  3.943737  0
C  C73  1  0.18369250  0.44537200  0.24684171  1  0.439086  0  0.047504  0.089302  0  3.917103  0
C  C74  1  0.87724180  0.25106650  0.04770657  1  0.413251  0  0.043579  0.080575  0  3.906971  0
C  C75  1  0.12067614  0.95471288  0.74888564  1  0.451364  0  0.044987  0.085178  0  3.906927  0
C  C76  1  0.17950443  0.24747878  0.44972992  1  0.402055  0  0.043982  0.080163  0  3.903632  0
C  C77  1  0.82642191  0.54574738  0.75021753  1  0.428643  0  0.04578  0.086448  0  3.911486  0
C  C78  1  0.91634939  0.69861034  0.10200465  1  0.001352  0  -0.08655  -0.191236  0  3.959156  0
C  C79  1  0.08040250  0.89798380  0.29882360  1  0.008063  0  -0.0868  -0.19189  0  3.960747  0
C  C80  1  0.71508130  0.79925142  0.39988010  1  -0.046145  0  -0.087313  -0.193086  0  3.955385  0
C  C81  1  0.27815015  0.60129625  0.20308868  1  -0.046223  0  -0.086933  -0.190011  0  3.964525  0
C  C82  1  0.08369006  0.29804209  0.89500039  1  -0.055363  0  -0.088713  -0.192539  0  3.978495  0
C  C83  1  0.91861392  0.10586221  0.70247225  1  -0.031955  0  -0.088124  -0.193483  0  3.973696  0
C  C84  1  0.27895360  0.20541408  0.60125314  1  -0.040813  0  -0.08792  -0.191855  0  3.96954  0
C  C85  1  0.72477194  0.39458308  0.79711016  1  -0.017148  0  -0.08769  -0.193453  0  3.968284  0
C  C86  1  0.03002689  0.49727280  0.03869646  1  -0.026697  0  -0.155212  -0.196783  0  3.931521  0
C  C87  1  0.96877732  0.96076807  0.50382925  1  -0.04647  0  -0.155125  -0.196229  0  3.93123  0
C  C88  1  0.56612739  0.00128118  0.46269098  1  -0.03398  0  -0.154546  -0.193206  0  3.919182  0
C  C89  1  0.43345941  0.53788922  0.99777252  1  -0.005331  0  -0.154123  -0.195518  0  3.927761  0
C  C90  1  0.96988347  0.49791468  0.96291516  1  -0.04417  0  -0.153125  -0.190988  0  3.93203  0
C  C91  1  0.03094692  0.03610640  0.50007017  1  -0.018119  0  -0.153179  -0.192289  0  3.933356  0
C  C92  1  0.42912471  0.00381120  0.53658380  1  -0.000326  0  -0.153125  -0.190555  0  3.923229  0
C  C93  1  0.56636764  0.46472143  0.99974197  1  -0.025332  0  -0.153938  -0.192152  0  3.930657  0
C  C94  1  0.91423536  0.80497182  0.08909350  1  0.429994  0  0.048522  0.088362  0  3.956361  0
C  C95  1  0.08369244  0.91194823  0.19073593  1  0.467621  0  0.048799  0.091194  0  3.940701  0
C  C96  1  0.80753438  0.69448495  0.41069876  1  0.498387  0  0.050101  0.092114  0  3.954743  0
C  C97  1  0.18666221  0.58788711  0.31122110  1  0.44256  0  0.046822  0.085946  0  3.927674  0
C  C98  1  0.08687864  0.19210736  0.90377302  1  0.420177  0  0.043716  0.082463  0  3.914422  0
C  C99  1  0.91518316  0.09867053  0.80952229  1  0.424155  0  0.044719  0.084973  0  3.91942  0
C  C100  1  0.18616558  0.31020438  0.59218711  1  0.453557  0  0.043451  0.081519  0  3.911794  0
C  C101  1  0.82215647  0.40126239  0.69021156  1  0.400341  0  0.046047  0.08677  0  3.920298  0
S  S102  1  0.54533743  0.15929223  0.16598998  1  0.055042  0  -0.255157  -0.417254  0  2.164075  0
S  S103  1  0.45368178  0.83367551  0.83950204  1  0.034011  0  -0.254796  -0.416689  0  2.161928  0
S  S104  1  0.86837697  0.33819448  0.33464805  1  0.023746  0  -0.25436  -0.416611  0  2.162138  0
S  S105  1  0.12553213  0.67002055  0.66390915  1  0.025207  0  -0.251704  -0.41471  0  2.168386  0
N  N106  1  0.01704103  0.82681296  0.01346783  1  -1.207081  0  -0.288534  -0.173564  0  3.451898  0
N  N107  1  0.98352713  0.98877400  0.16905988  1  -1.212098  0  -0.297297  -0.162096  0  3.496828  0
N  N108  1  0.85714270  0.67439317  0.48503383  1  -1.206987  0  -0.286893  -0.178942  0  3.431488  0
N  N109  1  0.13999832  0.50996980  0.33450265  1  -1.189469  0  -0.307407  -0.151485  0  3.528281  0
N  N110  1  0.98549421  0.16670048  0.98023414  1  -1.160282  0  -0.325964  -0.14262  0  3.597709  0
N  N111  1  0.01438750  0.02324548  0.83445150  1  -1.185671  0  -0.325087  -0.145196  0  3.596138  0
N  N112  1  0.13619804  0.33331024  0.51641087  1  -1.174198  0  -0.320383  -0.140465  0  3.582694  0
N  N113  1  0.87321266  0.47635238  0.66522986  1  -1.180634  0  -0.315974  -0.148511  0  3.560158  0
N  N114  1  0.81695628  0.06233009  0.05841768  1  -1.284917  0  -0.434959  -0.45973  0  3.564099  0
N  N115  1  0.18297148  0.94823209  0.93519137  1  -1.298136  0  -0.434603  -0.459553  0  3.565741  0
N  N116  1  0.94176188  0.43401290  0.43983102  1  -1.301638  0  -0.43644  -0.460763  0  3.571425  0
N  N117  1  0.06749350  0.55518188  0.56267025  1  -1.301282  0  -0.436182  -0.46019  0  3.569543  0
