# generated using pymatgen
data_Cd3H62C64S2(N4O3)6
_symmetry_space_group_name_H-M   'P 1'
_cell_length_a   9.87641159
_cell_length_b   13.88178738
_cell_length_c   16.19240090
_cell_angle_alpha   105.08881811
_cell_angle_beta   105.94905139
_cell_angle_gamma   92.05331201
_symmetry_Int_Tables_number   1
_chemical_formula_structural   Cd3H62C64S2(N4O3)6
_chemical_formula_sum   'Cd3 H62 C64 S2 N24 O18'
_cell_volume   2047.13823579
_cell_formula_units_Z   1
loop_
 _symmetry_equiv_pos_site_id
 _symmetry_equiv_pos_as_xyz
  1  'x, y, z'
loop_
 _atom_site_type_symbol
 _atom_site_label
 _atom_site_symmetry_multiplicity
 _atom_site_fract_x
 _atom_site_fract_y
 _atom_site_fract_z
 _atom_site_occupancy
 _atom_site_pbe_bader_charge
 _atom_site_pbe_bader_spin_density
 _atom_site_pbe_cm5_charge
 _atom_site_pbe_ddec_charge
 _atom_site_pbe_ddec_spin_density
 _atom_site_pbe_ddec_sum_bond_order
 _atom_site_pbe_magmom
Cd  Cd0  1  0.71154908  0.92281325  0.85411158  1  1.256361  0  0.77746  0.848702  0  2.24295  0
Cd  Cd1  1  0.28844837  0.07718482  0.14588364  1  1.256391  0  0.777484  0.848723  0  2.242965  0
Cd  Cd2  1  0.50003666  0.50001572  0.50000955  1  1.335994  0  0.803537  1.040845  0  2.052965  0
H  H3  1  0.82855924  0.12336864  0.32053903  1  0.099704  0  0.10306  0.11061  0  1.024649  0
H  H4  1  0.75997243  0.96807715  0.35492736  1  0.058334  0  0.106684  0.108956  0  0.989802  0
H  H5  1  0.90704981  0.12282080  0.63697850  1  0.046975  0  0.103639  0.105582  0  0.998697  0
H  H6  1  0.97704988  0.27643898  0.60270115  1  0.094707  0  0.10137  0.109255  0  1.039171  0
H  H7  1  0.87940008  0.30683828  0.37196784  1  0.101354  0  0.110518  0.101087  0  1.023946  0
H  H8  1  0.93612563  0.37179678  0.48870419  1  0.131624  0  0.118294  0.115071  0  1.027853  0
H  H9  1  0.72279018  0.88336793  0.45678890  1  0.096999  0  0.126892  0.120606  0  0.946242  0
H  H10  1  0.88987887  0.90314339  0.53904312  1  0.120464  0  0.11203  0.092381  0  1.0476  0
H  H11  1  0.34663699  0.25672909  0.35567237  1  0.171709  0  0.136927  0.112984  0  1.006167  0
H  H12  1  0.17247330  0.46449956  0.52679385  1  0.191655  0  0.145705  0.120027  0  1.004123  0
H  H13  1  0.45217535  0.92269885  0.65121612  1  0.122573  0  0.127793  0.096551  0  1.016016  0
H  H14  1  0.89412265  0.97096980  0.70893193  1  0.197572  0  0.144407  0.124386  0  0.989526  0
H  H15  1  0.02905983  0.43482161  0.13152325  1  0.075568  0  0.099505  0.100584  0  1.044266  0
H  H16  1  0.21887760  0.55417468  0.12906998  1  0.059365  0  0.103315  0.108624  0  0.985944  0
H  H17  1  0.77298600  0.37214467  0.07320286  1  0.073497  0  0.108646  0.098566  0  1.017084  0
H  H18  1  0.67375346  0.36849163  0.96249402  1  0.090195  0  0.112893  0.096335  0  1.009769  0
H  H19  1  0.00138864  0.08230725  0.94875037  1  0.165925  0  0.133545  0.112797  0  1.01519  0
H  H20  1  0.59379581  0.17371846  0.92321372  1  0.213732  0  0.13464  0.105428  0  1.048869  0
H  H21  1  0.61130056  0.55082883  0.16492245  1  0.139414  0  0.103537  0.115359  0  1.013457  0
H  H22  1  0.42004370  0.40895757  0.09464510  1  0.057203  0  0.10285  0.10587  0  1.004927  0
H  H23  1  0.75448541  0.68541698  0.15708920  1  0.089796  0  0.124418  0.126755  0  0.963153  0
H  H24  1  0.82819001  0.63706513  0.06931545  1  0.121767  0  0.123036  0.122047  0  0.974944  0
H  H25  1  0.60722483  0.96968087  0.06918682  1  0.168619  0  0.133626  0.111127  0  0.997169  0
H  H26  1  0.80098587  0.73155292  0.94533278  1  0.196816  0  0.142808  0.120792  0  1.021529  0
H  H27  1  0.22018807  0.89424903  0.84195964  1  0.131057  0  0.105678  0.110576  0  1.030412  0
H  H28  1  0.92306415  0.63031657  0.75876993  1  0.117751  0  0.114489  0.125848  0  0.98717  0
H  H29  1  0.35626684  0.60367419  0.75817970  1  0.096301  0  0.107929  0.101808  0  1.06681  0
H  H30  1  0.21516439  0.58010244  0.41400356  1  0.655993  0  0.294412  0.404354  0  0.920825  0
H  H31  1  0.32419163  0.67775203  0.45716014  1  0.618587  0  0.318351  0.404983  0  0.884919  0
H  H32  1  0.61420244  0.48623875  0.34833469  1  0.638798  0  0.293169  0.395314  0  0.929812  0
H  H33  1  0.52289862  0.37883341  0.31963409  1  0.665055  0  0.284091  0.392584  0  0.942095  0
H  H34  1  0.17143234  0.87662625  0.67945294  1  0.099843  0  0.103057  0.110654  0  1.024711  0
H  H35  1  0.24002037  0.03191855  0.64506556  1  0.058461  0  0.106711  0.109032  0  0.989692  0
H  H36  1  0.09296339  0.87716920  0.36301799  1  0.047927  0  0.10364  0.105565  0  0.998803  0
H  H37  1  0.02296031  0.72355246  0.39729457  1  0.094668  0  0.101359  0.109218  0  1.039152  0
H  H38  1  0.12061169  0.69315897  0.62802608  1  0.101392  0  0.110508  0.101128  0  1.023955  0
H  H39  1  0.06387801  0.62819716  0.51129607  1  0.131888  0  0.118285  0.115046  0  1.027839  0
H  H40  1  0.27719927  0.11662762  0.54320167  1  0.097242  0  0.126912  0.120652  0  0.946391  0
H  H41  1  0.11011081  0.09683938  0.46094452  1  0.12044  0  0.11201  0.09236  0  1.047789  0
H  H42  1  0.65337881  0.74328027  0.64434910  1  0.172174  0  0.136869  0.112871  0  1.006342  0
H  H43  1  0.82753963  0.53548820  0.47321396  1  0.191358  0  0.145762  0.120094  0  1.004062  0
H  H44  1  0.54782137  0.07728786  0.34877505  1  0.122641  0  0.127838  0.09655  0  1.016052  0
H  H45  1  0.10587560  0.02902812  0.29106089  1  0.197918  0  0.144459  0.124379  0  0.989652  0
H  H46  1  0.97093286  0.56518489  0.86847659  1  0.075437  0  0.099517  0.100625  0  1.044327  0
H  H47  1  0.78111269  0.44583638  0.87093162  1  0.059277  0  0.103316  0.108576  0  0.985986  0
H  H48  1  0.22700764  0.62785498  0.92679399  1  0.073449  0  0.108642  0.098617  0  1.016987  0
H  H49  1  0.32623835  0.63150954  0.03750349  1  0.090149  0  0.112865  0.096225  0  1.009925  0
H  H50  1  0.99860886  0.91769696  0.05124846  1  0.165842  0  0.13354  0.112782  0  1.015226  0
H  H51  1  0.40620093  0.82628528  0.07677750  1  0.213787  0  0.134668  0.105455  0  1.0489  0
H  H52  1  0.38870321  0.44919579  0.83509462  1  0.141088  0  0.103507  0.115213  0  1.013431  0
H  H53  1  0.57995611  0.59106718  0.90537394  1  0.057289  0  0.102844  0.105871  0  1.004933  0
H  H54  1  0.24552101  0.31460734  0.84292323  1  0.090025  0  0.124384  0.126804  0  0.963072  0
H  H55  1  0.17181175  0.36295273  0.93070011  1  0.122214  0  0.123089  0.122149  0  0.97498  0
H  H56  1  0.39278960  0.03033513  0.93081091  1  0.169236  0  0.133634  0.111118  0  0.997183  0
H  H57  1  0.19901490  0.26845003  0.05466936  1  0.196771  0  0.142816  0.120736  0  1.021613  0
H  H58  1  0.77980566  0.10574794  0.15804168  1  0.131003  0  0.105663  0.11054  0  1.030463  0
H  H59  1  0.07693413  0.36967997  0.24123627  1  0.117776  0  0.114488  0.125822  0  0.987198  0
H  H60  1  0.64372754  0.39632322  0.24181684  1  0.096292  0  0.107947  0.101785  0  1.066809  0
H  H61  1  0.78483745  0.41988696  0.58598322  1  0.656114  0  0.294455  0.404504  0  0.920677  0
H  H62  1  0.67580705  0.32223868  0.54283574  1  0.618477  0  0.318317  0.404869  0  0.885072  0
H  H63  1  0.38580627  0.51376257  0.65167690  1  0.6388  0  0.293203  0.395437  0  0.92963  0
H  H64  1  0.47710154  0.62117186  0.68036964  1  0.664004  0  0.284062  0.392481  0  0.942212  0
C  C65  1  0.90744473  0.21077491  0.45900203  1  -0.015586  0  -0.013624  0.083969  0  3.981869  0
C  C66  1  0.84637516  0.12310842  0.39001451  1  -0.040362  0  -0.091299  -0.133342  0  3.973957  0
C  C67  1  0.80742459  0.03579908  0.40953864  1  -0.034588  0  -0.088433  -0.134078  0  3.987946  0
C  C68  1  0.82792341  0.03438242  0.49823378  1  -0.074734  0  -0.007895  0.098313  0  3.972277  0
C  C69  1  0.88953329  0.12190299  0.56719405  1  0.011976  0  -0.09224  -0.131812  0  3.981679  0
C  C70  1  0.92905891  0.20916738  0.54796328  1  -0.088295  0  -0.08924  -0.129058  0  3.968087  0
C  C71  1  0.94716688  0.30553907  0.43774917  1  0.243835  0  -0.047835  -0.143486  0  3.870013  0
C  C72  1  0.79229967  0.93714649  0.51729474  1  0.273737  0  -0.039283  -0.136634  0  3.893308  0
C  C73  1  0.27610025  0.29100595  0.39291156  1  0.960673  0  0.149164  0.154488  0  3.948774  0
C  C74  1  0.18988227  0.39927021  0.47898426  1  1.011451  0  0.16942  0.120553  0  3.887535  0
C  C75  1  0.55663820  0.93398618  0.64346038  1  0.978834  0  0.135436  0.132332  0  4.023182  0
C  C76  1  0.78111079  0.96057435  0.67502554  1  0.957409  0  0.161448  0.081896  0  3.91838  0
C  C77  1  0.89250618  0.43233005  0.00179677  1  0.043089  0  -0.013714  0.081965  0  4.001801  0
C  C78  1  0.01646388  0.46318106  0.07371949  1  -0.071016  0  -0.087126  -0.107276  0  3.976558  0
C  C79  1  0.12310933  0.53042895  0.07221726  1  -0.051525  0  -0.089595  -0.13051  0  3.98426  0
C  C80  1  0.77804404  0.35979678  0.00443280  1  0.288036  0  -0.043545  -0.133153  0  3.881969  0
C  C81  1  0.91666138  0.12934189  0.95228151  1  0.967064  0  0.141508  0.137797  0  3.985839  0
C  C82  1  0.70787640  0.17229982  0.93790444  1  0.93273  0  0.157502  0.084309  0  3.885737  0
C  C83  1  0.60893565  0.58115627  0.04028581  1  -0.034151  0  -0.011285  0.087672  0  3.975593  0
C  C84  1  0.56227208  0.52882075  0.09250865  1  -0.063608  0  -0.089335  -0.131135  0  3.96891  0
C  C85  1  0.45470318  0.44852241  0.05256077  1  -0.078368  0  -0.093505  -0.142437  0  3.997353  0
C  C86  1  0.73166577  0.66377910  0.08420208  1  0.305845  0  -0.03911  -0.141924  0  3.876208  0
C  C87  1  0.64910671  0.89813518  0.05165963  1  0.936668  0  0.142653  0.143805  0  3.985781  0
C  C88  1  0.74624347  0.77786586  0.98778031  1  0.971394  0  0.162296  0.086598  0  3.894523  0
C  C89  1  0.30319541  0.75410453  0.79779054  1  -0.007724  0  -0.024021  -0.037159  0  4.006184  0
C  C90  1  0.19931304  0.81268821  0.81971117  1  -0.066312  0  -0.077502  -0.112202  0  3.939548  0
C  C91  1  0.06456407  0.76749631  0.80915779  1  0.016746  0  -0.014864  -0.019412  0  3.970765  0
C  C92  1  0.03189387  0.66319425  0.77380874  1  -0.069226  0  -0.073122  -0.100268  0  3.93662  0
C  C93  1  0.13767258  0.60438554  0.75540529  1  -0.161804  0  -0.024365  -0.095998  0  3.995077  0
C  C94  1  0.27372142  0.64959889  0.77067286  1  -0.071094  0  -0.087494  -0.12757  0  4.007245  0
C  C95  1  0.43873287  0.80073760  0.79253542  1  1.569536  0  0.191136  0.560679  0  4.243549  0
C  C96  1  0.95291184  0.83215821  0.82980308  1  1.576599  0  0.185825  0.545635  0  4.274996  0
C  C97  1  0.09256567  0.78921803  0.54099400  1  -0.014775  0  -0.01367  0.083967  0  3.981907  0
C  C98  1  0.15362690  0.87688586  0.60997940  1  -0.041162  0  -0.091191  -0.133233  0  3.974091  0
C  C99  1  0.19256629  0.96419673  0.59045588  1  -0.03408  0  -0.088483  -0.134337  0  3.987942  0
C  C100  1  0.17207474  0.96561269  0.50176161  1  -0.074575  0  -0.007906  0.098485  0  3.972088  0
C  C101  1  0.11047047  0.87808765  0.43280065  1  0.010939  0  -0.092243  -0.131821  0  3.981714  0
C  C102  1  0.07095622  0.79082186  0.45203271  1  -0.08883  0  -0.089306  -0.129108  0  3.968131  0
C  C103  1  0.05283135  0.69445542  0.56224797  1  0.243247  0  -0.047817  -0.143618  0  3.869872  0
C  C104  1  0.20769657  0.06284467  0.48269656  1  0.273484  0  -0.039267  -0.136733  0  3.893602  0
C  C105  1  0.72389800  0.70898512  0.60710167  1  0.960904  0  0.149231  0.154565  0  3.948753  0
C  C106  1  0.81012060  0.60071912  0.52102495  1  1.012095  0  0.169515  0.120646  0  3.887913  0
C  C107  1  0.44335756  0.06600194  0.35652968  1  0.978539  0  0.135462  0.13226  0  4.023107  0
C  C108  1  0.21888413  0.03942274  0.32496606  1  0.956994  0  0.161403  0.081893  0  3.918144  0
C  C109  1  0.10748457  0.56767722  0.99820357  1  0.042769  0  -0.013673  0.082048  0  4.001916  0
C  C110  1  0.98352687  0.53682622  0.92628085  1  -0.070779  0  -0.087169  -0.107396  0  3.976637  0
C  C111  1  0.87687805  0.46958223  0.92778644  1  -0.051531  0  -0.089593  -0.130427  0  3.984149  0
C  C112  1  0.22194904  0.64020591  0.99556515  1  0.288339  0  -0.043537  -0.133162  0  3.882062  0
C  C113  1  0.08333615  0.87066166  0.04771845  1  0.967491  0  0.141443  0.137681  0  3.985838  0
C  C114  1  0.29212274  0.82770481  0.06208912  1  0.933167  0  0.157361  0.084127  0  3.885927  0
C  C115  1  0.39106885  0.41886067  0.95972685  1  -0.037103  0  -0.011248  0.087852  0  3.975539  0
C  C116  1  0.43772867  0.47119986  0.90750356  1  -0.062297  0  -0.089346  -0.130946  0  3.968527  0
C  C117  1  0.54530542  0.55149382  0.94745232  1  -0.078767  0  -0.093555  -0.142527  0  3.997265  0
C  C118  1  0.26833786  0.33624000  0.91580962  1  0.305747  0  -0.039191  -0.142335  0  3.876415  0
C  C119  1  0.35090789  0.10187956  0.94834161  1  0.935998  0  0.142533  0.143742  0  3.98535  0
C  C120  1  0.25376345  0.22214384  0.01222329  1  0.971393  0  0.162348  0.086798  0  3.894416  0
C  C121  1  0.69680156  0.24589593  0.20220753  1  -0.007028  0  -0.023945  -0.037063  0  4.006166  0
C  C122  1  0.80068239  0.18730716  0.18028824  1  -0.06633  0  -0.077436  -0.112084  0  3.939497  0
C  C123  1  0.93543496  0.23249936  0.19084649  1  0.016747  0  -0.014951  -0.019566  0  3.970829  0
C  C124  1  0.96810263  0.33680046  0.22619193  1  -0.069146  0  -0.073094  -0.100245  0  3.936557  0
C  C125  1  0.86232633  0.39561211  0.24459500  1  -0.161536  0  -0.024387  -0.095923  0  3.994873  0
C  C126  1  0.72627646  0.35039808  0.22932841  1  -0.071693  0  -0.087575  -0.127637  0  4.007276  0
C  C127  1  0.56125908  0.19925959  0.20745766  1  1.569542  0  0.191126  0.560793  0  4.243445  0
C  C128  1  0.04708129  0.16783292  0.17019957  1  1.576531  0  0.185849  0.545629  0  4.274655  0
S  S129  1  0.09941087  0.47219826  0.70127738  1  3.181295  0  0.492133  1.1562  0  6.242839  0
S  S130  1  0.90058585  0.52779795  0.29872359  1  3.1814  0  0.492073  1.155952  0  6.243201  0
N  N131  1  0.09465638  0.31812769  0.43665603  1  -0.814909  0  -0.127837  0.176245  0  3.705903  0
N  N132  1  0.14747894  0.24827128  0.38124202  1  -0.66593  0  -0.216665  -0.262002  0  3.145576  0
N  N133  1  0.30727084  0.38436641  0.45340911  1  -1.220609  0  -0.357164  -0.34564  0  3.459413  0
N  N134  1  0.72187416  0.94605977  0.58658872  1  -0.811572  0  -0.134449  0.167689  0  3.742732  0
N  N135  1  0.57789700  0.92828519  0.56496797  1  -0.663197  0  -0.23316  -0.280447  0  3.103517  0
N  N136  1  0.67859824  0.95381261  0.71316811  1  -1.211115  0  -0.350427  -0.328725  0  3.472575  0
N  N137  1  0.80311834  0.25473815  0.97181480  1  -0.795863  0  -0.127824  0.17319  0  3.71866  0
N  N138  1  0.93678441  0.22876545  0.98171862  1  -0.679312  0  -0.21824  -0.264672  0  3.158105  0
N  N139  1  0.77717873  0.09118821  0.92485985  1  -1.20933  0  -0.350029  -0.318156  0  3.490464  0
N  N140  1  0.70932332  0.75431918  0.05469166  1  -0.819258  0  -0.131881  0.172727  0  3.738933  0
N  N141  1  0.64604653  0.83035581  0.09633368  1  -0.695747  0  -0.238071  -0.297839  0  3.10293  0
N  N142  1  0.71000333  0.86893505  0.98422944  1  -1.194417  0  -0.344466  -0.325232  0  3.433489  0
N  N143  1  0.90533878  0.68186409  0.56334515  1  -0.814802  0  -0.127968  0.176192  0  3.705964  0
N  N144  1  0.85251417  0.75172052  0.61875950  1  -0.666387  0  -0.216583  -0.261895  0  3.145383  0
N  N145  1  0.69273998  0.61562473  0.54660523  1  -1.221296  0  -0.35716  -0.345472  0  3.45978  0
N  N146  1  0.27812331  0.05393219  0.41340352  1  -0.811206  0  -0.134352  0.167866  0  3.74241  0
N  N147  1  0.42209991  0.07170368  0.43502239  1  -0.662912  0  -0.233233  -0.280434  0  3.103453  0
N  N148  1  0.32139710  0.04618000  0.28682272  1  -1.211517  0  -0.350558  -0.328847  0  3.472379  0
N  N149  1  0.19687797  0.74526665  0.02818150  1  -0.796246  0  -0.127831  0.173234  0  3.718846  0
N  N150  1  0.06321318  0.77123814  0.01828197  1  -0.679398  0  -0.218211  -0.26463  0  3.158102  0
N  N151  1  0.22281698  0.90881485  0.07513233  1  -1.209815  0  -0.34988  -0.317885  0  3.490455  0
N  N152  1  0.29068919  0.24569827  0.94531722  1  -0.818628  0  -0.131986  0.172769  0  3.738704  0
N  N153  1  0.35397043  0.16966455  0.90367449  1  -0.69604  0  -0.237989  -0.297774  0  3.102562  0
N  N154  1  0.29000119  0.13107376  0.01577181  1  -1.194473  0  -0.344363  -0.325293  0  3.43325  0
O  O155  1  0.51019552  0.74589451  0.74888230  1  -1.182747  0  -0.323008  -0.560093  0  2.164832  0
O  O156  1  0.47226331  0.89506667  0.83133348  1  -1.163414  0  -0.342035  -0.56221  0  2.225994  0
O  O157  1  0.97898687  0.92670702  0.84909622  1  -1.182744  0  -0.338793  -0.575238  0  2.154733  0
O  O158  1  0.83506142  0.78706260  0.82597668  1  -1.154078  0  -0.332387  -0.550501  0  2.265838  0
O  O159  1  0.22558894  0.44436482  0.67248748  1  -1.349367  0  -0.359592  -0.631614  0  2.186796  0
O  O160  1  0.97220134  0.46528770  0.62446202  1  -1.347688  0  -0.352367  -0.638894  0  2.241067  0
O  O161  1  0.07332322  0.42112508  0.76443942  1  -1.327271  0  -0.346812  -0.588473  0  2.160718  0
O  O162  1  0.31438098  0.60600549  0.45042476  1  -1.259248  0  -0.587509  -0.789324  0  1.993364  0
O  O163  1  0.53328045  0.45039338  0.35650478  1  -1.284295  0  -0.594831  -0.786047  0  2.02671  0
O  O164  1  0.48978986  0.25410246  0.25110736  1  -1.182754  0  -0.323015  -0.560203  0  2.164666  0
O  O165  1  0.52773184  0.10492920  0.16866226  1  -1.163703  0  -0.342037  -0.562261  0  2.226114  0
O  O166  1  0.02100667  0.07328573  0.15090864  1  -1.183026  0  -0.338748  -0.57518  0  2.154494  0
O  O167  1  0.16493129  0.21292758  0.17402264  1  -1.153734  0  -0.332471  -0.550468  0  2.265704  0
O  O168  1  0.77441106  0.55562740  0.32752063  1  -1.349705  0  -0.359564  -0.631526  0  2.186818  0
O  O169  1  0.02779973  0.53470456  0.37553510  1  -1.347786  0  -0.352315  -0.638732  0  2.24107  0
O  O170  1  0.92666451  0.57887408  0.23556149  1  -1.327114  0  -0.346785  -0.588439  0  2.160903  0
O  O171  1  0.68563377  0.39397880  0.54953992  1  -1.259136  0  -0.587477  -0.789359  0  1.993475  0
O  O172  1  0.46672495  0.54960851  0.64350399  1  -1.283268  0  -0.594881  -0.786119  0  2.026703  0
