# generated using pymatgen
data_ZnH15C21NO6
_symmetry_space_group_name_H-M   'P 1'
_cell_length_a   13.26018390
_cell_length_b   16.39315586
_cell_length_c   17.82570285
_cell_angle_alpha   94.84414023
_cell_angle_beta   90.18893879
_cell_angle_gamma   92.13266185
_symmetry_Int_Tables_number   1
_chemical_formula_structural   ZnH15C21NO6
_chemical_formula_sum   'Zn2 H30 C42 N2 O12'
_cell_volume   3858.28885657
_cell_formula_units_Z   2
loop_
 _symmetry_equiv_pos_site_id
 _symmetry_equiv_pos_as_xyz
  1  'x, y, z'
loop_
 _atom_site_type_symbol
 _atom_site_label
 _atom_site_symmetry_multiplicity
 _atom_site_fract_x
 _atom_site_fract_y
 _atom_site_fract_z
 _atom_site_occupancy
 _atom_site_pbe_bader_charge
 _atom_site_pbe_bader_spin_density
 _atom_site_pbe_cm5_charge
 _atom_site_pbe_ddec_charge
 _atom_site_pbe_ddec_spin_density
 _atom_site_pbe_ddec_sum_bond_order
 _atom_site_pbe_magmom
Zn  Zn0  1  0.50626984  0.41553294  0.49801160  1  1.278791  0  0.661707  0.811993  0  2.441456  0
Zn  Zn1  1  0.49372753  0.58446691  0.50194734  1  1.277389  0  0.661776  0.812121  0  2.441607  0
H  H2  1  0.39019737  0.71573870  0.42331039  1  0.11551  0  0.132653  0.107032  0  0.959941  0
H  H3  1  0.39822811  0.86705443  0.42593418  1  0.102543  0  0.113058  0.130637  0  1.03387  0
H  H4  1  0.63295543  0.86390073  0.59717123  1  0.029704  0  0.110831  0.099118  0  1.021934  0
H  H5  1  0.61219230  0.71547334  0.58623127  1  0.125871  0  0.130631  0.107574  0  0.970192  0
H  H6  1  0.36705672  0.13609228  0.40281637  1  0.028032  0  0.11083  0.099102  0  1.021945  0
H  H7  1  0.60173278  0.13295497  0.57409614  1  0.102034  0  0.113083  0.130563  0  1.034044  0
H  H8  1  0.60976581  0.28427137  0.57670540  1  0.114827  0  0.132669  0.106968  0  0.960032  0
H  H9  1  0.38782791  0.28451483  0.41373856  1  0.126335  0  0.130633  0.107543  0  0.970313  0
H  H10  1  0.50102575  0.61571239  0.26250541  1  0.10402  0  0.101575  0.104  0  1.003492  0
H  H11  1  0.50204114  0.60996812  0.12419265  1  0.114126  0  0.100494  0.112527  0  1.050085  0
H  H12  1  0.49607171  0.34428756  0.11813160  1  -0.002453  0  0.096859  0.075827  0  1.042346  0
H  H13  1  0.49593991  0.35377792  0.25367466  1  0.108659  0  0.101067  0.104146  0  1.004178  0
H  H14  1  0.50393646  0.65571783  0.88182220  1  -0.002134  0  0.096973  0.076153  0  1.042306  0
H  H15  1  0.49808105  0.39004029  0.87577398  1  0.108586  0  0.100448  0.112423  0  1.049499  0
H  H16  1  0.49906390  0.38429355  0.73746432  1  0.103378  0  0.101562  0.103997  0  1.003465  0
H  H17  1  0.50401005  0.64622441  0.74627541  1  0.108065  0  0.101067  0.104019  0  1.004113  0
H  H18  1  0.83098626  0.39190657  0.49622294  1  0.107688  0  0.099081  0.102804  0  1.041323  0
H  H19  1  0.80913938  0.65121594  0.50492889  1  0.082581  0  0.097112  0.10627  0  1.016561  0
H  H20  1  0.16901091  0.60809152  0.50354063  1  0.107137  0  0.099301  0.10332  0  1.040446  0
H  H21  1  0.19086158  0.34879521  0.49512578  1  0.081962  0  0.097183  0.106253  0  1.016781  0
H  H22  1  0.62756387  0.96396421  0.59601260  1  0.601561  0  0.325613  0.351947  0  0.925537  0
H  H23  1  0.37241107  0.03603910  0.40400885  1  0.601564  0  0.325505  0.351939  0  0.925462  0
H  H24  1  0.49292810  0.35269138  0.02987606  1  0.597258  0  0.313809  0.339697  0  0.948764  0
H  H25  1  0.50713167  0.64732073  0.97008401  1  0.597186  0  0.313925  0.339955  0  0.948535  0
H  H26  1  0.01971706  0.26691142  0.44206249  1  0.042554  0  0.090236  0.12271  0  0.997037  0
H  H27  1  0.91269735  0.29871129  0.49398792  1  0.019267  0  0.090506  0.124961  0  1.025704  0
H  H28  1  0.02232222  0.27179549  0.54159624  1  0.034776  0  0.091272  0.124938  0  0.99471  0
H  H29  1  0.97884516  0.72778116  0.45761524  1  0.030071  0  0.091386  0.12478  0  0.994201  0
H  H30  1  0.08732432  0.70132944  0.50688991  1  0.017613  0  0.090149  0.124222  0  1.026342  0
H  H31  1  0.97911755  0.73344266  0.55718429  1  0.033746  0  0.090166  0.12277  0  0.997122  0
C  C32  1  0.49778834  0.48973009  0.35177630  1  1.547094  0  0.211066  0.588957  0  4.180037  0
C  C33  1  0.30168779  0.48997344  0.49906251  1  1.538751  0  0.213634  0.595799  0  4.160088  0
C  C34  1  0.50221176  0.51026364  0.64818216  1  1.546849  0  0.211111  0.588636  0  4.18037  0
C  C35  1  0.69831184  0.51004303  0.50087702  1  1.539768  0  0.213639  0.595627  0  4.160285  0
C  C36  1  0.44228574  0.75233785  0.46114954  1  0.483528  0  0.062893  0.104025  0  3.923533  0
C  C37  1  0.44726879  0.83718667  0.46286387  1  0.047082  0  -0.08151  -0.162705  0  3.914997  0
C  C38  1  0.51560172  0.88336154  0.51226116  1  -0.040742  0  0.004659  0.071689  0  4.006161  0
C  C39  1  0.57605653  0.83691821  0.55705455  1  -0.009178  0  -0.089477  -0.198101  0  3.977431  0
C  C40  1  0.56619309  0.75213579  0.55211847  1  0.496018  0  0.061086  0.113678  0  3.928681  0
C  C41  1  0.52657734  0.97306478  0.51962609  1  0.555677  0  0.072821  0.135041  0  3.990999  0
C  C42  1  0.47341416  0.02693795  0.48038581  1  0.48087  0  0.072824  0.134777  0  3.991035  0
C  C43  1  0.42394281  0.16307477  0.44294256  1  -0.007181  0  -0.089427  -0.198128  0  3.97734  0
C  C44  1  0.48438682  0.11664242  0.48774859  1  -0.041116  0  0.004808  0.072171  0  4.006199  0
C  C45  1  0.55270620  0.16281788  0.53715375  1  0.047572  0  -0.081493  -0.16277  0  3.915104  0
C  C46  1  0.55769020  0.24767102  0.53885609  1  0.483816  0  0.062663  0.103754  0  3.923681  0
C  C47  1  0.43381087  0.24785968  0.44786706  1  0.495327  0  0.061038  0.113713  0  3.928932  0
C  C48  1  0.49766237  0.48534199  0.26761071  1  -0.013291  0  -0.021754  -0.033625  0  3.971537  0
C  C49  1  0.49956321  0.55664747  0.22943101  1  -0.036778  0  -0.085183  -0.086934  0  3.993218  0
C  C50  1  0.50017226  0.55328462  0.15132197  1  -0.044838  0  -0.094672  -0.121267  0  3.95186  0
C  C51  1  0.49853557  0.47743180  0.10670131  1  -0.019064  0  -0.015636  0.037405  0  4.013378  0
C  C52  1  0.49672107  0.40612803  0.14665126  1  -0.129285  0  -0.102522  -0.155288  0  4.022763  0
C  C53  1  0.49649942  0.40976296  0.22476287  1  0.013948  0  -0.088879  -0.085564  0  4.009268  0
C  C54  1  0.49864437  0.46901972  0.02401587  1  0.470765  0  0.060887  0.125296  0  4.007678  0
C  C55  1  0.50142233  0.53099545  0.97594390  1  0.548054  0  0.060785  0.12549  0  4.007146  0
C  C56  1  0.50330697  0.59388287  0.85330359  1  -0.128237  0  -0.102821  -0.156277  0  4.022966  0
C  C57  1  0.50152707  0.52257723  0.89326188  1  -0.020301  0  -0.015443  0.037461  0  4.013286  0
C  C58  1  0.49991701  0.44672929  0.84864728  1  -0.037987  0  -0.094853  -0.121149  0  3.951652  0
C  C59  1  0.50050910  0.44335849  0.77053252  1  -0.03681  0  -0.085258  -0.08715  0  3.993385  0
C  C60  1  0.50235633  0.51466277  0.73234587  1  -0.013109  0  -0.021618  -0.033376  0  3.971259  0
C  C61  1  0.50349420  0.59023751  0.77519276  1  0.013049  0  -0.088728  -0.084968  0  4.009033  0
C  C62  1  0.86982461  0.45167157  0.49843069  1  -0.002714  0  -0.087194  -0.145052  0  3.966287  0
C  C63  1  0.85777409  0.59888080  0.50349174  1  -0.137088  0  -0.09706  -0.175935  0  3.978222  0
C  C64  1  0.96146562  0.61068405  0.50377660  1  0.053251  0  -0.007746  0.124529  0  3.947872  0
C  C65  1  0.02357767  0.54064574  0.50132269  1  -0.048258  0  -0.005768  0.023654  0  3.959549  0
C  C66  1  0.13016818  0.54832873  0.50140038  1  -0.001001  0  -0.087394  -0.145428  0  3.965879  0
C  C67  1  0.14223256  0.40112392  0.49647771  1  -0.136081  0  -0.097175  -0.176035  0  3.978305  0
C  C68  1  0.03852980  0.38932335  0.49612629  1  0.053269  0  -0.007677  0.124999  0  3.948063  0
C  C69  1  0.97642425  0.45935633  0.49852761  1  0.003447  0  -0.005851  0.023321  0  3.959947  0
C  C70  1  0.81114889  0.51979632  0.50094197  1  -0.007972  0  -0.022801  -0.025057  0  4.018519  0
C  C71  1  0.18884433  0.48021228  0.49896999  1  -0.008951  0  -0.022867  -0.025145  0  4.018654  0
C  C72  1  0.99518304  0.30261686  0.49334283  1  -0.068053  0  -0.237436  -0.403059  0  3.989615  0
C  C73  1  0.00482315  0.69737981  0.50647731  1  -0.053395  0  -0.237112  -0.402036  0  3.989157  0
N  N74  1  0.50001962  0.71004620  0.50506806  1  -1.21353  0  -0.316407  -0.18715  0  3.505976  0
N  N75  1  0.49997535  0.28995048  0.49492260  1  -1.213004  0  -0.316305  -0.186961  0  3.506389  0
O  O76  1  0.50203559  0.42234294  0.38237845  1  -1.169607  0  -0.322459  -0.555937  0  2.31836  0
O  O77  1  0.49388313  0.56077514  0.38657450  1  -1.164195  0  -0.321224  -0.552082  0  2.323092  0
O  O78  1  0.34030886  0.56259561  0.50144887  1  -1.163472  0  -0.323074  -0.548799  0  2.310834  0
O  O79  1  0.35085511  0.42446608  0.49677574  1  -1.182058  0  -0.319877  -0.556896  0  2.338131  0
O  O80  1  0.49782706  0.57766304  0.61757790  1  -1.169994  0  -0.322628  -0.555836  0  2.318073  0
O  O81  1  0.50624207  0.43924923  0.61338501  1  -1.164302  0  -0.32111  -0.551923  0  2.324317  0
O  O82  1  0.65968284  0.43743048  0.49836913  1  -1.163946  0  -0.322878  -0.54851  0  2.31181  0
O  O83  1  0.64914510  0.57557747  0.50330398  1  -1.182374  0  -0.320018  -0.556939  0  2.337107  0
O  O84  1  0.59679591  0.00729568  0.57090959  1  -1.121099  0  -0.345072  -0.420919  0  2.353416  0
O  O85  1  0.40319625  0.99270522  0.42909768  1  -1.12103  0  -0.344947  -0.420883  0  2.353266  0
O  O86  1  0.49571772  0.39001771  0.99029787  1  -1.123291  0  -0.357724  -0.432015  0  2.361286  0
O  O87  1  0.50434370  0.60999745  0.00966581  1  -1.12305  0  -0.357994  -0.432431  0  2.360949  0
