# generated using pymatgen
data_CdH7C5O7
_symmetry_space_group_name_H-M   'P 1'
_cell_length_a   6.15105722
_cell_length_b   9.63238795
_cell_length_c   15.21049019
_cell_angle_alpha   89.99981680
_cell_angle_beta   90.00001813
_cell_angle_gamma   102.31035470
_symmetry_Int_Tables_number   1
_chemical_formula_structural   CdH7C5O7
_chemical_formula_sum   'Cd4 H28 C20 O28'
_cell_volume   880.49043877
_cell_formula_units_Z   4
loop_
 _symmetry_equiv_pos_site_id
 _symmetry_equiv_pos_as_xyz
  1  'x, y, z'
loop_
 _atom_site_type_symbol
 _atom_site_label
 _atom_site_symmetry_multiplicity
 _atom_site_fract_x
 _atom_site_fract_y
 _atom_site_fract_z
 _atom_site_occupancy
 _atom_site_hle17_bader_spin_density
 _atom_site_hle17_ddec_charge
 _atom_site_hle17_ddec_spin_density
 _atom_site_hle17_ddec_sum_bond_order
 _atom_site_hle17_magmom
 _atom_site_hse06_10hf_bader_spin_density
 _atom_site_hse06_10hf_ddec_charge
 _atom_site_hse06_10hf_ddec_spin_density
 _atom_site_hse06_10hf_ddec_sum_bond_order
 _atom_site_hse06_10hf_magmom
 _atom_site_hse06_bader_spin_density
 _atom_site_hse06_ddec_charge
 _atom_site_hse06_ddec_spin_density
 _atom_site_hse06_ddec_sum_bond_order
 _atom_site_hse06_magmom
 _atom_site_pbe_bader_spin_density
 _atom_site_pbe_cm5_charge
 _atom_site_pbe_ddec_charge
 _atom_site_pbe_ddec_spin_density
 _atom_site_pbe_ddec_sum_bond_order
 _atom_site_pbe_magmom
Cd  Cd0  1  0.82727784  0.53442584  0.34835509  1  0  1.301384  0  1.502546  0  0  1.133848  0  1.929192  0  0  1.190741  0  1.867071  0  0  0.795255  1.092501  0  1.972683  0
Cd  Cd1  1  0.17271461  0.96558201  0.84835497  1  0  1.301382  0  1.502645  0  0  1.13387  0  1.929284  0  0  1.190751  0  1.867182  0  0  0.795199  1.092515  0  1.972764  0
Cd  Cd2  1  0.17273029  0.46557838  0.65164651  1  0  1.301471  0  1.502612  0  0  1.133955  0  1.929248  0  0  1.190826  0  1.867162  0  0  0.795192  1.092601  0  1.972743  0
Cd  Cd3  1  0.82726770  0.03441872  0.15164597  1  0  1.30151  0  1.502491  0  0  1.134008  0  1.929089  0  0  1.190875  0  1.867014  0  0  0.795277  1.092671  0  1.972582  0
H  H4  1  0.02969463  0.72884661  0.23956353  1  0  0.415912  0  0.891192  0  0  0.381493  0  0.959998  0  0  0.393597  0  0.942635  0  0  0.285466  0.372927  0  0.972255  0
H  H5  1  0.97030410  0.77114116  0.73956973  1  0  0.415877  0  0.891259  0  0  0.381488  0  0.96003  0  0  0.39359  0  0.942669  0  0  0.285414  0.372919  0  0.97229  0
H  H6  1  0.97030597  0.27114709  0.76043413  1  0  0.415905  0  0.891213  0  0  0.381495  0  0.960016  0  0  0.393599  0  0.942651  0  0  0.285435  0.372928  0  0.972274  0
H  H7  1  0.02968953  0.22884739  0.26043516  1  0  0.415939  0  0.89117  0  0  0.38151  0  0.959991  0  0  0.393616  0  0.942625  0  0  0.285478  0.372944  0  0.972249  0
H  H8  1  0.78536590  0.69870433  0.20007765  1  0  0.438783  0  0.838714  0  0  0.410176  0  0.900872  0  0  0.420209  0  0.886374  0  0  0.299478  0.402952  0  0.911303  0
H  H9  1  0.21462974  0.80128805  0.70007721  1  0  0.438716  0  0.838812  0  0  0.410119  0  0.90094  0  0  0.420148  0  0.886448  0  0  0.299464  0.402894  0  0.911372  0
H  H10  1  0.21463032  0.30129059  0.79992921  1  0  0.438733  0  0.838781  0  0  0.410127  0  0.900928  0  0  0.420157  0  0.886435  0  0  0.299468  0.402901  0  0.911361  0
H  H11  1  0.78535950  0.19870171  0.29992570  1  0  0.438767  0  0.838698  0  0  0.410167  0  0.900869  0  0  0.420197  0  0.886374  0  0  0.299483  0.402944  0  0.911298  0
H  H12  1  0.47894803  0.32303184  0.36774850  1  0  0.415024  0  0.896844  0  0  0.381179  0  0.965406  0  0  0.392423  0  0.949497  0  0  0.284963  0.373208  0  0.976681  0
H  H13  1  0.52104981  0.17695987  0.86774832  1  0  0.415082  0  0.896789  0  0  0.381262  0  0.965321  0  0  0.39251  0  0.949406  0  0  0.284968  0.373291  0  0.976596  0
H  H14  1  0.52105826  0.67696383  0.63225047  1  0  0.415013  0  0.8969  0  0  0.381223  0  0.965383  0  0  0.392465  0  0.949477  0  0  0.28496  0.373253  0  0.976655  0
H  H15  1  0.47895624  0.82302722  0.13225591  1  0  0.415118  0  0.896701  0  0  0.381241  0  0.965344  0  0  0.392482  0  0.949438  0  0  0.284968  0.373272  0  0.976614  0
H  H16  1  0.46108137  0.34399781  0.26518440  1  0  0.428304  0  0.871974  0  0  0.396818  0  0.935059  0  0  0.407336  0  0.920024  0  0  0.292396  0.389358  0  0.945712  0
H  H17  1  0.53891735  0.15599654  0.76518294  1  0  0.428322  0  0.871964  0  0  0.396815  0  0.935081  0  0  0.407335  0  0.920042  0  0  0.2924  0.389352  0  0.945738  0
H  H18  1  0.53891516  0.65599387  0.73481457  1  0  0.428314  0  0.871979  0  0  0.396809  0  0.935097  0  0  0.40733  0  0.920056  0  0  0.292416  0.389347  0  0.945754  0
H  H19  1  0.46109717  0.84399135  0.23481997  1  0  0.428253  0  0.872052  0  0  0.396776  0  0.935141  0  0  0.40728  0  0.920116  0  0  0.292384  0.389316  0  0.945795  0
H  H20  1  0.09935022  0.37389087  0.43683104  1  0  0.430788  0  0.872126  0  0  0.400152  0  0.934648  0  0  0.411232  0  0.918594  0  0  0.291973  0.392229  0  0.946116  0
H  H21  1  0.90063908  0.12611151  0.93683293  1  0  0.430783  0  0.872147  0  0  0.400167  0  0.934638  0  0  0.41125  0  0.918574  0  0  0.291969  0.392252  0  0.9461  0
H  H22  1  0.90066572  0.62610450  0.56316333  1  0  0.430798  0  0.872149  0  0  0.40016  0  0.934677  0  0  0.411238  0  0.918625  0  0  0.291917  0.392233  0  0.94615  0
H  H23  1  0.09935663  0.87389417  0.06317130  1  0  0.430802  0  0.872112  0  0  0.400188  0  0.934605  0  0  0.411267  0  0.918548  0  0  0.291988  0.392273  0  0.946067  0
H  H24  1  0.87591123  0.34988328  0.49093385  1  0  0.42156  0  0.889589  0  0  0.386912  0  0.960147  0  0  0.398351  0  0.943772  0  0  0.286222  0.378832  0  0.971689  0
H  H25  1  0.12408033  0.15012843  0.99093570  1  0  0.421547  0  0.889575  0  0  0.386877  0  0.960148  0  0  0.398311  0  0.943783  0  0  0.286241  0.378801  0  0.971686  0
H  H26  1  0.12410408  0.65011856  0.50906117  1  0  0.42167  0  0.88944  0  0  0.386881  0  0.960181  0  0  0.398323  0  0.943802  0  0  0.286232  0.378802  0  0.971722  0
H  H27  1  0.87591816  0.84987609  0.00906590  1  0  0.42145  0  0.889726  0  0  0.386785  0  0.960324  0  0  0.398228  0  0.943939  0  0  0.286179  0.378707  0  0.971862  0
H  H28  1  0.21218571  0.07271465  0.40601971  1  0  0.116596  0  0.940172  0  0  0.1245  0  1.003397  0  0  0.128612  0  1.000774  0  0  0.110329  0.121259  0  1.005859  0
H  H29  1  0.78779853  0.42727945  0.90601179  1  0  0.116583  0  0.94001  0  0  0.124464  0  1.003266  0  0  0.128609  0  1.000596  0  0  0.110298  0.121217  0  1.005724  0
H  H30  1  0.78789588  0.92727007  0.59400489  1  0  0.116499  0  0.939294  0  0  0.12441  0  1.002601  0  0  0.128576  0  0.999931  0  0  0.11022  0.121158  0  1.005056  0
H  H31  1  0.21211158  0.57272784  0.09400362  1  0  0.116435  0  0.939515  0  0  0.12438  0  1.002775  0  0  0.128538  0  1.000108  0  0  0.110235  0.121131  0  1.005233  0
C  C32  1  0.24935502  0.80373459  0.37256705  1  0  0.693857  0  3.849421  0  0  0.634039  0  4.1523  0  0  0.668913  0  4.143696  0  0  0.227032  0.61046  0  4.157374  0
C  C33  1  0.75063794  0.69626237  0.87257998  1  0  0.693508  0  3.849727  0  0  0.633783  0  4.1525  0  0  0.668646  0  4.143893  0  0  0.22697  0.610194  0  4.157575  0
C  C34  1  0.75070227  0.19625842  0.62742797  1  0  0.693325  0  3.849533  0  0  0.633568  0  4.152308  0  0  0.668469  0  4.143706  0  0  0.227054  0.609957  0  4.157378  0
C  C35  1  0.24929956  0.30373223  0.12743543  1  0  0.693334  0  3.849391  0  0  0.633581  0  4.152217  0  0  0.668457  0  4.143612  0  0  0.227046  0.61  0  4.157288  0
C  C36  1  0.38613114  0.90639298  0.43604551  1  0  -0.051032  0  3.705822  0  0  -0.038593  0  3.944726  0  0  -0.042559  0  3.963864  0  0  -0.00428  -0.036744  0  3.932332  0
C  C37  1  0.61385962  0.59362631  0.93605536  1  0  -0.050759  0  3.705906  0  0  -0.03837  0  3.944788  0  0  -0.042295  0  3.963874  0  0  -0.004264  -0.036512  0  3.932379  0
C  C38  1  0.61382550  0.09366875  0.56392256  1  0  -0.05089  0  3.705416  0  0  -0.038442  0  3.944115  0  0  -0.042476  0  3.963361  0  0  -0.004332  -0.036517  0  3.93161  0
C  C39  1  0.38617031  0.40635143  0.06392783  1  0  -0.050728  0  3.704731  0  0  -0.038403  0  3.943613  0  0  -0.042353  0  3.962749  0  0  -0.004264  -0.036558  0  3.931214  0
C  C40  1  0.34006353  0.04120694  0.44643593  1  0  -0.080369  0  3.689437  0  0  -0.113088  0  3.937274  0  0  -0.1136  0  3.955668  0  0  -0.074823  -0.112121  0  3.925296  0
C  C41  1  0.65992902  0.45881142  0.94643780  1  0  -0.080242  0  3.689047  0  0  -0.112931  0  3.936904  0  0  -0.113487  0  3.955283  0  0  -0.074637  -0.111956  0  3.924902  0
C  C42  1  0.65992659  0.95882901  0.55356238  1  0  -0.080312  0  3.687198  0  0  -0.112994  0  3.935178  0  0  -0.113545  0  3.95362  0  0  -0.07455  -0.112032  0  3.923146  0
C  C43  1  0.34006045  0.54118694  0.05356182  1  0  -0.080313  0  3.687427  0  0  -0.112981  0  3.935392  0  0  -0.113557  0  3.953813  0  0  -0.074641  -0.112002  0  3.923397  0
C  C44  1  0.45199979  0.13424240  0.51027402  1  0  -0.059874  0  3.720261  0  0  -0.045574  0  3.95672  0  0  -0.050004  0  3.976443  0  0  -0.008628  -0.042826  0  3.94381  0
C  C45  1  0.54798109  0.36576132  0.01027083  1  0  -0.059936  0  3.71969  0  0  -0.045662  0  3.95613  0  0  -0.050121  0  3.97586  0  0  -0.008708  -0.042891  0  3.943231  0
C  C46  1  0.54792247  0.86578278  0.48970260  1  0  -0.059367  0  3.717781  0  0  -0.045365  0  3.954528  0  0  -0.049816  0  3.97427  0  0  -0.008471  -0.042601  0  3.941624  0
C  C47  1  0.45206291  0.63423103  0.98970842  1  0  -0.059539  0  3.718157  0  0  -0.045456  0  3.954882  0  0  -0.049921  0  3.974615  0  0  -0.00844  -0.04269  0  3.941974  0
C  C48  1  0.38107483  0.27170170  0.52536149  1  0  0.682572  0  3.887942  0  0  0.623998  0  4.192654  0  0  0.659045  0  4.184025  0  0  0.218526  0.600251  0  4.197854  0
C  C49  1  0.61893741  0.22828699  0.02538028  1  0  0.682141  0  3.888313  0  0  0.623792  0  4.192691  0  0  0.658834  0  4.184081  0  0  0.218518  0.600046  0  4.197886  0
C  C50  1  0.61902185  0.72827610  0.47461841  1  0  0.681391  0  3.887354  0  0  0.623184  0  4.191712  0  0  0.658233  0  4.183103  0  0  0.218251  0.59943  0  4.196902  0
C  C51  1  0.38101472  0.77172758  0.97464104  1  0  0.681668  0  3.887223  0  0  0.623362  0  4.191709  0  0  0.65841  0  4.18309  0  0  0.218238  0.59961  0  4.196899  0
O  O52  1  0.15720700  0.68151441  0.40304746  1  0  -0.676223  0  2.070398  0  0  -0.600609  0  2.31173  0  0  -0.631984  0  2.299975  0  0  -0.314533  -0.578604  0  2.319416  0
O  O53  1  0.84278897  0.81848983  0.90304304  1  0  -0.67611  0  2.070514  0  0  -0.600581  0  2.311802  0  0  -0.63197  0  2.300079  0  0  -0.314572  -0.578581  0  2.319485  0
O  O54  1  0.84278307  0.31850542  0.59694691  1  0  -0.676113  0  2.07046  0  0  -0.600574  0  2.311745  0  0  -0.631946  0  2.299984  0  0  -0.314586  -0.578579  0  2.319448  0
O  O55  1  0.15720348  0.18149983  0.09694672  1  0  -0.676143  0  2.070562  0  0  -0.600568  0  2.311819  0  0  -0.631949  0  2.300085  0  0  -0.314564  -0.578563  0  2.319506  0
O  O56  1  0.22674177  0.84410515  0.29425790  1  0  -0.628287  0  1.958777  0  0  -0.564153  0  2.166462  0  0  -0.589051  0  2.153702  0  0  -0.306999  -0.546744  0  2.174804  0
O  O57  1  0.77327138  0.65590985  0.79425973  1  0  -0.628107  0  1.95851  0  0  -0.564029  0  2.166157  0  0  -0.588924  0  2.153412  0  0  -0.306935  -0.546621  0  2.174496  0
O  O58  1  0.77325672  0.15589937  0.70575224  1  0  -0.62784  0  1.958951  0  0  -0.563741  0  2.166592  0  0  -0.588636  0  2.153831  0  0  -0.306817  -0.546333  0  2.174936  0
O  O59  1  0.22673742  0.34410402  0.20575502  1  0  -0.627922  0  1.958957  0  0  -0.563811  0  2.166589  0  0  -0.588709  0  2.153842  0  0  -0.306867  -0.546403  0  2.174929  0
O  O60  1  0.34822925  0.30068328  0.60509919  1  0  -0.647703  0  2.024214  0  0  -0.58291  0  2.281566  0  0  -0.613275  0  2.268707  0  0  -0.322267  -0.561344  0  2.289753  0
O  O61  1  0.65177432  0.19931172  0.10510226  1  0  -0.647423  0  2.025332  0  0  -0.582724  0  2.282581  0  0  -0.613075  0  2.269711  0  0  -0.32217  -0.561165  0  2.290779  0
O  O62  1  0.65179433  0.69932690  0.39488137  1  0  -0.646962  0  2.02529  0  0  -0.582218  0  2.282406  0  0  -0.612574  0  2.269541  0  0  -0.321898  -0.560671  0  2.290627  0
O  O63  1  0.34820583  0.80068370  0.89488619  1  0  -0.64719  0  2.024314  0  0  -0.582437  0  2.281509  0  0  -0.612802  0  2.268644  0  0  -0.321942  -0.560867  0  2.289693  0
O  O64  1  0.35049299  0.34543021  0.45876330  1  0  -0.646514  0  2.017136  0  0  -0.581939  0  2.239089  0  0  -0.607241  0  2.226056  0  0  -0.309736  -0.564114  0  2.248105  0
O  O65  1  0.64948783  0.15457126  0.95874541  1  0  -0.64641  0  2.016524  0  0  -0.581907  0  2.238335  0  0  -0.607205  0  2.225278  0  0  -0.309754  -0.564094  0  2.247396  0
O  O66  1  0.64951417  0.65456759  0.54127446  1  0  -0.646137  0  2.016251  0  0  -0.581703  0  2.238051  0  0  -0.606985  0  2.224987  0  0  -0.309657  -0.563889  0  2.247111  0
O  O67  1  0.35051035  0.84543650  0.04126539  1  0  -0.646179  0  2.016883  0  0  -0.581683  0  2.23878  0  0  -0.606956  0  2.225702  0  0  -0.309672  -0.563889  0  2.247859  0
O  O68  1  0.90413352  0.65056392  0.21865633  1  0  -0.833625  0  1.844539  0  0  -0.766716  0  2.03069  0  0  -0.791197  0  1.994725  0  0  -0.580966  -0.749326  0  2.055908  0
O  O69  1  0.09586447  0.84942614  0.71865908  1  0  -0.833573  0  1.844689  0  0  -0.766654  0  2.030744  0  0  -0.791151  0  1.99482  0  0  -0.580932  -0.74927  0  2.055966  0
O  O70  1  0.09586548  0.34942984  0.78134461  1  0  -0.833592  0  1.844576  0  0  -0.766673  0  2.030681  0  0  -0.791157  0  1.994728  0  0  -0.580933  -0.749289  0  2.055901  0
O  O71  1  0.90412756  0.15056246  0.28134384  1  0  -0.833668  0  1.844439  0  0  -0.766751  0  2.030589  0  0  -0.791233  0  1.994631  0  0  -0.580981  -0.749363  0  2.055806  0
O  O72  1  0.57027566  0.33318793  0.31179632  1  0  -0.854467  0  1.886401  0  0  -0.781115  0  2.076077  0  0  -0.80749  0  2.041714  0  0  -0.573358  -0.762033  0  2.099916  0
O  O73  1  0.42972275  0.16680943  0.81179418  1  0  -0.854519  0  1.886275  0  0  -0.7812  0  2.075957  0  0  -0.807578  0  2.041589  0  0  -0.573381  -0.762121  0  2.099802  0
O  O74  1  0.42972656  0.66680573  0.68820396  1  0  -0.854472  0  1.886385  0  0  -0.781173  0  2.076045  0  0  -0.807548  0  2.041682  0  0  -0.573404  -0.762093  0  2.099889  0
O  O75  1  0.57028739  0.83317968  0.18821005  1  0  -0.854459  0  1.886254  0  0  -0.78112  0  2.075848  0  0  -0.807479  0  2.041535  0  0  -0.573301  -0.762032  0  2.099687  0
O  O76  1  0.93642247  0.36884920  0.42978065  1  0  -0.86696  0  1.891759  0  0  -0.798651  0  2.098056  0  0  -0.824267  0  2.062901  0  0  -0.59629  -0.780342  0  2.122646  0
O  O77  1  0.06356435  0.13115115  0.92977726  1  0  -0.866998  0  1.891835  0  0  -0.798653  0  2.098128  0  0  -0.824257  0  2.06298  0  0  -0.596338  -0.780358  0  2.122694  0
O  O78  1  0.06358625  0.63113243  0.57021635  1  0  -0.867193  0  1.891705  0  0  -0.798746  0  2.098207  0  0  -0.824358  0  2.063046  0  0  -0.596307  -0.780436  0  2.122813  0
O  O79  1  0.93642622  0.86885792  0.07021842  1  0  -0.866963  0  1.891861  0  0  -0.798665  0  2.09814  0  0  -0.824276  0  2.062985  0  0  -0.596304  -0.780366  0  2.122708  0
