# generated using pymatgen
data_CoH18C20(NO)4
_symmetry_space_group_name_H-M   'P 1'
_cell_length_a   12.35139084
_cell_length_b   12.58897342
_cell_length_c   15.17913838
_cell_angle_alpha   71.92015626
_cell_angle_beta   80.70731858
_cell_angle_gamma   85.52789668
_symmetry_Int_Tables_number   1
_chemical_formula_structural   CoH18C20(NO)4
_chemical_formula_sum   'Co4 H72 C80 N16 O16'
_cell_volume   2213.26628307
_cell_formula_units_Z   4
loop_
 _symmetry_equiv_pos_site_id
 _symmetry_equiv_pos_as_xyz
  1  'x, y, z'
loop_
 _atom_site_type_symbol
 _atom_site_label
 _atom_site_symmetry_multiplicity
 _atom_site_fract_x
 _atom_site_fract_y
 _atom_site_fract_z
 _atom_site_occupancy
 _atom_site_pbe_bader_charge
 _atom_site_pbe_bader_spin_density
 _atom_site_pbe_cm5_charge
 _atom_site_pbe_ddec_charge
 _atom_site_pbe_ddec_spin_density
 _atom_site_pbe_ddec_sum_bond_order
 _atom_site_pbe_magmom
Co  Co0  1  0.52282719  0.53729049  0.62218347  1  1.29917  2.596757  0.673895  0.880163  2.842197  2.537734  2.578
Co  Co1  1  0.00275123  0.00573546  0.13120649  1  1.297836  2.616661  0.677389  0.887459  2.859248  2.489261  2.595
Co  Co2  1  0.47717247  0.46271834  0.37780253  1  1.299019  2.596744  0.67381  0.87998  2.842154  2.537752  2.578
Co  Co3  1  0.99721352  0.99427230  0.86877059  1  1.298417  2.616657  0.677245  0.887316  2.859173  2.48872  2.595
H  H4  1  0.64662868  0.56431332  0.88064516  1  0.055684  0.001188  0.110347  0.127797  0.000557  0.977474  0.001
H  H5  1  0.41920408  0.45846096  0.94881695  1  0.082012  0.000609  0.108153  0.107724  0.000373  0.982986  0.0
H  H6  1  0.53363692  0.78839449  0.60649295  1  0.106254  0.001589  0.1247  0.099415  0.000383  0.99896  0.001
H  H7  1  0.20023664  0.92078868  0.62996812  1  0.081301  -0.000323  0.10303  0.09948  -0.000531  1.042051  0.0
H  H8  1  0.13747765  0.73206309  0.64394739  1  0.061887  0.001004  0.109008  0.113995  0.000447  0.984282  0.0
H  H9  1  0.27895969  0.57856834  0.63947923  1  0.118247  0.001427  0.114911  0.086043  0.000346  1.030839  0.001
H  H10  1  0.77762299  0.99547531  0.69689418  1  0.083049  0.000101  0.097917  0.153214  -5e-06  1.010417  0.0
H  H11  1  0.68482121  0.92162324  0.65913143  1  0.076544  0.00011  0.100968  0.147577  6.5e-05  1.024227  0.0
H  H12  1  0.78097449  0.01360638  0.57637991  1  0.031695  -0.000194  0.091819  0.1326  -0.000236  1.029861  0.0
H  H13  1  0.76025877  0.50103856  0.61499429  1  0.109836  0.00151  0.119557  0.09579  0.000399  0.992009  0.001
H  H14  1  0.85274660  0.16201921  0.61965767  1  0.101615  -0.000415  0.102332  0.099516  -0.000652  1.049506  0.0
H  H15  1  0.51594760  0.28115665  0.64080278  1  0.134933  0.001624  0.118918  0.083268  0.000216  1.036482  0.001
H  H16  1  0.96799665  0.24463702  0.12303541  1  0.135163  0.001343  0.120453  0.099806  0.000231  0.994024  0.001
H  H17  1  0.81389395  0.38808927  0.12418471  1  0.05476  0.000885  0.107833  0.11147  0.000413  0.987357  0.0
H  H18  1  0.62287464  0.33343139  0.12957281  1  0.068322  -0.000291  0.103247  0.102471  -0.000425  1.036644  0.0
H  H19  1  0.75306602  0.00446616  0.13158065  1  0.130398  0.001519  0.120203  0.092021  0.000259  1.02674  0.001
H  H20  1  0.47210617  0.28098381  0.12341319  1  0.074606  -0.000146  0.086052  0.12552  -0.000194  1.064339  0.0
H  H21  1  0.38830393  0.16225893  0.14790192  1  0.087477  9.1e-05  0.099939  0.148521  6.3e-05  1.010875  0.0
H  H22  1  0.45632416  0.18241021  0.23626334  1  0.10062  -7.1e-05  0.097982  0.142261  -9.4e-05  1.03838  0.0
H  H23  1  0.53097049  0.75261965  0.08298237  1  0.029545  0.000122  0.090657  0.13636  7.9e-05  1.01841  0.0
H  H24  1  0.61321125  0.87160260  0.06184756  1  0.103078  -0.000103  0.097995  0.139438  -0.000147  1.036549  0.0
H  H25  1  0.57238221  0.78611776  0.17717228  1  0.068786  -0.000111  0.099128  0.152366  -0.000131  1.001045  0.0
H  H26  1  0.25152495  0.01596619  0.11552852  1  0.133379  0.001496  0.121842  0.093247  0.000341  1.019069  0.001
H  H27  1  0.38697497  0.68499749  0.13182511  1  0.102842  -0.000202  0.103606  0.103146  -0.000406  1.044988  0.0
H  H28  1  0.19612316  0.62328444  0.14660142  1  0.071678  0.000903  0.107589  0.111431  0.000399  0.990276  0.0
H  H29  1  0.04006158  0.76298225  0.14705172  1  0.092712  0.001309  0.114908  0.082231  8.6e-05  1.02697  0.001
H  H30  1  0.21963669  0.28926698  0.92690229  1  0.073351  0.001174  0.104924  0.127577  0.000562  0.987424  0.001
H  H31  1  0.14995297  0.19833891  0.77787823  1  0.140407  -8.4e-05  0.106973  0.116913  -0.000228  1.048058  0.0
H  H32  1  0.31363864  0.38661630  0.75261158  1  0.110429  -7e-05  0.108536  0.116152  -0.000143  1.010865  0.0
H  H33  1  0.22997970  0.27484044  0.62228478  1  0.082255  0.00146  0.106699  0.129307  0.000702  1.005225  0.001
H  H34  1  0.29114614  0.07830221  0.52915536  1  0.061813  -3.2e-05  0.093293  0.13741  -2.3e-05  1.009859  0.0
H  H35  1  0.27040059  0.07886803  0.64721532  1  0.060645  6.7e-05  0.09952  0.152617  -1.2e-05  0.996226  0.0
H  H36  1  0.37768183  0.15802007  0.56697206  1  0.119202  0.000114  0.097788  0.145699  2.5e-05  1.056691  0.0
H  H37  1  0.93053774  0.86202696  0.45229093  1  0.050428  0.001336  0.108799  0.126924  0.000627  0.98034  0.001
H  H38  1  0.04190983  0.08808143  0.40423359  1  0.083473  0.000746  0.111188  0.112965  0.000476  0.978504  0.0
H  H39  1  0.90762628  0.35176868  0.61125207  1  0.077502  0.000906  0.10976  0.115335  0.000425  0.983031  0.0
H  H40  1  0.35337166  0.43569245  0.11933486  1  0.05564  0.001188  0.110358  0.127981  0.000557  0.977252  0.001
H  H41  1  0.58080373  0.54154389  0.05116412  1  0.081881  0.00061  0.108185  0.107746  0.000373  0.98303  0.0
H  H42  1  0.46637579  0.21161426  0.39351349  1  0.106751  0.001588  0.124755  0.099465  0.000382  0.998979  0.001
H  H43  1  0.79977479  0.07920818  0.37006635  1  0.080821  -0.000323  0.103095  0.099616  -0.00053  1.04201  0.0
H  H44  1  0.86253480  0.26794676  0.35605225  1  0.061622  0.001004  0.108999  0.114042  0.000447  0.984373  0.0
H  H45  1  0.72105813  0.42144940  0.36048874  1  0.118433  0.001427  0.114948  0.086127  0.000346  1.030894  0.001
H  H46  1  0.22239956  0.00453327  0.30313519  1  0.084086  0.000102  0.097814  0.153113  -5e-06  1.010427  0.0
H  H47  1  0.31517875  0.07837004  0.34095178  1  0.077791  0.00011  0.101042  0.147552  6.5e-05  1.024009  0.0
H  H48  1  0.21900533  0.98635192  0.42367165  1  0.031502  -0.000194  0.091716  0.132408  -0.000236  1.029975  0.0
H  H49  1  0.23976157  0.49899381  0.38495934  1  0.109852  0.001511  0.119625  0.095837  0.000399  0.992117  0.001
H  H50  1  0.14727391  0.83798501  0.38035720  1  0.101951  -0.000415  0.102286  0.099477  -0.000652  1.049678  0.0
H  H51  1  0.48406582  0.71885045  0.35922373  1  0.134864  0.001625  0.118907  0.083307  0.000217  1.036446  0.001
H  H52  1  0.03197784  0.75543258  0.87692581  1  0.134595  0.001343  0.120498  0.099878  0.000231  0.994046  0.001
H  H53  1  0.18604919  0.61192660  0.87584062  1  0.055109  0.000885  0.107756  0.111342  0.000413  0.987249  0.0
H  H54  1  0.37709079  0.66657139  0.87044556  1  0.069144  -0.00029  0.103356  0.102535  -0.000425  1.036432  0.0
H  H55  1  0.24694833  0.99556473  0.86839007  1  0.129583  0.001517  0.120235  0.092142  0.000258  1.026972  0.001
H  H56  1  0.52789759  0.71897944  0.87671597  1  0.074401  -0.000146  0.086055  0.125724  -0.000195  1.064083  0.0
H  H57  1  0.61167711  0.83771262  0.85216945  1  0.087598  9.2e-05  0.099962  0.148489  6.4e-05  1.011189  0.0
H  H58  1  0.54371169  0.81745826  0.76383085  1  0.101966  -7.1e-05  0.097914  0.142393  -9.5e-05  1.03848  0.0
H  H59  1  0.46901294  0.24730643  0.91710778  1  0.029912  0.000122  0.090602  0.136471  7.9e-05  1.018561  0.0
H  H60  1  0.38679818  0.12835170  0.93817534  1  0.103132  -0.000103  0.097965  0.139418  -0.000147  1.037019  0.0
H  H61  1  0.42760009  0.21389964  0.82289088  1  0.068718  -0.000111  0.09914  0.152498  -0.000131  1.001112  0.0
H  H62  1  0.74847824  0.98406091  0.88447578  1  0.133917  0.001494  0.121834  0.093208  0.00034  1.019404  0.001
H  H63  1  0.61297768  0.31501424  0.86813774  1  0.104768  -0.000201  0.103744  0.103296  -0.000405  1.045093  0.0
H  H64  1  0.80381651  0.37677656  0.85337307  1  0.071518  0.000903  0.107504  0.111349  0.000399  0.989984  0.0
H  H65  1  0.95990901  0.23709276  0.85291939  1  0.092868  0.001307  0.114925  0.082234  8.6e-05  1.026533  0.001
H  H66  1  0.78041319  0.71067345  0.07308929  1  0.077849  0.00117  0.104972  0.127627  0.000562  0.98731  0.001
H  H67  1  0.85004189  0.80160888  0.22212402  1  0.140656  -8.7e-05  0.106932  0.116823  -0.000227  1.04793  0.0
H  H68  1  0.68636754  0.61333248  0.24738474  1  0.110268  -7e-05  0.108613  0.116341  -0.000143  1.010952  0.0
H  H69  1  0.77001687  0.72512116  0.37770344  1  0.082223  0.00146  0.106778  0.129485  0.000701  1.004849  0.001
H  H70  1  0.70885946  0.92170864  0.47086157  1  0.061478  -3.2e-05  0.093398  0.137567  -2.2e-05  1.009848  0.0
H  H71  1  0.72962345  0.92115704  0.35279482  1  0.061571  6.7e-05  0.099521  0.152637  -1.1e-05  0.996303  0.0
H  H72  1  0.62233899  0.84198959  0.43303095  1  0.120232  0.000114  0.09769  0.14557  2.5e-05  1.056766  0.0
H  H73  1  0.06944329  0.13793314  0.54767562  1  0.051281  0.001335  0.108778  0.126772  0.000628  0.980255  0.001
H  H74  1  0.95807564  0.91187003  0.59576133  1  0.082942  0.000746  0.111307  0.113151  0.000476  0.978365  0.0
H  H75  1  0.09239747  0.64826773  0.38868295  1  0.076769  0.000905  0.109756  0.115337  0.000425  0.983242  0.0
C  C76  1  0.55150958  0.52524887  0.78536979  1  1.528559  -0.008729  0.177818  0.564553  -0.010566  4.268033  -0.008
C  C77  1  0.57067735  0.52694802  0.87825777  1  -0.046377  -0.005761  -0.088822  -0.220815  -0.006574  3.91803  -0.003
C  C78  1  0.49449452  0.49403095  0.95547530  1  -0.040491  -0.006063  -0.082178  -0.055506  -0.006788  4.048519  -0.003
C  C79  1  0.44519081  0.77916674  0.61565369  1  0.530652  -0.008946  0.063466  0.074725  -0.009912  3.874687  -0.006
C  C80  1  0.37255779  0.87055517  0.61811867  1  -0.029131  0.004443  -0.002993  -0.022765  0.002169  3.962713  0.004
C  C81  1  0.25993910  0.85318984  0.62739703  1  -0.056147  -0.008904  -0.070058  -0.066973  -0.009442  3.937933  -0.005
C  C82  1  0.22458487  0.74800153  0.63543317  1  -0.010689  0.004267  -0.088272  -0.135049  0.002114  4.025282  0.003
C  C83  1  0.30215055  0.66241718  0.63355600  1  0.449481  -0.005448  0.044317  0.092525  -0.006019  3.940294  -0.004
C  C84  1  0.41100898  0.98129035  0.61129855  1  0.664146  0.000376  0.150648  0.273776  0.000171  3.918923  0.0
C  C85  1  0.64294838  0.09518419  0.63457216  1  0.643669  0.000643  0.149761  0.271904  0.000373  3.922652  0.0
C  C86  1  0.72584849  0.00055413  0.64324794  1  -0.062024  0.000322  -0.242975  -0.465917  0.000176  3.932927  0.0
C  C87  1  0.74086191  0.41652794  0.61903742  1  0.437723  -0.007584  0.043075  0.084116  -0.008201  3.945126  -0.005
C  C88  1  0.79050695  0.22752500  0.62228057  1  -0.047586  -0.010158  -0.069128  -0.067309  -0.010783  3.932042  -0.006
C  C89  1  0.67894929  0.20606876  0.63052082  1  0.016963  0.004385  -0.003047  -0.023863  0.002143  3.957795  0.004
C  C90  1  0.60329626  0.29487382  0.63340679  1  0.47219  -0.007881  0.064764  0.089473  -0.008767  3.861589  -0.005
C  C91  1  0.88304631  0.22563631  0.12461669  1  0.485191  -0.006785  0.044254  0.085923  -0.007513  3.944501  -0.004
C  C92  1  0.79730509  0.30396039  0.12502239  1  -0.059767  0.004433  -0.089856  -0.136347  0.002202  4.029729  0.003
C  C93  1  0.69062442  0.27304867  0.12799271  1  -0.038532  -0.009394  -0.070637  -0.069214  -0.010015  3.932882  -0.006
C  C94  1  0.67187907  0.16413946  0.12884136  1  0.01094  0.004425  -0.002604  -0.020322  0.002134  3.962777  0.004
C  C95  1  0.76363727  0.09047318  0.12899734  1  0.517696  -0.008353  0.058917  0.077351  -0.009144  3.871315  -0.005
C  C96  1  0.56075532  0.12570965  0.13252845  1  0.609575  0.000521  0.147024  0.269076  0.000222  3.919973  0.0
C  C97  1  0.46326496  0.19188473  0.16103383  1  -0.140464  0.000233  -0.24806  -0.463609  5e-05  3.943697  0.0
C  C98  1  0.44658745  0.89710123  0.11460848  1  0.631744  0.000339  0.149282  0.267504  0.000109  3.925389  0.0
C  C99  1  0.54563133  0.82205675  0.10806763  1  -0.074979  0.00018  -0.243798  -0.461046  1.8e-05  3.945862  0.0
C  C100  1  0.24255993  0.92834041  0.12217423  1  0.49094  -0.009019  0.059957  0.072399  -0.009789  3.877833  -0.006
C  C101  1  0.33570246  0.85641941  0.12171141  1  -0.01857  0.004547  -0.001024  -0.017927  0.002193  3.967679  0.004
C  C102  1  0.31822965  0.74472249  0.13034756  1  -0.059511  -0.008815  -0.069394  -0.06884  -0.009401  3.929555  -0.005
C  C103  1  0.21170662  0.70991082  0.13902420  1  0.026621  0.004328  -0.08889  -0.13318  0.002126  4.019659  0.003
C  C104  1  0.12477458  0.78672609  0.13923221  1  0.438429  -0.005818  0.045374  0.096506  -0.006564  3.935213  -0.004
C  C105  1  0.17989257  0.23777035  0.89608908  1  -0.099176  0.004432  -0.098027  -0.243436  0.001234  3.912034  0.005
C  C106  1  0.19312310  0.25373049  0.80252686  1  -0.01497  -0.010519  -0.082892  -0.044015  -0.011392  4.009222  -0.006
C  C107  1  0.26437033  0.33183174  0.73229800  1  -0.103789  -0.005814  -0.080272  -0.042545  -0.006652  3.991424  -0.003
C  C108  1  0.27771481  0.33117406  0.64182876  1  -0.026758  -0.000555  -0.093596  -0.238032  -0.003218  3.894396  0.002
C  C109  1  0.35997895  0.39648706  0.56788656  1  1.49917  -0.005808  0.205951  0.605321  -0.007059  4.204648  -0.001
C  C110  1  0.33375355  0.08024998  0.58673804  1  -0.119421  0.00038  -0.243729  -0.468818  0.000187  3.934713  0.0
C  C111  1  0.98231081  0.96393840  0.30743710  1  1.50389  -0.01016  0.177647  0.557201  -0.012332  4.28348  -0.009
C  C112  1  0.96958096  0.94011629  0.40992665  1  -0.043739  -0.006836  -0.092522  -0.232376  -0.007673  3.926694  -0.003
C  C113  1  0.00436430  0.01066987  0.45040483  1  -0.066626  -0.008457  -0.078325  -0.047851  -0.009153  4.042444  -0.004
C  C114  1  0.11368683  0.14520567  0.96112578  1  1.517953  -0.007648  0.203897  0.605653  -0.00848  4.204622  -0.002
C  C115  1  0.82151050  0.33364986  0.61669910  1  -0.038498  0.00459  -0.087423  -0.1303  0.002202  4.014561  0.004
C  C116  1  0.44849041  0.47476458  0.21460454  1  1.528547  -0.008729  0.177687  0.564406  -0.010568  4.268134  -0.008
C  C117  1  0.42932658  0.47306482  0.12171083  1  -0.045645  -0.005763  -0.088949  -0.221118  -0.006575  3.917795  -0.003
C  C118  1  0.50551783  0.50597356  0.04449329  1  -0.093741  -0.006148  -0.082122  -0.05555  -0.00679  4.048503  -0.003
C  C119  1  0.55482572  0.22083267  0.38433787  1  0.53015  -0.008945  0.063447  0.07482  -0.009912  3.874894  -0.006
C  C120  1  0.62746321  0.12945267  0.38188870  1  -0.02911  0.00444  -0.003057  -0.022775  0.002168  3.963291  0.004
C  C121  1  0.74007543  0.14682030  0.37261541  1  -0.055693  -0.008902  -0.070002  -0.067128  -0.009442  3.938369  -0.005
C  C122  1  0.77542956  0.25201860  0.36455784  1  -0.010323  0.004268  -0.088273  -0.135024  0.002114  4.025526  0.003
C  C123  1  0.69785705  0.33760085  0.36642666  1  0.448682  -0.005445  0.044163  0.092419  -0.006017  3.940379  -0.004
C  C124  1  0.58900974  0.01871646  0.38871402  1  0.663842  0.000376  0.150642  0.273671  0.000171  3.919069  0.0
C  C125  1  0.35706785  0.90481038  0.36545682  1  0.644532  0.000642  0.149658  0.271468  0.000373  3.922283  0.0
C  C126  1  0.27415371  0.99943957  0.35680449  1  -0.066031  0.000324  -0.242854  -0.465415  0.000177  3.93203  0.0
C  C127  1  0.25915090  0.58349880  0.38093384  1  0.438157  -0.007587  0.043046  0.08406  -0.008202  3.945155  -0.005
C  C128  1  0.20950307  0.77248644  0.37772104  1  -0.048051  -0.010156  -0.069131  -0.067436  -0.010781  3.932158  -0.006
C  C129  1  0.32106432  0.79393004  0.36950626  1  0.01701  0.004387  -0.002946  -0.023618  0.002143  3.957615  0.004
C  C130  1  0.39671590  0.70513056  0.36660537  1  0.472415  -0.007879  0.064701  0.089383  -0.008761  3.861863  -0.005
C  C131  1  0.11693821  0.77441433  0.87536126  1  0.483886  -0.00678  0.044398  0.085901  -0.007507  3.944413  -0.004
C  C132  1  0.20266591  0.69606858  0.87498178  1  -0.058296  0.004428  -0.089778  -0.136223  0.002201  4.029324  0.003
C  C133  1  0.30935104  0.72697181  0.87201606  1  -0.038736  -0.009384  -0.070743  -0.0692  -0.010004  3.932348  -0.006
C  C134  1  0.32813468  0.83587727  0.87115186  1  0.009674  0.004428  -0.002718  -0.020459  0.002135  3.963233  0.004
C  C135  1  0.23638572  0.90955962  0.87098612  1  0.517587  -0.008351  0.058607  0.076891  -0.009142  3.871513  -0.005
C  C136  1  0.43925559  0.87427652  0.86748418  1  0.609507  0.000519  0.147029  0.26916  0.00022  3.92046  0.0
C  C137  1  0.53674396  0.80806484  0.83904432  1  -0.141644  0.000233  -0.247917  -0.463818  5e-05  3.943985  0.0
C  C138  1  0.55338354  0.10289286  0.88539853  1  0.632295  0.000339  0.149362  0.268015  0.000109  3.925765  0.0
C  C139  1  0.45435390  0.17791324  0.89198039  1  -0.075616  0.000179  -0.243737  -0.461487  1.8e-05  3.946965  0.0
C  C140  1  0.75741451  0.07169096  0.87781106  1  0.489009  -0.009014  0.059978  0.072248  -0.009781  3.877871  -0.006
C  C141  1  0.66426006  0.14358971  0.87827362  1  -0.01727  0.004541  -0.001079  -0.01771  0.002191  3.967761  0.004
C  C142  1  0.68172414  0.25528968  0.86962491  1  -0.042851  -0.008807  -0.069598  -0.069159  -0.009401  3.929549  -0.005
C  C143  1  0.78824660  0.29013029  0.86094888  1  0.006294  0.004322  -0.088863  -0.133268  0.002127  4.018674  0.003
C  C144  1  0.87519982  0.21332489  0.86073930  1  0.439215  -0.005818  0.045512  0.096637  -0.006562  3.934628  -0.004
C  C145  1  0.82013446  0.76219272  0.10389875  1  -0.102173  0.004439  -0.098219  -0.243513  0.001241  3.912062  0.005
C  C146  1  0.80690771  0.74620856  0.19746070  1  -0.01506  -0.010501  -0.082702  -0.043597  -0.011376  4.008729  -0.006
C  C147  1  0.73562538  0.66813072  0.26768950  1  -0.10405  -0.005803  -0.080407  -0.043031  -0.00664  3.991748  -0.003
C  C148  1  0.72228450  0.66877993  0.35816279  1  -0.026895  -0.000549  -0.09371  -0.238163  -0.003211  3.894349  0.002
C  C149  1  0.64001989  0.60349237  0.43213081  1  1.500178  -0.0058  0.205822  0.605114  -0.007047  4.204817  -0.001
C  C150  1  0.66626258  0.91976103  0.41327329  1  -0.120963  0.000381  -0.243719  -0.468908  0.000187  3.934981  0.0
C  C151  1  0.01771928  0.03604772  0.69253304  1  1.505219  -0.01015  0.177737  0.557624  -0.012322  4.284003  -0.009
C  C152  1  0.03041703  0.05984558  0.59005470  1  -0.043751  -0.006836  -0.092521  -0.232148  -0.007673  3.927062  -0.003
C  C153  1  0.99562128  0.98928145  0.54959339  1  -0.007302  -0.008298  -0.078446  -0.048106  -0.009147  4.04253  -0.004
C  C154  1  0.88630539  0.85478547  0.03884899  1  1.516959  -0.007627  0.203699  0.605294  -0.008474  4.204974  -0.002
C  C155  1  0.17850367  0.66638044  0.38326585  1  -0.037462  0.004589  -0.08739  -0.130155  0.002202  4.014897  0.004
N  N156  1  0.41102487  0.67770630  0.62313084  1  -1.193234  0.051234  -0.314393  -0.236804  0.027054  3.549575  0.048
N  N157  1  0.63298170  0.39733021  0.62733270  1  -1.197259  0.050091  -0.318417  -0.240256  0.026506  3.57837  0.047
N  N158  1  0.14000344  0.89479703  0.13056626  1  -1.209741  0.050455  -0.322417  -0.243994  0.026853  3.590224  0.047
N  N159  1  0.86617901  0.12001434  0.12697962  1  -1.224256  0.052036  -0.320964  -0.240428  0.027494  3.577447  0.049
N  N160  1  0.54019794  0.08887296  0.62680443  1  -0.76734  0.000613  -0.210077  -0.212263  0.000326  3.285878  0.0
N  N161  1  0.51009991  0.98454950  0.62950177  1  -0.762722  0.001031  -0.209403  -0.21659  0.00056  3.308049  0.001
N  N162  1  0.45141849  0.99928980  0.11702255  1  -0.744019  0.000608  -0.210197  -0.213234  0.000352  3.302712  0.0
N  N163  1  0.55602069  0.03341097  0.11142331  1  -0.74712  0.000705  -0.208286  -0.210291  0.000395  3.304571  0.001
N  N164  1  0.58898364  0.32230273  0.37684914  1  -1.192951  0.051229  -0.314304  -0.236893  0.027051  3.549589  0.048
N  N165  1  0.36702955  0.60268738  0.37266004  1  -1.197967  0.050093  -0.318452  -0.240304  0.026505  3.578572  0.047
N  N166  1  0.85997726  0.10524197  0.86941366  1  -1.208606  0.050426  -0.322496  -0.244012  0.026835  3.58994  0.047
N  N167  1  0.13383034  0.88003118  0.87299835  1  -1.223053  0.052059  -0.320819  -0.240095  0.027504  3.57687  0.049
N  N168  1  0.45982268  0.91112951  0.37321282  1  -0.766968  0.000613  -0.209967  -0.212163  0.000326  3.285641  0.0
N  N169  1  0.48991568  0.01545553  0.37051433  1  -0.761904  0.00103  -0.209478  -0.216479  0.00056  3.308102  0.001
N  N170  1  0.54858023  0.00071837  0.88295979  1  -0.744625  0.000607  -0.210126  -0.213285  0.000352  3.302944  0.0
N  N171  1  0.44398886  0.96659134  0.88855874  1  -0.746507  0.000705  -0.208326  -0.210382  0.000395  3.305086  0.001
O  O172  1  0.61288271  0.58398636  0.71293177  1  -1.13534  0.082375  -0.31985  -0.538656  0.043039  2.17274  0.07
O  O173  1  0.47397270  0.46919467  0.77670711  1  -1.148892  0.071385  -0.321232  -0.56505  0.036828  2.181928  0.062
O  O174  1  0.40827352  0.47388787  0.58280808  1  -1.16641  0.099976  -0.315715  -0.572387  0.052306  2.542401  0.084
O  O175  1  0.37927309  0.37136658  0.49098773  1  -1.126839  0.093696  -0.308355  -0.534609  0.049067  2.329099  0.079
O  O176  1  0.03322653  0.04981214  0.25262618  1  -1.141435  0.0814  -0.314904  -0.538557  0.042233  2.182833  0.07
O  O177  1  0.94196491  0.89659536  0.27391906  1  -1.149252  0.076737  -0.316865  -0.556925  0.039381  2.216533  0.067
O  O178  1  0.09711480  0.13746732  0.04847841  1  -1.141238  0.090003  -0.311332  -0.54167  0.047449  2.30251  0.075
O  O179  1  0.07687671  0.07455599  0.92951919  1  -1.179635  0.094246  -0.317046  -0.585382  0.050131  2.535113  0.079
O  O180  1  0.38712081  0.41602841  0.28705028  1  -1.135264  0.082368  -0.319788  -0.538486  0.043036  2.17276  0.07
O  O181  1  0.52602665  0.53081857  0.22327264  1  -1.14872  0.071371  -0.321097  -0.564996  0.03682  2.182189  0.062
O  O182  1  0.59171743  0.52607729  0.41723556  1  -1.166692  0.099966  -0.31556  -0.572184  0.0523  2.542358  0.084
O  O183  1  0.62071437  0.62865506  0.50901101  1  -1.127059  0.093727  -0.308296  -0.534582  0.049081  2.328977  0.079
O  O184  1  0.96685463  0.95015011  0.74735290  1  -1.142525  0.081416  -0.314767  -0.538724  0.042237  2.183111  0.07
O  O185  1  0.05802651  0.10344551  0.72601328  1  -1.149506  0.076678  -0.317097  -0.557175  0.039338  2.216305  0.067
O  O186  1  0.90285161  0.86246822  0.95150400  1  -1.142378  0.089944  -0.31127  -0.54164  0.04742  2.302066  0.075
O  O187  1  0.92310170  0.92546359  0.07042998  1  -1.179387  0.094226  -0.316816  -0.585041  0.050127  2.535116  0.079
