# generated using pymatgen
data_CdH8C12(IN)2
_symmetry_space_group_name_H-M   'P 1'
_cell_length_a   7.62602609
_cell_length_b   9.90504060
_cell_length_c   9.90506160
_cell_angle_alpha   68.33951555
_cell_angle_beta   77.37494028
_cell_angle_gamma   77.37467943
_symmetry_Int_Tables_number   1
_chemical_formula_structural   CdH8C12(IN)2
_chemical_formula_sum   'Cd2 H16 C24 I4 N4'
_cell_volume   670.65530860
_cell_formula_units_Z   2
loop_
 _symmetry_equiv_pos_site_id
 _symmetry_equiv_pos_as_xyz
  1  'x, y, z'
loop_
 _atom_site_type_symbol
 _atom_site_label
 _atom_site_symmetry_multiplicity
 _atom_site_fract_x
 _atom_site_fract_y
 _atom_site_fract_z
 _atom_site_occupancy
 _atom_site_pbe_bader_spin_density
 _atom_site_pbe_cm5_charge
 _atom_site_pbe_ddec_charge
 _atom_site_pbe_ddec_spin_density
 _atom_site_pbe_ddec_sum_bond_order
 _atom_site_pbe_magmom
Cd  Cd0  1  0.74999787  0.57632497  0.42367416  1  0  0.480392  0.562456  0  2.552309  0
Cd  Cd1  1  0.24999806  0.42367362  0.57632581  1  0  0.48038  0.562411  0  2.552322  0
H  H2  1  0.07900462  0.49569654  0.17059463  1  0  0.095686  0.070284  0  1.047188  0
H  H3  1  0.42098957  0.82940166  0.50430294  1  0  0.095675  0.070273  0  1.047171  0
H  H4  1  0.92099129  0.50430204  0.82940333  1  0  0.095676  0.070283  0  1.047202  0
H  H5  1  0.57900657  0.17059584  0.49569740  1  0  0.095706  0.070299  0  1.047232  0
H  H6  1  0.20471451  0.60611660  0.90264121  1  0  0.088921  0.108112  0  1.047136  0
H  H7  1  0.29528087  0.09735566  0.39388240  1  0  0.088912  0.10807  0  1.047181  0
H  H8  1  0.79528182  0.39387978  0.09735650  1  0  0.08891  0.108107  0  1.047136  0
H  H9  1  0.70471816  0.90264074  0.60611684  1  0  0.088919  0.108104  0  1.047166  0
H  H10  1  0.07601673  0.86316856  0.76329787  1  0  0.104257  0.112097  0  0.989847  0
H  H11  1  0.42397933  0.23670406  0.13683459  1  0  0.10424  0.112065  0  0.989868  0
H  H12  1  0.92398482  0.13682899  0.23670555  1  0  0.104277  0.112099  0  0.989834  0
H  H13  1  0.57602001  0.76329786  0.86316555  1  0  0.104255  0.112076  0  0.989856  0
H  H14  1  0.63156586  0.23236499  0.90339902  1  0  0.085838  0.101721  0  1.054479  0
H  H15  1  0.86843451  0.09660648  0.76763998  1  0  0.085826  0.10171  0  1.054444  0
H  H16  1  0.36844000  0.76763807  0.09660157  1  0  0.085833  0.101719  0  1.05451  0
H  H17  1  0.13157138  0.90339661  0.23236362  1  0  0.085807  0.101671  0  1.054453  0
C  C18  1  0.02616897  0.60727268  0.10527396  1  0  0.049496  0.108162  0  3.94468  0
C  C19  1  0.47382713  0.89472559  0.39272810  1  0  0.049537  0.108171  0  3.944697  0
C  C20  1  0.97382518  0.39272811  0.89472448  1  0  0.049519  0.108155  0  3.944767  0
C  C21  1  0.52617281  0.10527300  0.60726915  1  0  0.049428  0.108093  0  3.944758  0
C  C22  1  0.09551730  0.66937277  0.95593260  1  0  -0.086347  -0.121161  0  3.973013  0
C  C23  1  0.40448030  0.04406647  0.33062829  1  0  -0.086366  -0.121131  0  3.973056  0
C  C24  1  0.90448555  0.33062475  0.04406656  1  0  -0.086355  -0.121187  0  3.973042  0
C  C25  1  0.59551697  0.95593213  0.66937144  1  0  -0.086339  -0.121168  0  3.973166  0
C  C26  1  0.02502207  0.81157438  0.87931901  1  0  -0.064457  -0.069128  0  3.921366  0
C  C27  1  0.47497352  0.12068229  0.18842783  1  0  -0.064449  -0.069088  0  3.921422  0
C  C28  1  0.97497789  0.18842424  0.12068125  1  0  -0.064459  -0.06916  0  3.921332  0
C  C29  1  0.52502736  0.87931852  0.81157044  1  0  -0.064443  -0.069057  0  3.92138  0
C  C30  1  0.88741496  0.89213499  0.95273137  1  0  -0.001611  0.043237  0  4.005399  0
C  C31  1  0.61258297  0.04727202  0.10786960  1  0  -0.001628  0.043218  0  4.005377  0
C  C32  1  0.11258884  0.10786475  0.04726982  1  0  -0.001657  0.04326  0  4.005273  0
C  C33  1  0.38742045  0.95272995  0.89213485  1  0  -0.001632  0.043228  0  4.005321  0
C  C34  1  0.82194681  0.81913455  0.10297405  1  0  0.114812  0.123836  0  3.952509  0
C  C35  1  0.67805261  0.89702720  0.18086740  1  0  0.114812  0.123825  0  3.952529  0
C  C36  1  0.17805524  0.18086740  0.89702762  1  0  0.114813  0.123837  0  3.952448  0
C  C37  1  0.32194848  0.10297253  0.81913225  1  0  0.114743  0.123737  0  3.952535  0
C  C38  1  0.81545200  0.04233115  0.88261231  1  0  -0.089544  -0.114838  0  3.976516  0
C  C39  1  0.68454454  0.11739164  0.95767282  1  0  -0.08948  -0.114719  0  3.976531  0
C  C40  1  0.18454693  0.95767298  0.11738908  1  0  -0.089482  -0.114709  0  3.976339  0
C  C41  1  0.31545905  0.88260921  0.04232799  1  0  -0.08949  -0.114822  0  3.976516  0
I  I42  1  0.01503594  0.70615294  0.52270060  1  0  -0.209277  -0.394734  0  1.485144  0
I  I43  1  0.48496036  0.47729835  0.29384840  1  0  -0.209281  -0.394729  0  1.485137  0
I  I44  1  0.98496069  0.29384896  0.47729800  1  0  -0.209285  -0.394733  0  1.485155  0
I  I45  1  0.51503671  0.52270136  0.70615195  1  0  -0.209286  -0.394757  0  1.48516  0
N  N46  1  0.89206142  0.67886469  0.17555260  1  0  -0.327969  -0.24883  0  3.521697  0
N  N47  1  0.60793670  0.82444796  0.32113520  1  0  -0.327984  -0.248842  0  3.521718  0
N  N48  1  0.10793587  0.32113393  0.82444914  1  0  -0.327959  -0.248797  0  3.521703  0
N  N49  1  0.39206285  0.17555287  0.67886531  1  0  -0.327891  -0.248723  0  3.521687  0
