# generated using pymatgen
data_CdH12C9N2O5
_symmetry_space_group_name_H-M   'P 1'
_cell_length_a   8.39875009
_cell_length_b   10.28982085
_cell_length_c   16.24872155
_cell_angle_alpha   94.44451782
_cell_angle_beta   89.99924430
_cell_angle_gamma   89.99701661
_symmetry_Int_Tables_number   1
_chemical_formula_structural   CdH12C9N2O5
_chemical_formula_sum   'Cd4 H48 C36 N8 O20'
_cell_volume   1400.01828668
_cell_formula_units_Z   4
loop_
 _symmetry_equiv_pos_site_id
 _symmetry_equiv_pos_as_xyz
  1  'x, y, z'
loop_
 _atom_site_type_symbol
 _atom_site_label
 _atom_site_symmetry_multiplicity
 _atom_site_fract_x
 _atom_site_fract_y
 _atom_site_fract_z
 _atom_site_occupancy
 _atom_site_pbe_bader_charge
 _atom_site_pbe_bader_spin_density
 _atom_site_pbe_cm5_charge
 _atom_site_pbe_ddec_charge
 _atom_site_pbe_ddec_spin_density
 _atom_site_pbe_ddec_sum_bond_order
 _atom_site_pbe_magmom
Cd  Cd0  1  0.03174843  0.50547083  0.19169880  1  1.307847  0  0.770228  0.973614  0  2.087572  0
Cd  Cd1  1  0.53175404  0.49452700  0.30830573  1  1.307821  0  0.770211  0.973631  0  2.087489  0
Cd  Cd2  1  0.96825750  0.49454423  0.80829348  1  1.30755  0  0.770213  0.973571  0  2.087541  0
Cd  Cd3  1  0.46825190  0.50545922  0.69169452  1  1.307655  0  0.770188  0.973589  0  2.0875  0
H  H4  1  0.77808829  0.74626035  0.24456936  1  0.14708  0  0.12202  0.100721  0  0.996752  0
H  H5  1  0.27813154  0.25374413  0.25544504  1  0.147048  0  0.122072  0.100755  0  0.996928  0
H  H6  1  0.22189860  0.25374906  0.75544703  1  0.146999  0  0.122072  0.10078  0  0.996785  0
H  H7  1  0.72185892  0.74627860  0.74453571  1  0.147085  0  0.122026  0.10085  0  0.996909  0
H  H8  1  0.73967168  0.92350172  0.35828784  1  0.081736  0  0.118592  0.132666  0  0.982781  0
H  H9  1  0.23968671  0.07651323  0.14173201  1  0.082342  0  0.118563  0.132534  0  0.982851  0
H  H10  1  0.26031997  0.07649891  0.64173439  1  0.081959  0  0.11864  0.132739  0  0.982856  0
H  H11  1  0.76028351  0.92354065  0.85823855  1  0.08267  0  0.118633  0.132592  0  0.982727  0
H  H12  1  0.21811917  0.84639259  0.43981339  1  0.134572  0  0.112958  0.119899  0  1.033195  0
H  H13  1  0.71811853  0.15357999  0.06018918  1  0.134014  0  0.113013  0.119969  0  1.033293  0
H  H14  1  0.78188320  0.15360915  0.56020154  1  0.134269  0  0.112945  0.119946  0  1.03315  0
H  H15  1  0.28190051  0.84638557  0.93982365  1  0.134339  0  0.112941  0.119982  0  1.033242  0
H  H16  1  0.23908417  0.67696213  0.32235618  1  0.141983  0  0.113987  0.094102  0  1.053673  0
H  H17  1  0.73908715  0.32298443  0.17765312  1  0.142234  0  0.114044  0.094042  0  1.053622  0
H  H18  1  0.76093130  0.32305001  0.67764877  1  0.142553  0  0.114006  0.094032  0  1.053783  0
H  H19  1  0.26092951  0.67696015  0.82236793  1  0.141993  0  0.113993  0.094056  0  1.05364  0
H  H20  1  0.98843926  0.10194363  0.02687101  1  0.035057  0  0.091698  0.14135  0  1.026778  0
H  H21  1  0.48840626  0.89805738  0.47313107  1  0.034956  0  0.091733  0.14148  0  1.026878  0
H  H22  1  0.01154168  0.89807698  0.97311074  1  0.034921  0  0.091713  0.141301  0  1.026673  0
H  H23  1  0.51153776  0.10193364  0.52687651  1  0.034867  0  0.091731  0.141354  0  1.026797  0
H  H24  1  0.16930234  0.15509821  0.98190631  1  0.068801  0  0.09637  0.15053  0  1.003435  0
H  H25  1  0.66927643  0.84490453  0.51808689  1  0.069061  0  0.096374  0.150609  0  1.003443  0
H  H26  1  0.83068574  0.84493002  0.01808369  1  0.068482  0  0.096368  0.15062  0  1.003222  0
H  H27  1  0.33067355  0.15508219  0.48191651  1  0.068525  0  0.096371  0.150572  0  1.003175  0
H  H28  1  0.98646523  0.21157424  0.94603606  1  0.103925  0  0.099815  0.157431  0  0.997025  0
H  H29  1  0.48644483  0.78843260  0.55396749  1  0.104004  0  0.099782  0.15743  0  0.997017  0
H  H30  1  0.01352761  0.78845468  0.05395588  1  0.104466  0  0.099838  0.157436  0  0.997004  0
H  H31  1  0.51351943  0.21154382  0.44603231  1  0.10439  0  0.099795  0.157394  0  0.996935  0
H  H32  1  0.46798006  0.65270890  0.03646660  1  0.068237  0  0.096815  0.157971  0  0.988167  0
H  H33  1  0.96798676  0.34727004  0.46353339  1  0.068038  0  0.096799  0.157958  0  0.988114  0
H  H34  1  0.53207589  0.34725311  0.96352420  1  0.068938  0  0.096864  0.158085  0  0.98813  0
H  H35  1  0.03206323  0.65277551  0.53646593  1  0.068797  0  0.096888  0.158105  0  0.988075  0
H  H36  1  0.32551691  0.75080185  0.09333985  1  0.073155  0  0.099234  0.15095  0  1.00248  0
H  H37  1  0.82553609  0.24917675  0.40666295  1  0.073166  0  0.099209  0.15091  0  1.002321  0
H  H38  1  0.67451642  0.24915827  0.90663097  1  0.072821  0  0.099096  0.15085  0  1.002168  0
H  H39  1  0.17450914  0.75085049  0.59336590  1  0.073046  0  0.099077  0.15086  0  1.002176  0
H  H40  1  0.26714792  0.59543218  0.04725383  1  0.101608  0  0.100754  0.169332  0  1.017143  0
H  H41  1  0.76715317  0.40455928  0.45274695  1  0.101687  0  0.100737  0.169263  0  1.017125  0
H  H42  1  0.73289969  0.40451828  0.95272211  1  0.10142  0  0.100688  0.169241  0  1.017343  0
H  H43  1  0.23289682  0.59548335  0.54726504  1  0.101365  0  0.100704  0.169257  0  1.017312  0
H  H44  1  0.85167441  0.58708613  0.05190830  1  0.632547  0  0.28073  0.385993  0  0.960727  0
H  H45  1  0.35166612  0.41291333  0.44809575  1  0.632419  0  0.280753  0.386081  0  0.960621  0
H  H46  1  0.14832200  0.41292509  0.94808974  1  0.632562  0  0.280675  0.385958  0  0.960788  0
H  H47  1  0.64831005  0.58707091  0.55189810  1  0.63237  0  0.280726  0.386135  0  0.960533  0
H  H48  1  0.72847471  0.58929465  0.13073384  1  0.636032  0  0.284239  0.386995  0  0.956424  0
H  H49  1  0.22846726  0.41069986  0.36926293  1  0.635881  0  0.284249  0.386981  0  0.956416  0
H  H50  1  0.27153361  0.41070876  0.86927014  1  0.636028  0  0.284227  0.386972  0  0.956437  0
H  H51  1  0.77152677  0.58929371  0.63072144  1  0.636134  0  0.284273  0.387082  0  0.956297  0
C  C52  1  0.87297970  0.77243170  0.28857307  1  0.475824  0  0.054224  0.110002  0  3.928561  0
C  C53  1  0.37300290  0.22756186  0.21144793  1  0.4791  0  0.054106  0.109767  0  3.928808  0
C  C54  1  0.12699886  0.22758247  0.71144446  1  0.477857  0  0.053965  0.109555  0  3.92908  0
C  C55  1  0.62698280  0.77244608  0.78853924  1  0.479103  0  0.054203  0.109539  0  3.928476  0
C  C56  1  0.85173941  0.87040620  0.35175072  1  -0.009055  0  -0.069872  -0.176516  0  3.900801  0
C  C57  1  0.35176067  0.12958997  0.14826842  1  -0.012776  0  -0.069748  -0.176008  0  3.900868  0
C  C58  1  0.14825581  0.12959254  0.64827748  1  -0.012007  0  -0.069684  -0.176112  0  3.90077  0
C  C59  1  0.64821074  0.87044884  0.85171038  1  -0.013989  0  -0.069822  -0.175887  0  3.900593  0
C  C60  1  0.97578051  0.89718880  0.40816275  1  0.314717  0  0.100887  0.187084  0  4.044964  0
C  C61  1  0.47577672  0.10281920  0.09184401  1  0.315381  0  0.100894  0.18692  0  4.045124  0
C  C62  1  0.02422543  0.10281276  0.59185340  1  0.315121  0  0.100932  0.186966  0  4.045253  0
C  C63  1  0.52422088  0.89718916  0.90814692  1  0.31593  0  0.100954  0.186945  0  4.045306  0
C  C64  1  0.11849360  0.82717589  0.39789184  1  0.022329  0  -0.074469  -0.178569  0  3.911953  0
C  C65  1  0.61851088  0.17280193  0.10211101  1  0.022501  0  -0.074555  -0.178654  0  3.912066  0
C  C66  1  0.88150758  0.17282410  0.60212167  1  0.022914  0  -0.074633  -0.178933  0  3.912308  0
C  C67  1  0.38148554  0.82717916  0.89789054  1  0.022014  0  -0.074604  -0.178819  0  3.911958  0
C  C68  1  0.12978469  0.73255290  0.33262816  1  0.467156  0  0.045933  0.10484  0  3.929483  0
C  C69  1  0.62981124  0.26739763  0.16738079  1  0.466731  0  0.045828  0.104953  0  3.929616  0
C  C70  1  0.87021410  0.26744907  0.66737876  1  0.466354  0  0.046059  0.105267  0  3.929342  0
C  C71  1  0.37020661  0.73256031  0.83263677  1  0.466897  0  0.04582  0.10481  0  3.929844  0
C  C72  1  0.05662539  0.30014459  0.06496138  1  1.556839  0  0.195634  0.663814  0  4.163929  0
C  C73  1  0.55660591  0.69986082  0.43503493  1  1.555948  0  0.195745  0.664127  0  4.163384  0
C  C74  1  0.94336507  0.69986543  0.93503159  1  1.557123  0  0.195564  0.6636  0  4.164058  0
C  C75  1  0.44337384  0.30012924  0.56497254  1  1.556387  0  0.19567  0.663837  0  4.163567  0
C  C76  1  0.04857241  0.18427384  0.00162086  1  -0.134037  0  -0.248392  -0.525179  0  3.906974  0
C  C77  1  0.54854935  0.81572788  0.49837703  1  -0.133979  0  -0.248371  -0.525436  0  3.907291  0
C  C78  1  0.95141329  0.81574625  0.99837074  1  -0.134553  0  -0.24844  -0.525195  0  3.906729  0
C  C79  1  0.45140420  0.18426042  0.50162901  1  -0.134516  0  -0.248414  -0.525194  0  3.906802  0
C  C80  1  0.40915719  0.59095407  0.15695077  1  1.552871  0  0.21472  0.703977  0  4.094155  0
C  C81  1  0.90916712  0.40903822  0.34305716  1  1.553674  0  0.214505  0.703709  0  4.094575  0
C  C82  1  0.59086423  0.40904241  0.84304689  1  1.55354  0  0.214715  0.703954  0  4.094291  0
C  C83  1  0.09085787  0.59097153  0.65693763  1  1.553924  0  0.214625  0.704014  0  4.094309  0
C  C84  1  0.36533670  0.64993808  0.07793205  1  -0.132631  0  -0.247833  -0.535266  0  3.883767  0
C  C85  1  0.86534481  0.35003991  0.42207130  1  -0.132478  0  -0.247789  -0.535123  0  3.883427  0
C  C86  1  0.63470615  0.35002513  0.92205086  1  -0.132164  0  -0.24767  -0.535217  0  3.883569  0
C  C87  1  0.13469804  0.64998669  0.57793585  1  -0.132485  0  -0.247664  -0.535309  0  3.883632  0
N  N88  1  0.00950135  0.70479476  0.27905841  1  -1.213452  0  -0.318317  -0.244444  0  3.462862  0
N  N89  1  0.50952784  0.29517754  0.22094800  1  -1.213487  0  -0.318235  -0.244434  0  3.462835  0
N  N90  1  0.99049744  0.29522390  0.72094910  1  -1.213186  0  -0.318344  -0.244436  0  3.462899  0
N  N91  1  0.49046977  0.70480017  0.77905627  1  -1.213049  0  -0.318228  -0.244276  0  3.462802  0
N  N92  1  0.94647594  0.99534598  0.47251343  1  -0.505896  0  -0.131126  -0.117409  0  3.247827  0
N  N93  1  0.44648805  0.00466312  0.02749823  1  -0.506408  0  -0.131002  -0.117187  0  3.248336  0
N  N94  1  0.05351929  0.00465452  0.52750322  1  -0.422856  0  -0.13084  -0.117153  0  3.248088  0
N  N95  1  0.55349407  0.99535152  0.97249030  1  -0.422839  0  -0.130947  -0.117442  0  3.248648  0
O  O96  1  0.30156042  0.54815594  0.20333766  1  -1.178711  0  -0.326124  -0.592056  0  2.315107  0
O  O97  1  0.80156877  0.45180866  0.29666336  1  -1.17906  0  -0.325928  -0.591874  0  2.3152  0
O  O98  1  0.69844552  0.45182820  0.79665680  1  -1.179227  0  -0.326079  -0.591998  0  2.315437  0
O  O99  1  0.19843836  0.54817331  0.70333890  1  -1.179269  0  -0.32602  -0.59197  0  2.315061  0
O  O100  1  0.12052175  0.40586363  0.04504498  1  -1.19388  0  -0.326779  -0.579384  0  2.207188  0
O  O101  1  0.62051547  0.59414582  0.45495016  1  -1.193702  0  -0.326871  -0.579574  0  2.207254  0
O  O102  1  0.87946157  0.59415342  0.95495369  1  -1.193764  0  -0.326699  -0.579241  0  2.207102  0
O  O103  1  0.37946427  0.40583781  0.54504116  1  -1.193301  0  -0.32671  -0.579277  0  2.207016  0
O  O104  1  0.99896420  0.28912271  0.13662404  1  -1.162233  0  -0.33462  -0.573013  0  2.177217  0
O  O105  1  0.49893326  0.71088128  0.36336707  1  -1.161761  0  -0.334659  -0.573089  0  2.176577  0
O  O106  1  0.00102507  0.71088569  0.86337307  1  -1.162305  0  -0.33465  -0.572949  0  2.177295  0
O  O107  1  0.50105125  0.28911672  0.63664003  1  -1.161845  0  -0.334739  -0.573145  0  2.176882  0
O  O108  1  0.55517684  0.58715496  0.17853150  1  -1.179525  0  -0.316072  -0.565495  0  2.246183  0
O  O109  1  0.05518141  0.41282294  0.32147110  1  -1.180023  0  -0.316026  -0.565369  0  2.246462  0
O  O110  1  0.44483386  0.41282946  0.82147412  1  -1.180372  0  -0.316119  -0.565513  0  2.246056  0
O  O111  1  0.94483643  0.58718615  0.67851496  1  -1.180236  0  -0.31604  -0.565488  0  2.245998  0
O  O112  1  0.84244737  0.59265146  0.11408319  1  -1.25425  0  -0.605367  -0.804065  0  2.1226  0
O  O113  1  0.34244041  0.40734776  0.38591974  1  -1.254052  0  -0.605394  -0.804156  0  2.122563  0
O  O114  1  0.15755499  0.40736152  0.88591628  1  -1.254185  0  -0.605338  -0.804065  0  2.122599  0
O  O115  1  0.65754886  0.59263560  0.61407340  1  -1.254151  0  -0.605417  -0.804317  0  2.122447  0
