# generated using pymatgen
data_TiH18C22(NO2)2
_symmetry_space_group_name_H-M   'P 1'
_cell_length_a   8.31220483
_cell_length_b   10.28018554
_cell_length_c   11.02033304
_cell_angle_alpha   90.95201052
_cell_angle_beta   91.72827234
_cell_angle_gamma   91.50938254
_symmetry_Int_Tables_number   1
_chemical_formula_structural   TiH18C22(NO2)2
_chemical_formula_sum   'Ti2 H36 C44 N4 O8'
_cell_volume   940.80075625
_cell_formula_units_Z   2
loop_
 _symmetry_equiv_pos_site_id
 _symmetry_equiv_pos_as_xyz
  1  'x, y, z'
loop_
 _atom_site_type_symbol
 _atom_site_label
 _atom_site_symmetry_multiplicity
 _atom_site_fract_x
 _atom_site_fract_y
 _atom_site_fract_z
 _atom_site_occupancy
 _atom_site_pbe_bader_spin_density
 _atom_site_pbe_cm5_charge
 _atom_site_pbe_ddec_charge
 _atom_site_pbe_ddec_spin_density
 _atom_site_pbe_ddec_sum_bond_order
 _atom_site_pbe_magmom
Ti  Ti0  1  0.00000207  0.50000343  0.99999859  1  0  1.489539  1.805375  0  2.888518  0
Ti  Ti1  1  0.99999750  0.99999726  0.49999838  1  0  1.476574  1.78374  0  2.850487  0
H  H2  1  0.21716034  0.39031839  0.28432815  1  0  0.095937  0.111664  0  1.026404  0
H  H3  1  0.78284908  0.60968544  0.71567268  1  0  0.095947  0.111694  0  1.026387  0
H  H4  1  0.25993134  0.41762752  0.50818129  1  0  0.08988  0.080746  0  1.040702  0
H  H5  1  0.74006825  0.58237048  0.49181925  1  0  0.089896  0.080801  0  1.040652  0
H  H6  1  0.19088950  0.62590532  0.61248557  1  0  0.095571  0.107875  0  1.035351  0
H  H7  1  0.80910161  0.37409074  0.38751750  1  0  0.095581  0.107938  0  1.035321  0
H  H8  1  0.02902370  0.77743064  0.26959291  1  0  0.103384  0.142205  0  1.037394  0
H  H9  1  0.97096633  0.22256833  0.73041381  1  0  0.103398  0.142223  0  1.037358  0
H  H10  1  0.20174560  0.52109544  0.77260162  1  0  0.122204  0.091002  0  1.019141  0
H  H11  1  0.79825532  0.47890645  0.22739810  1  0  0.122229  0.091029  0  1.019159  0
H  H12  1  0.46269736  0.44358203  0.68993398  1  0  0.107974  0.113104  0  1.011286  0
H  H13  1  0.53730503  0.55642764  0.31006680  1  0  0.107971  0.113122  0  1.011295  0
H  H14  1  0.63321410  0.30056330  0.81933326  1  0  0.108321  0.105386  0  1.030163  0
H  H15  1  0.36679051  0.69944054  0.18066748  1  0  0.108307  0.105372  0  1.030177  0
H  H16  1  0.54126109  0.24319235  0.02699906  1  0  0.107142  0.112101  0  1.017605  0
H  H17  1  0.45874001  0.75681440  0.97300256  1  0  0.107111  0.112082  0  1.017598  0
H  H18  1  0.27680289  0.32972159  0.09501704  1  0  0.12278  0.089916  0  1.004826  0
H  H19  1  0.72319934  0.67028322  0.90498276  1  0  0.122796  0.089928  0  1.004799  0
H  H20  1  0.27851433  0.18281401  0.59039274  1  0  0.121351  0.090866  0  1.004057  0
H  H21  1  0.72147547  0.81718010  0.40960119  1  0  0.121353  0.090856  0  1.00399  0
H  H22  1  0.55442922  0.26075696  0.52969966  1  0  0.105036  0.108681  0  1.031857  0
H  H23  1  0.44555956  0.73924202  0.47029796  1  0  0.105073  0.1087  0  1.031825  0
H  H24  1  0.66382686  0.17428157  0.33577604  1  0  0.110279  0.108918  0  1.022023  0
H  H25  1  0.33617032  0.82571643  0.66422446  1  0  0.110306  0.108974  0  1.02199  0
H  H26  1  0.49187573  0.01908586  0.20713799  1  0  0.106275  0.110926  0  1.018147  0
H  H27  1  0.50812860  0.98091019  0.79285989  1  0  0.106311  0.110992  0  1.018121  0
H  H28  1  0.21614581  0.95590545  0.27840437  1  0  0.121592  0.089573  0  1.018266  0
H  H29  1  0.78385248  0.04409061  0.72158886  1  0  0.121605  0.08961  0  1.018256  0
H  H30  1  0.17928421  0.80369849  0.08277234  1  0  0.097217  0.114501  0  1.045071  0
H  H31  1  0.82072269  0.19630242  0.91722658  1  0  0.097228  0.114558  0  1.04511  0
H  H32  1  0.27355232  0.03426205  0.05077005  1  0  0.089788  0.080531  0  1.034113  0
H  H33  1  0.72645705  0.96574081  0.94922804  1  0  0.089798  0.08061  0  1.034019  0
H  H34  1  0.22342470  0.13895409  0.85123007  1  0  0.091617  0.106744  0  1.039544  0
H  H35  1  0.77658341  0.86104682  0.14876978  1  0  0.091588  0.106767  0  1.039523  0
H  H36  1  0.99127019  0.78353885  0.71463315  1  0  0.102435  0.135356  0  1.033631  0
H  H37  1  0.00873194  0.21646304  0.28536932  1  0  0.102392  0.135318  0  1.033657  0
C  C38  1  0.12232779  0.58312940  0.26219475  1  0  0.074845  0.375736  0  4.150845  0
C  C39  1  0.87767201  0.41687443  0.73780771  1  0  0.074851  0.375763  0  4.150711  0
C  C40  1  0.18767415  0.48082858  0.33017926  1  0  -0.121969  -0.247272  0  3.980879  0
C  C41  1  0.81232802  0.51917428  0.66982232  1  0  -0.122017  -0.247409  0  3.981084  0
C  C42  1  0.21190963  0.49746354  0.45548619  1  0  -0.103036  -0.053515  0  4.101233  0
C  C43  1  0.78809241  0.50253542  0.54451714  1  0  -0.103053  -0.053552  0  4.101218  0
C  C44  1  0.17355549  0.61274181  0.51476645  1  0  -0.123285  -0.243216  0  3.990283  0
C  C45  1  0.82644045  0.38725423  0.48523853  1  0  -0.123231  -0.243203  0  3.990236  0
C  C46  1  0.10776755  0.71530593  0.44765673  1  0  0.076791  0.384345  0  4.125532  0
C  C47  1  0.89222229  0.28468818  0.55234627  1  0  0.076758  0.384313  0  4.125647  0
C  C48  1  0.08181992  0.69937166  0.32169736  1  0  -0.131897  -0.373511  0  3.909928  0
C  C49  1  0.91817734  0.30062828  0.67830498  1  0  -0.131954  -0.373609  0  3.909858  0
C  C50  1  0.28114869  0.45895944  0.82475391  1  0  0.054034  0.11171  0  3.93482  0
C  C51  1  0.71885107  0.54104342  0.17524762  1  0  0.05402  0.111676  0  3.934717  0
C  C52  1  0.42458655  0.41455395  0.77953139  1  0  -0.082429  -0.133205  0  3.958189  0
C  C53  1  0.57541423  0.58544405  0.22046736  1  0  -0.082442  -0.13323  0  3.958149  0
C  C54  1  0.51982002  0.33549228  0.85220452  1  0  -0.059668  -0.011523  0  3.926117  0
C  C55  1  0.48018090  0.66450961  0.14779430  1  0  -0.059647  -0.011546  0  3.926102  0
C  C56  1  0.46884358  0.30395867  0.96778572  1  0  -0.078514  -0.12066  0  3.945744  0
C  C57  1  0.53115362  0.69604030  0.03221297  1  0  -0.078506  -0.120606  0  3.945669  0
C  C58  1  0.32386154  0.35206153  0.00635246  1  0  0.055459  0.110405  0  3.939395  0
C  C59  1  0.67613928  0.64793744  0.99364631  1  0  0.055465  0.110369  0  3.939444  0
C  C60  1  0.33042282  0.15130075  0.50543144  1  0  0.051939  0.105324  0  3.942402  0
C  C61  1  0.66957304  0.84869433  0.49456535  1  0  0.051901  0.1053  0  3.942235  0
C  C62  1  0.48270710  0.19328514  0.47156501  1  0  -0.081149  -0.123582  0  3.950017  0
C  C63  1  0.51728520  0.80671091  0.52843535  1  0  -0.081226  -0.123666  0  3.950005  0
C  C64  1  0.54308724  0.14597713  0.36306076  1  0  -0.058449  -0.007227  0  3.908102  0
C  C65  1  0.45690751  0.85402087  0.63693605  1  0  -0.058448  -0.007234  0  3.90809  0
C  C66  1  0.44748892  0.05941377  0.29149550  1  0  -0.083848  -0.133389  0  3.956452  0
C  C67  1  0.55250945  0.94058423  0.70850230  1  0  -0.083894  -0.133478  0  3.95666  0
C  C68  1  0.29553854  0.02304380  0.33082254  1  0  0.051901  0.107537  0  3.941987  0
C  C69  1  0.70445729  0.97695030  0.66917514  1  0  0.051852  0.107473  0  3.942231  0
C  C70  1  0.08261896  0.77903457  0.90003818  1  0  0.075917  0.384548  0  4.12225  0
C  C71  1  0.91738799  0.22096731  0.09996348  1  0  0.076016  0.384704  0  4.122305  0
C  C72  1  0.16261864  0.85024432  0.99552092  1  0  -0.122443  -0.247237  0  3.981127  0
C  C73  1  0.83739431  0.14975756  0.00447723  1  0  -0.122501  -0.247397  0  3.981437  0
C  C74  1  0.21382442  0.97837247  0.97649238  1  0  -0.103009  -0.054186  0  4.10001  0
C  C75  1  0.78618622  0.02163234  0.02350486  1  0  -0.10302  -0.0543  0  4.100079  0
C  C76  1  0.18610211  0.03819603  0.86540175  1  0  -0.12522  -0.244098  0  3.989186  0
C  C77  1  0.81390239  0.96180489  0.13459803  1  0  -0.125185  -0.24407  0  3.989111  0
C  C78  1  0.10396106  0.96829774  0.77012496  1  0  0.073298  0.367374  0  4.13878  0
C  C79  1  0.89604344  0.03170318  0.22987391  1  0  0.073265  0.367279  0  4.138866  0
C  C80  1  0.05306996  0.83868801  0.78811012  1  0  -0.12869  -0.359702  0  3.914606  0
C  C81  1  0.94693572  0.16131192  0.21189148  1  0  -0.128701  -0.359711  0  3.914645  0
N  N82  1  0.23173797  0.42826446  0.93618873  1  0  -0.379053  -0.338883  0  3.585384  0
N  N83  1  0.76826057  0.57173841  0.06381005  1  0  -0.379056  -0.338845  0  3.585371  0
N  N84  1  0.23817427  0.06743529  0.43642908  1  0  -0.379103  -0.340406  0  3.580034  0
N  N85  1  0.76182270  0.93255687  0.56356859  1  0  -0.378994  -0.34026  0  3.579844  0
O  O86  1  0.10165662  0.57499850  0.14181235  1  0  -0.436141  -0.660035  0  2.474889  0
O  O87  1  0.89833835  0.42500436  0.85819271  1  0  -0.436129  -0.659973  0  2.474714  0
O  O88  1  0.07380383  0.82664515  0.50460984  1  0  -0.432136  -0.646593  0  2.438531  0
O  O89  1  0.92618849  0.17335090  0.49539415  1  0  -0.432098  -0.646519  0  2.438525  0
O  O90  1  0.03274707  0.65540578  0.91270080  1  0  -0.436965  -0.655698  0  2.449856  0
O  O91  1  0.96724795  0.34459903  0.08730249  1  0  -0.436931  -0.655635  0  2.449813  0
O  O92  1  0.07206640  0.02723136  0.66502800  1  0  -0.429035  -0.647742  0  2.451442  0
O  O93  1  0.92793452  0.97277052  0.33497173  1  0  -0.429031  -0.647717  0  2.451545  0
