# generated using pymatgen
data_CuH8C9NClO4
_symmetry_space_group_name_H-M   'P 1'
_cell_length_a   6.41938160
_cell_length_b   8.27002767
_cell_length_c   19.05549559
_cell_angle_alpha   89.99974204
_cell_angle_beta   94.33145144
_cell_angle_gamma   89.99971567
_symmetry_Int_Tables_number   1
_chemical_formula_structural   CuH8C9NClO4
_chemical_formula_sum   'Cu4 H32 C36 N4 Cl4 O16'
_cell_volume   1008.73759882
_cell_formula_units_Z   4
loop_
 _symmetry_equiv_pos_site_id
 _symmetry_equiv_pos_as_xyz
  1  'x, y, z'
loop_
 _atom_site_type_symbol
 _atom_site_label
 _atom_site_symmetry_multiplicity
 _atom_site_fract_x
 _atom_site_fract_y
 _atom_site_fract_z
 _atom_site_occupancy
 _atom_site_hle17_ddec_charge
 _atom_site_hle17_ddec_spin_density
 _atom_site_hle17_ddec_sum_bond_order
 _atom_site_hle17_magmom
 _atom_site_hse06_10hf_ddec_charge
 _atom_site_hse06_10hf_ddec_spin_density
 _atom_site_hse06_10hf_ddec_sum_bond_order
 _atom_site_hse06_10hf_magmom
 _atom_site_hse06_ddec_charge
 _atom_site_hse06_ddec_spin_density
 _atom_site_hse06_ddec_sum_bond_order
 _atom_site_hse06_magmom
 _atom_site_pbe_cm5_charge
 _atom_site_pbe_ddec_charge
 _atom_site_pbe_ddec_spin_density
 _atom_site_pbe_ddec_sum_bond_order
 _atom_site_pbe_magmom
Cu  Cu0  1  0.28213370  0.30862743  0.20201401  1  0.809592  0.674565  1.917671  0.477  0.799893  0.784478  2.320567  0.621  0.89722  0.871211  2.242169  0.716  0.675373  0.737652  0.700564  2.37716  0.541
Cu  Cu1  1  0.28214092  0.19136423  0.70201295  1  0.809584  0.674564  1.9176  0.477  0.799883  0.78451  2.320602  0.621  0.897154  0.871212  2.242148  0.716  0.675358  0.737564  0.700571  2.377171  0.541
Cu  Cu2  1  0.71786750  0.69136487  0.79798530  1  0.809668  -0.674578  1.917606  -0.477  0.799894  -0.784487  2.320569  -0.621  0.897204  -0.87121  2.242175  -0.716  0.675376  0.737608  -0.700584  2.37717  -0.541
Cu  Cu3  1  0.71786496  0.80863291  0.29798649  1  0.809592  -0.674568  1.917666  -0.477  0.799881  -0.784492  2.320672  -0.621  0.897186  -0.871206  2.242237  -0.716  0.675342  0.737582  -0.70057  2.377236  -0.541
H  H4  1  0.61673767  0.47083680  0.16765688  1  0.355844  -2.6e-05  0.906377  0.001  0.328386  0.000328  0.990813  0.001  0.339181  0.000276  0.978652  0.001  0.289341  0.320558  0.000365  0.999576  0.001
H  H5  1  0.61674294  0.02915509  0.66765296  1  0.355681  -2.6e-05  0.906742  0.001  0.328249  0.000329  0.991112  0.001  0.339041  0.000276  0.978956  0.001  0.289215  0.320425  0.000365  0.999861  0.001
H  H6  1  0.38326189  0.52914583  0.83234605  1  0.355728  2.6e-05  0.90657  -0.001  0.328307  -0.000328  0.990933  -0.001  0.3391  -0.000276  0.97878  -0.001  0.289309  0.320483  -0.000365  0.999679  -0.001
H  H7  1  0.38324732  0.97084325  0.33234604  1  0.355729  2.6e-05  0.906612  -0.001  0.328304  -0.000329  0.990974  -0.001  0.3391  -0.000276  0.978812  -0.001  0.28926  0.320475  -0.000365  0.999719  -0.001
H  H8  1  0.11718982  0.37777276  0.92615494  1  0.113234  0.000199  0.95955  0.0  0.119324  4.1e-05  1.025858  0.0  0.124208  4.2e-05  1.021554  0.0  0.104726  0.115682  3.7e-05  1.029065  0.0
H  H9  1  0.11719176  0.12223068  0.42615244  1  0.113311  0.0002  0.959462  0.0  0.119332  4.1e-05  1.025842  0.0  0.124216  4.2e-05  1.021537  0.0  0.104746  0.115689  3.6e-05  1.029049  0.0
H  H10  1  0.88279411  0.62223647  0.07384756  1  0.113345  -0.000202  0.959461  0.0  0.119373  -4.1e-05  1.02583  0.0  0.124256  -4.2e-05  1.021525  0.0  0.104768  0.115736  -3.6e-05  1.029035  0.0
H  H11  1  0.88280007  0.87777613  0.57384608  1  0.113275  -0.0002  0.95949  0.0  0.119326  -4.1e-05  1.025854  0.0  0.124211  -4.2e-05  1.021545  0.0  0.104733  0.115689  -3.6e-05  1.029063  0.0
H  H12  1  0.78481078  0.25448068  0.87884408  1  0.108742  9.1e-05  0.969431  0.0  0.118248  0.000387  1.030856  0.0  0.122637  0.000303  1.028285  0.0  0.092882  0.115087  0.000426  1.032924  0.0
H  H13  1  0.78481340  0.24553149  0.37884344  1  0.108684  9.1e-05  0.969502  0.0  0.118188  0.000387  1.030931  0.0  0.122581  0.000303  1.028354  0.0  0.092857  0.115029  0.000426  1.032998  0.0
H  H14  1  0.21515907  0.74555152  0.12115961  1  0.108695  -9e-05  0.969505  0.0  0.118207  -0.000387  1.030908  0.0  0.122593  -0.000303  1.028342  0.0  0.092888  0.115051  -0.000426  1.032976  0.0
H  H15  1  0.21518152  0.75448016  0.62115727  1  0.108774  -9e-05  0.96944  0.0  0.118274  -0.000387  1.030862  0.0  0.122662  -0.000303  1.028291  0.0  0.092892  0.115117  -0.000426  1.03293  0.0
H  H16  1  0.58360225  0.08130837  0.95627039  1  0.086198  0.0003  0.954245  0.001  0.098962  0.0001  1.013151  0.0  0.101305  6.3e-05  1.011536  0.0  0.10077  0.097312  0.00013  1.014282  0.0
H  H17  1  0.58360367  0.41869901  0.45626988  1  0.086203  0.000303  0.954223  0.001  0.098942  0.0001  1.013182  0.0  0.101287  6.3e-05  1.011564  0.0  0.100744  0.097305  0.00013  1.014297  0.0
H  H18  1  0.41637074  0.91871416  0.04373234  1  0.086284  -0.0003  0.954245  -0.001  0.098977  -0.0001  1.013248  0.0  0.101328  -6.3e-05  1.011615  0.0  0.100759  0.09734  -0.00013  1.014366  0.0
H  H19  1  0.41639123  0.58131264  0.54373135  1  0.08624  -0.0003  0.954225  -0.001  0.099002  -0.0001  1.013137  0.0  0.101344  -6.3e-05  1.011526  0.0  0.100785  0.097368  -0.00013  1.014256  0.0
H  H20  1  0.70844040  0.03942373  0.08107301  1  0.10808  -0.000208  0.967424  0.0  0.120468  -6e-06  1.028086  0.0  0.12349  -3e-06  1.026809  0.0  0.10644  0.11833  -3e-06  1.029039  0.0
H  H21  1  0.70844263  0.46057590  0.58107283  1  0.108073  -0.000209  0.967392  0.0  0.120459  -6e-06  1.028056  0.0  0.123482  -3e-06  1.026777  0.0  0.106434  0.118324  -3e-06  1.029014  0.0
H  H22  1  0.29155295  0.96058187  0.91892818  1  0.108023  0.000206  0.96748  0.0  0.120461  6e-06  1.028093  0.0  0.123485  3e-06  1.026813  0.0  0.106433  0.118323  3e-06  1.029049  0.0
H  H23  1  0.29155535  0.53941882  0.41893111  1  0.108037  0.000208  0.967471  0.0  0.12048  6e-06  1.028082  0.0  0.123503  3e-06  1.026799  0.0  0.106458  0.118342  3e-06  1.029034  0.0
H  H24  1  0.37205275  0.42362176  0.00844981  1  0.098908  0.004554  0.929475  0.006  0.110602  0.003115  0.992406  0.004  0.11245  0.002325  0.988169  0.003  0.130019  0.108905  0.003536  0.995699  0.005
H  H25  1  0.37206081  0.07638834  0.50844692  1  0.099018  0.004555  0.929402  0.006  0.110676  0.003115  0.992354  0.004  0.112521  0.002325  0.988125  0.003  0.130102  0.108982  0.003536  0.995651  0.005
H  H26  1  0.62795155  0.57638143  0.99155011  1  0.098943  -0.004555  0.929489  -0.006  0.110628  -0.003114  0.992424  -0.004  0.112476  -0.002325  0.988187  -0.003  0.130032  0.108929  -0.003535  0.995716  -0.005
H  H27  1  0.62794355  0.92361847  0.49155038  1  0.098919  -0.004553  0.929443  -0.006  0.11057  -0.003115  0.992423  -0.004  0.112417  -0.002325  0.98819  -0.003  0.13003  0.108876  -0.003536  0.995718  -0.005
H  H28  1  0.92307836  0.94949599  0.17504683  1  0.117241  0.000131  0.9417  0.0  0.126624  0.000108  1.004803  0.0  0.128993  9.2e-05  1.003663  0.0  0.114912  0.125051  0.000116  1.00569  0.0
H  H29  1  0.92307562  0.55049492  0.67504579  1  0.117245  0.00013  0.941721  0.0  0.126551  0.000108  1.004917  0.0  0.128922  9.2e-05  1.003776  0.0  0.114918  0.124983  0.000116  1.005796  0.0
H  H30  1  0.07694469  0.05048905  0.82495360  1  0.117112  -0.000126  0.941745  0.0  0.126365  -0.000108  1.005075  0.0  0.128735  -9.2e-05  1.003935  0.0  0.114878  0.124802  -0.000116  1.005941  0.0
H  H31  1  0.07694899  0.44950343  0.32495521  1  0.117223  -0.000134  0.941776  0.0  0.126431  -0.000108  1.005078  0.0  0.128803  -9.2e-05  1.003934  0.0  0.114897  0.124872  -0.000116  1.005945  0.0
H  H32  1  0.76993471  0.12844336  0.18677716  1  0.102172  -0.000305  0.937307  0.0  0.108404  -0.000171  1.010938  0.0  0.110172  -0.000145  1.009388  0.0  0.109513  0.10735  -0.000183  1.012169  0.0
H  H33  1  0.76994382  0.37154292  0.68677631  1  0.102207  -0.000302  0.937218  0.0  0.108437  -0.000171  1.010881  0.0  0.110206  -0.000145  1.009333  0.0  0.109513  0.107398  -0.000183  1.012101  0.0
H  H34  1  0.23007428  0.87153322  0.81322341  1  0.102076  0.000309  0.937295  0.0  0.108298  0.000171  1.011022  0.0  0.110067  0.000145  1.009475  0.0  0.109465  0.107259  0.000183  1.012238  0.0
H  H35  1  0.23006828  0.62846148  0.31322487  1  0.102081  0.000301  0.937357  0.0  0.108307  0.000171  1.011003  0.0  0.110077  0.000145  1.009454  0.0  0.109467  0.10726  0.000183  1.012227  0.0
C  C36  1  0.98303646  0.18720750  0.07468104  1  0.271377  -0.00532  3.712712  -0.006  0.256161  0.000142  3.967474  0.0  0.270384  -0.000676  3.983507  -0.001  0.096273  0.246405  0.000901  3.956586  0.001
C  C37  1  0.98304754  0.31278870  0.57468036  1  0.271287  -0.005338  3.713063  -0.006  0.25603  0.000142  3.967758  0.0  0.270254  -0.000677  3.983793  -0.001  0.09625  0.246269  0.000901  3.956866  0.001
C  C38  1  0.01696155  0.81278722  0.92532133  1  0.271456  0.005308  3.713025  0.006  0.256154  -0.000144  3.967681  0.0  0.270377  0.000675  3.983712  0.001  0.096275  0.246396  -0.000902  3.956785  -0.001
C  C39  1  0.01695519  0.68721448  0.42532056  1  0.271456  0.005335  3.713149  0.006  0.256236  -0.000142  3.967871  0.0  0.270458  0.000677  3.983905  0.001  0.096309  0.246474  -0.000901  3.956966  -0.001
C  C40  1  0.10318364  0.28268794  0.03114004  1  -0.067086  0.006833  3.801756  0.008  -0.051964  0.001444  4.043566  0.002  -0.063707  0.001593  4.069172  0.002  -0.01981  -0.044126  0.001338  4.026368  0.002
C  C41  1  0.10318757  0.21731211  0.53113831  1  -0.066998  0.006849  3.801844  0.008  -0.051874  0.001444  4.043598  0.002  -0.06362  0.001593  4.069205  0.002  -0.019765  -0.044036  0.001338  4.026391  0.002
C  C42  1  0.89681285  0.71731282  0.96886019  1  -0.06706  -0.006831  3.801955  -0.008  -0.051967  -0.001443  4.043788  -0.002  -0.063713  -0.001593  4.069395  -0.002  -0.01981  -0.044135  -0.001338  4.026576  -0.002
C  C43  1  0.89681367  0.78269349  0.46885837  1  -0.067109  -0.006842  3.801948  -0.008  -0.05198  -0.001443  4.043719  -0.002  -0.063726  -0.001593  4.069327  -0.002  -0.019799  -0.044137  -0.001338  4.026496  -0.002
C  C44  1  0.02766932  0.30353844  0.96029766  1  -0.068177  -0.007227  3.703703  -0.007  -0.09056  -0.001193  3.955354  -0.001  -0.087847  -0.001636  3.972866  -0.002  -0.078718  -0.092334  -0.00082  3.943711  -0.001
C  C45  1  0.02767542  0.19646503  0.46029617  1  -0.068233  -0.007248  3.703614  -0.007  -0.090577  -0.001193  3.955285  -0.001  -0.087857  -0.001635  3.972785  -0.002  -0.078751  -0.09235  -0.00082  3.943637  -0.001
C  C46  1  0.97231779  0.69647321  0.03970230  1  -0.068282  0.007241  3.703815  0.007  -0.090653  0.001192  3.955495  0.001  -0.087933  0.001636  3.972998  0.002  -0.07873  -0.092431  0.00082  3.943848  0.001
C  C47  1  0.97232578  0.80353816  0.53970261  1  -0.068271  0.007241  3.703747  0.007  -0.090661  0.001192  3.955407  0.001  -0.087943  0.001636  3.972914  0.002  -0.078776  -0.092443  0.00082  3.943766  0.001
C  C48  1  0.84132690  0.23437034  0.93341342  1  -0.078201  0.008795  3.745357  0.008  -0.099583  0.001337  4.004855  0.001  -0.103163  0.001303  4.022463  0.001  -0.101968  -0.097145  0.0015  3.99292  0.001
C  C49  1  0.84132943  0.26563504  0.43341011  1  -0.078154  0.008821  3.745213  0.008  -0.099519  0.001338  4.004678  0.001  -0.103099  0.001303  4.022279  0.001  -0.101949  -0.097081  0.001501  3.992746  0.001
C  C50  1  0.15864765  0.76565340  0.06658988  1  -0.078154  -0.008799  3.745543  -0.008  -0.0995  -0.001337  4.004977  -0.001  -0.103079  -0.001303  4.022582  -0.001  -0.10206  -0.097063  -0.001499  3.993048  -0.001
C  C51  1  0.15866865  0.73437419  0.56658859  1  -0.078248  -0.008807  3.74545  -0.008  -0.099582  -0.001337  4.004888  -0.001  -0.103163  -0.001303  4.022496  -0.001  -0.10197  -0.097148  -0.001499  3.992969  -0.001
C  C52  1  0.72788314  0.13880356  0.97720216  1  -0.018385  -0.00883  3.748448  -0.008  -0.03625  -0.001285  4.007189  -0.001  -0.032801  -0.001697  4.025047  -0.002  -0.083055  -0.038323  -0.000988  3.994612  -0.001
C  C53  1  0.72788338  0.36120184  0.47720278  1  -0.018373  -0.008859  3.748508  -0.008  -0.03623  -0.001286  4.007258  -0.001  -0.032783  -0.001697  4.025119  -0.002  -0.083007  -0.038314  -0.000988  3.994682  -0.001
C  C54  1  0.27209615  0.86121171  0.02279812  1  -0.018586  0.008822  3.74849  0.008  -0.036398  0.001285  4.007229  0.001  -0.032951  0.001697  4.025092  0.002  -0.083045  -0.038486  0.000988  3.994659  0.001
C  C55  1  0.27211468  0.63880860  0.52279696  1  -0.018407  0.008836  3.748313  0.008  -0.036288  0.001285  4.007074  0.001  -0.032842  0.001697  4.024933  0.002  -0.083063  -0.038378  0.000988  3.994505  0.001
C  C56  1  0.79766666  0.11508005  0.04759547  1  -0.197602  0.009459  3.760228  0.009  -0.223592  0.00251  4.020888  0.003  -0.231233  0.002117  4.04177  0.003  -0.106675  -0.218247  0.002872  4.006453  0.003
C  C57  1  0.79766632  0.38491955  0.54759328  1  -0.197544  0.009481  3.760337  0.009  -0.223546  0.002511  4.020989  0.003  -0.231185  0.002118  4.041869  0.003  -0.106663  -0.218205  0.002872  4.006562  0.003
C  C58  1  0.20232205  0.88492313  0.95240297  1  -0.197537  -0.009442  3.760564  -0.009  -0.223586  -0.00251  4.021183  -0.003  -0.231227  -0.002117  4.042061  -0.003  -0.106673  -0.218244  -0.002871  4.006754  -0.003
C  C59  1  0.20232551  0.61508243  0.45240525  1  -0.197593  -0.009464  3.760454  -0.009  -0.22364  -0.002511  4.021104  -0.003  -0.231275  -0.002117  4.041979  -0.003  -0.106716  -0.218294  -0.002871  4.006671  -0.003
C  C60  1  0.29778877  0.36415636  0.05132309  1  0.107391  -0.016106  3.65435  -0.015  0.061663  -0.0019  3.926248  -0.001  0.081472  -0.004032  3.935676  -0.004  0.064488  0.048512  -0.00043  3.920836  0.0
C  C61  1  0.29779328  0.13584516  0.55132050  1  0.107327  -0.016106  3.654222  -0.015  0.061645  -0.001901  3.926123  -0.001  0.081454  -0.004031  3.935545  -0.004  0.064481  0.048487  -0.000429  3.920711  0.0
C  C62  1  0.70221086  0.63583957  0.94867618  1  0.107288  0.016122  3.654389  0.015  0.061573  0.001901  3.92625  0.001  0.081383  0.004033  3.935678  0.004  0.064467  0.048427  0.00043  3.920811  0.0
C  C63  1  0.70220798  0.86415923  0.44867514  1  0.107328  0.016102  3.654349  0.015  0.061648  0.001901  3.926265  0.001  0.081458  0.004033  3.935693  0.004  0.064453  0.048488  0.00043  3.920832  0.0
C  C64  1  0.92909203  0.07777452  0.18977167  1  -0.087501  0.000718  3.594419  0.001  -0.148721  0.001257  3.849599  0.001  -0.146237  0.000883  3.852076  0.001  -0.072376  -0.150902  0.001487  3.848125  0.001
C  C65  1  0.92909610  0.42221473  0.68977110  1  -0.087614  0.000716  3.594362  0.001  -0.148908  0.001257  3.849715  0.001  -0.146435  0.000882  3.852199  0.001  -0.072415  -0.151099  0.001487  3.848243  0.001
C  C66  1  0.07091856  0.92220931  0.81022684  1  -0.087031  -0.000738  3.594006  -0.001  -0.148427  -0.001257  3.849536  -0.001  -0.145952  -0.000883  3.852021  -0.001  -0.072297  -0.15062  -0.001487  3.848048  -0.001
C  C67  1  0.07091603  0.57778241  0.31022851  1  -0.087303  -0.0007  3.594381  -0.001  -0.148392  -0.001257  3.849565  -0.001  -0.145913  -0.000881  3.852042  -0.001  -0.072282  -0.150589  -0.001487  3.848097  -0.001
C  C68  1  0.02014111  0.09652919  0.26501952  1  0.664889  -0.004513  3.855633  -0.006  0.627417  0.000428  4.154589  0.0  0.665758  0.000529  4.147748  0.0  0.205634  0.601118  0.000233  4.157331  -0.001
C  C69  1  0.02014533  0.40346046  0.76501795  1  0.665088  -0.004517  3.855366  -0.006  0.627579  0.000428  4.154431  0.0  0.665923  0.000529  4.147597  0.0  0.205682  0.601281  0.000232  4.157181  -0.001
C  C70  1  0.97986945  0.90346069  0.73498057  1  0.664892  0.004518  3.855386  0.006  0.627373  -0.000428  4.154555  0.0  0.665717  -0.000528  4.147721  0.0  0.205597  0.601075  -0.000231  4.157301  0.001
C  C71  1  0.97986522  0.59653184  0.23498267  1  0.665033  0.004516  3.855399  0.006  0.627544  -0.000428  4.154393  0.0  0.665892  -0.000528  4.147548  0.0  0.205648  0.601249  -0.000231  4.157144  0.001
N  N72  1  0.38979222  0.37737590  0.11387884  1  -0.12529  0.072678  3.292631  0.087  -0.093605  0.049859  3.628305  0.064  -0.11921  0.043677  3.641903  0.059  -0.280124  -0.080105  0.0509  3.622596  0.063
N  N73  1  0.38979682  0.12262223  0.61387629  1  -0.125401  0.072679  3.292614  0.087  -0.093755  0.049856  3.628362  0.064  -0.119345  0.043673  3.641919  0.059  -0.280235  -0.080235  0.050898  3.622624  0.063
N  N74  1  0.61020900  0.62261881  0.88611941  1  -0.125231  -0.072686  3.292645  -0.087  -0.093508  -0.049856  3.628293  -0.064  -0.11911  -0.043675  3.64189  -0.059  -0.280061  -0.079997  -0.050899  3.622551  -0.063
N  N75  1  0.61020133  0.87737733  0.38611874  1  -0.125252  -0.072672  3.292702  -0.087  -0.093607  -0.049856  3.628419  -0.064  -0.119206  -0.043675  3.641997  -0.059  -0.280142  -0.080088  -0.050901  3.62266  -0.063
Cl  Cl76  1  0.56940495  0.38624902  0.26934954  1  -0.489706  0.140255  0.942731  0.159  -0.502411  0.085338  1.231365  0.105  -0.538423  0.063896  1.206305  0.082  -0.273076  -0.483451  0.094599  1.25141  0.113
Cl  Cl77  1  0.56941271  0.11373845  0.76934866  1  -0.489692  0.140257  0.942711  0.159  -0.502421  0.085335  1.23137  0.105  -0.538417  0.063895  1.206274  0.082  -0.273065  -0.483442  0.094602  1.251399  0.113
Cl  Cl78  1  0.43060090  0.61373965  0.73065095  1  -0.489684  -0.140255  0.942743  -0.159  -0.50242  -0.085339  1.231413  -0.105  -0.538406  -0.063898  1.206297  -0.082  -0.273048  -0.483449  -0.094597  1.251455  -0.113
Cl  Cl79  1  0.43059944  0.88625869  0.23064990  1  -0.489675  -0.140253  0.942742  -0.159  -0.502416  -0.085337  1.231432  -0.105  -0.5384  -0.063898  1.206317  -0.082  -0.273061  -0.483448  -0.094599  1.251462  -0.113
O  O80  1  0.05761454  0.16566853  0.14370376  1  -0.281111  0.023783  2.499464  0.031  -0.204332  0.023153  2.75014  0.033  -0.232166  0.019305  2.753761  0.029  -0.183255  -0.185435  0.025151  2.748646  0.034
O  O81  1  0.05762079  0.33432577  0.64370238  1  -0.281109  0.023783  2.499599  0.031  -0.204097  0.023154  2.750109  0.033  -0.231923  0.019306  2.753714  0.029  -0.183268  -0.185189  0.025152  2.7486  0.034
O  O82  1  0.94238981  0.83432135  0.85629406  1  -0.281343  -0.023783  2.49934  -0.031  -0.204113  -0.023157  2.749743  -0.033  -0.231942  -0.019308  2.753358  -0.029  -0.183223  -0.185215  -0.025157  2.748243  -0.034
O  O83  1  0.94238512  0.66566653  0.35629548  1  -0.281161  -0.023788  2.49942  -0.031  -0.204322  -0.023155  2.750017  -0.033  -0.232152  -0.019307  2.753626  -0.029  -0.183238  -0.185417  -0.025156  2.748506  -0.034
O  O84  1  0.16040364  0.20537734  0.27979879  1  -0.576169  0.084529  2.097644  0.109  -0.542855  0.050054  2.376655  0.071  -0.587171  0.038297  2.368825  0.057  -0.329533  -0.511962  0.055502  2.381376  0.077
O  O85  1  0.16041486  0.29461526  0.77979710  1  -0.576089  0.084533  2.097615  0.109  -0.542811  0.050054  2.376752  0.071  -0.587076  0.038297  2.368811  0.057  -0.329479  -0.51191  0.055502  2.381476  0.077
O  O86  1  0.83959440  0.79461980  0.72020201  1  -0.576243  -0.084538  2.09758  -0.109  -0.542937  -0.050059  2.376726  -0.071  -0.587231  -0.038299  2.368837  -0.057  -0.329585  -0.512039  -0.055501  2.381445  -0.077
O  O87  1  0.83958943  0.70537342  0.22020386  1  -0.576263  -0.084538  2.097524  -0.109  -0.542993  -0.050056  2.376656  -0.071  -0.587288  -0.038299  2.368766  -0.057  -0.329639  -0.512086  -0.0555  2.381361  -0.077
O  O88  1  0.95211783  0.00817920  0.31141493  1  -0.575697  0.020446  2.027696  0.025  -0.549239  0.003871  2.287281  0.005  -0.585154  0.000461  2.279217  0.0  -0.305325  -0.519763  0.010585  2.29027  0.014
O  O89  1  0.95211362  0.49180637  0.81141346  1  -0.575881  0.020449  2.027414  0.025  -0.549357  0.003872  2.286938  0.005  -0.585275  0.000463  2.278878  0.0  -0.305418  -0.519887  0.010585  2.289946  0.014
O  O90  1  0.04790054  0.99180463  0.68858538  1  -0.575713  -0.020449  2.027617  -0.025  -0.549156  -0.003872  2.287102  -0.005  -0.585065  -0.000462  2.279027  0.0  -0.305271  -0.519682  -0.010581  2.290098  -0.014
O  O91  1  0.04789537  0.50818714  0.18858659  1  -0.575776  -0.02045  2.027626  -0.025  -0.549263  -0.003871  2.287109  -0.005  -0.585179  -0.000461  2.279047  0.0  -0.30527  -0.519801  -0.010579  2.29012  -0.014
O  O92  1  0.57262793  0.46601248  0.11613355  1  -0.378771  0.007784  2.052204  0.009  -0.33303  0.004061  2.276468  0.005  -0.350177  0.00285  2.274847  0.003  -0.256448  -0.320145  0.004849  2.27774  0.006
O  O93  1  0.57263471  0.03398733  0.61613071  1  -0.37857  0.007781  2.052602  0.009  -0.332833  0.00406  2.276864  0.005  -0.349985  0.002849  2.275246  0.003  -0.256278  -0.319947  0.004848  2.278124  0.006
O  O94  1  0.42737475  0.53398103  0.88386947  1  -0.378652  -0.007782  2.052457  -0.009  -0.332958  -0.004061  2.276721  -0.005  -0.350109  -0.00285  2.275107  -0.003  -0.256451  -0.320077  -0.004848  2.277983  -0.006
O  O95  1  0.42736490  0.96601101  0.38386960  1  -0.378647  -0.007783  2.052506  -0.009  -0.332899  -0.004061  2.276747  -0.005  -0.350046  -0.00285  2.275125  -0.003  -0.256327  -0.320021  -0.004849  2.278017  -0.006
