# generated using pymatgen
data_ZnMo2H8C8S2N2O7
_symmetry_space_group_name_H-M   'P 1'
_cell_length_a   7.35286643
_cell_length_b   10.13086640
_cell_length_c   10.37304514
_cell_angle_alpha   105.46529443
_cell_angle_beta   102.64628474
_cell_angle_gamma   104.88371943
_symmetry_Int_Tables_number   1
_chemical_formula_structural   ZnMo2H8C8S2N2O7
_chemical_formula_sum   'Zn2 Mo4 H16 C16 S4 N4 O14'
_cell_volume   684.61083578
_cell_formula_units_Z   2
loop_
 _symmetry_equiv_pos_site_id
 _symmetry_equiv_pos_as_xyz
  1  'x, y, z'
loop_
 _atom_site_type_symbol
 _atom_site_label
 _atom_site_symmetry_multiplicity
 _atom_site_fract_x
 _atom_site_fract_y
 _atom_site_fract_z
 _atom_site_occupancy
 _atom_site_hle17_bader_spin_density
 _atom_site_hle17_ddec_charge
 _atom_site_hle17_ddec_spin_density
 _atom_site_hle17_ddec_sum_bond_order
 _atom_site_hle17_magmom
 _atom_site_hse06_10hf_bader_spin_density
 _atom_site_hse06_10hf_ddec_charge
 _atom_site_hse06_10hf_ddec_spin_density
 _atom_site_hse06_10hf_ddec_sum_bond_order
 _atom_site_hse06_10hf_magmom
 _atom_site_hse06_bader_spin_density
 _atom_site_hse06_ddec_charge
 _atom_site_hse06_ddec_spin_density
 _atom_site_hse06_ddec_sum_bond_order
 _atom_site_hse06_magmom
 _atom_site_pbe_bader_spin_density
 _atom_site_pbe_cm5_charge
 _atom_site_pbe_ddec_charge
 _atom_site_pbe_ddec_spin_density
 _atom_site_pbe_ddec_sum_bond_order
 _atom_site_pbe_magmom
Zn  Zn0  1  0.99117735  0.68306071  0.75424559  1  0  1.130994  0  1.796471  0  0  0.977987  0  2.250058  0  0  1.024773  0  2.194046  0  0  0.691541  0.944895  0  2.288109  0
Zn  Zn1  1  0.00883020  0.31693507  0.24575740  1  0  1.130968  0  1.796355  0  0  0.977995  0  2.249875  0  0  1.024781  0  2.193876  0  0  0.691535  0.944886  0  2.287924  0
Mo  Mo2  1  0.83566916  0.36108766  0.52296783  1  0  2.204392  0  4.099989  0  0  2.20592  0  4.630014  0  0  2.307001  0  4.595353  0  0  1.490704  2.131139  0  4.662161  0
Mo  Mo3  1  0.16433332  0.63890919  0.47703852  1  0  2.204425  0  4.100016  0  0  2.205977  0  4.630018  0  0  2.307062  0  4.595367  0  0  1.490722  2.131193  0  4.662168  0
Mo  Mo4  1  0.51932487  0.46253391  0.33794358  1  0  2.23969  0  4.011385  0  0  2.229239  0  4.558962  0  0  2.331205  0  4.518987  0  0  1.523286  2.153543  0  4.594577  0
Mo  Mo5  1  0.48067678  0.53746412  0.66205814  1  0  2.239745  0  4.011412  0  0  2.229295  0  4.558982  0  0  2.331259  0  4.51901  0  0  1.523263  2.153599  0  4.594609  0
H  H6  1  0.76710104  0.97226934  0.50797616  1  0  0.143833  0  0.97232  0  0  0.163881  0  1.030282  0  0  0.166724  0  1.028503  0  0  0.090605  0.161457  0  1.032358  0
H  H7  1  0.23287726  0.02771167  0.49200377  1  0  0.143927  0  0.972339  0  0  0.16396  0  1.030292  0  0  0.166805  0  1.028512  0  0  0.090639  0.161537  0  1.032371  0
H  H8  1  0.66629709  0.82469150  0.56179471  1  0  0.142968  0  0.943134  0  0  0.160126  0  1.008169  0  0  0.162426  0  1.006852  0  0  0.097798  0.158292  0  1.009444  0
H  H9  1  0.33370926  0.17528695  0.43819565  1  0  0.142999  0  0.943069  0  0  0.160181  0  1.008049  0  0  0.162478  0  1.006735  0  0  0.097841  0.158344  0  1.009329  0
H  H10  1  0.85471482  0.82033020  0.48305424  1  0  0.140128  0  0.972125  0  0  0.153979  0  1.043087  0  0  0.156096  0  1.04281  0  0  0.094127  0.152373  0  1.043575  0
H  H11  1  0.14527513  0.17965485  0.51694210  1  0  0.140253  0  0.972093  0  0  0.154051  0  1.043086  0  0  0.156171  0  1.042807  0  0  0.094143  0.152444  0  1.043569  0
H  H12  1  0.27006013  0.23568780  0.01262332  1  0  0.165145  0  0.970135  0  0  0.178395  0  1.019447  0  0  0.181512  0  1.018286  0  0  0.115289  0.176043  0  1.02078  0
H  H13  1  0.72992311  0.76432142  0.98737279  1  0  0.165074  0  0.970384  0  0  0.178314  0  1.019683  0  0  0.181431  0  1.018529  0  0  0.115296  0.17597  0  1.02101  0
H  H14  1  0.44165932  0.11457577  0.19727524  1  0  0.164698  0  0.950694  0  0  0.172284  0  1.010857  0  0  0.175656  0  1.009459  0  0  0.116837  0.169854  0  1.011949  0
H  H15  1  0.55832834  0.88543988  0.80272814  1  0  0.164712  0  0.950743  0  0  0.172309  0  1.010871  0  0  0.175682  0  1.009471  0  0  0.116855  0.169878  0  1.011973  0
H  H16  1  0.18084298  0.51388894  0.91111537  1  0  0.152189  0  0.953028  0  0  0.172133  0  1.011187  0  0  0.174863  0  1.009718  0  0  0.099418  0.170256  0  1.012201  0
H  H17  1  0.81919285  0.48612837  0.08889983  1  0  0.15218  0  0.953067  0  0  0.172144  0  1.011232  0  0  0.174868  0  1.009771  0  0  0.099415  0.17027  0  1.012239  0
H  H18  1  0.18056525  0.53858548  0.08923437  1  0  0.145174  0  0.949233  0  0  0.165174  0  1.010358  0  0  0.167424  0  1.009786  0  0  0.099263  0.163753  0  1.010392  0
H  H19  1  0.81944850  0.46141457  0.91077268  1  0  0.145271  0  0.94936  0  0  0.165292  0  1.010444  0  0  0.167542  0  1.009874  0  0  0.099325  0.163872  0  1.010481  0
H  H20  1  0.40597505  0.56450970  0.05106642  1  0  0.137254  0  0.957269  0  0  0.15624  0  1.019715  0  0  0.158278  0  1.018957  0  0  0.097207  0.154585  0  1.020783  0
H  H21  1  0.59405583  0.43550892  0.94893872  1  0  0.137236  0  0.957172  0  0  0.156199  0  1.019685  0  0  0.158239  0  1.018926  0  0  0.097186  0.154546  0  1.020753  0
C  C22  1  0.28504455  0.73380500  0.04619477  1  0  0.268927  0  3.676478  0  0  0.261619  0  3.962683  0  0  0.275463  0  3.978221  0  0  0.137084  0.252574  0  3.951741  0
C  C23  1  0.71496056  0.26620625  0.95380241  1  0  0.268802  0  3.6765  0  0  0.26145  0  3.962873  0  0  0.275295  0  3.978416  0  0  0.136951  0.252411  0  3.951923  0
C  C24  1  0.80310797  0.89302249  0.55368392  1  0  -0.382864  0  3.679708  0  0  -0.461053  0  3.915226  0  0  -0.465648  0  3.921124  0  0  -0.248618  -0.457718  0  3.912161  0
C  C25  1  0.19688180  0.10696808  0.44631004  1  0  -0.383143  0  3.679819  0  0  -0.461293  0  3.915334  0  0  -0.465882  0  3.921216  0  0  -0.248722  -0.457957  0  3.912267  0
C  C26  1  0.95337423  0.96690737  0.69427640  1  0  0.273318  0  3.673165  0  0  0.266557  0  3.957367  0  0  0.279865  0  3.973581  0  0  0.136964  0.258049  0  3.945793  0
C  C27  1  0.04661397  0.03307989  0.30571931  1  0  0.273178  0  3.673262  0  0  0.266396  0  3.957466  0  0  0.279701  0  3.973685  0  0  0.136888  0.25789  0  3.945884  0
C  C28  1  0.18291191  0.14024783  0.92077969  1  0  -0.248316  0  3.646749  0  0  -0.275143  0  3.926751  0  0  -0.278403  0  3.943677  0  0  -0.102234  -0.273769  0  3.915865  0
C  C29  1  0.81706301  0.85973196  0.07920902  1  0  -0.248323  0  3.645819  0  0  -0.275129  0  3.925853  0  0  -0.278395  0  3.942779  0  0  -0.102248  -0.273767  0  3.914986  0
C  C30  1  0.15828268  0.99702582  0.90460934  1  0  0.157831  0  3.859769  0  0  0.149909  0  4.117731  0  0  0.154065  0  4.140856  0  0  0.079713  0.147351  0  4.10131  0
C  C31  1  0.84171004  0.00299757  0.09538826  1  0  0.158033  0  3.85941  0  0  0.150075  0  4.117438  0  0  0.154233  0  4.140565  0  0  0.07982  0.147518  0  4.101022  0
C  C32  1  0.24579411  0.93333803  0.00172205  1  0  0.15883  0  3.846244  0  0  0.152837  0  4.100843  0  0  0.157139  0  4.124324  0  0  0.081406  0.15023  0  4.084275  0
C  C33  1  0.75420267  0.06666444  0.99827915  1  0  0.158796  0  3.846354  0  0  0.152798  0  4.101058  0  0  0.1571  0  4.124547  0  0  0.081442  0.150196  0  4.084476  0
C  C34  1  0.37513915  0.99928744  0.13602035  1  0  -0.232502  0  3.605369  0  0  -0.25667  0  3.882921  0  0  -0.259953  0  3.900376  0  0  -0.093809  -0.254057  0  3.870958  0
C  C35  1  0.62484029  0.00071964  0.86397458  1  0  -0.232564  0  3.605209  0  0  -0.256706  0  3.882726  0  0  -0.25999  0  3.900176  0  0  -0.093888  -0.2541  0  3.870776  0
C  C36  1  0.26115410  0.57836018  0.02195223  1  0  -0.382423  0  3.674838  0  0  -0.461932  0  3.907845  0  0  -0.466783  0  3.913931  0  0  -0.242636  -0.458388  0  3.903468  0
C  C37  1  0.73887743  0.42165391  0.97806046  1  0  -0.382445  0  3.675122  0  0  -0.461993  0  3.908246  0  0  -0.466837  0  3.914313  0  0  -0.242648  -0.458428  0  3.903812  0
S  S38  1  0.04358457  0.15321580  0.77292880  1  0  0.189971  0  2.654642  0  0  0.196146  0  3.000177  0  0  0.193154  0  3.00698  0  0  0.147664  0.198406  0  2.994602  0
S  S39  1  0.95639331  0.84676729  0.22705838  1  0  0.189997  0  2.654471  0  0  0.196211  0  2.999943  0  0  0.193224  0  3.006746  0  0  0.147667  0.198471  0  2.994378  0
S  S40  1  0.43341539  0.87176055  0.20086042  1  0  0.201165  0  2.574231  0  0  0.210027  0  2.899973  0  0  0.206447  0  2.90699  0  0  0.152993  0.211821  0  2.895528  0
S  S41  1  0.56657244  0.12824656  0.79912909  1  0  0.201195  0  2.574062  0  0  0.210118  0  2.899777  0  0  0.206536  0  2.906796  0  0  0.153078  0.211898  0  2.895337  0
N  N42  1  0.02986443  0.90103594  0.77532029  1  0  -0.426888  0  3.228899  0  0  -0.360573  0  3.503363  0  0  -0.381247  0  3.517076  0  0  -0.339407  -0.345975  0  3.492875  0
N  N43  1  0.97012422  0.09895230  0.22468251  1  0  -0.426971  0  3.229571  0  0  -0.360585  0  3.503951  0  0  -0.381264  0  3.51768  0  0  -0.339394  -0.345978  0  3.493442  0
N  N44  1  0.19639215  0.78308760  0.95310477  1  0  -0.428696  0  3.239482  0  0  -0.358648  0  3.514213  0  0  -0.379209  0  3.526511  0  0  -0.336989  -0.345411  0  3.5061  0
N  N45  1  0.80360239  0.21691604  0.04689255  1  0  -0.428577  0  3.239408  0  0  -0.358593  0  3.514272  0  0  -0.379154  0  3.526572  0  0  -0.336946  -0.345359  0  3.506149  0
O  O46  1  0.58116134  0.42034972  0.52870441  1  0  -1.028402  0  1.900643  0  0  -1.010635  0  2.207743  0  0  -1.054989  0  2.201767  0  0  -0.61589  -0.976568  0  2.211159  0
O  O47  1  0.41884657  0.57964387  0.47129803  1  0  -1.0284  0  1.900597  0  0  -1.010616  0  2.207677  0  0  -1.054967  0  2.201705  0  0  -0.61589  -0.976542  0  2.211078  0
O  O48  1  0.68397680  0.34975040  0.32480501  1  0  -0.909559  0  1.669738  0  0  -0.902287  0  1.968959  0  0  -0.941065  0  1.959277  0  0  -0.584839  -0.873104  0  1.975655  0
O  O49  1  0.31602898  0.65024753  0.67520118  1  0  -0.909511  0  1.669754  0  0  -0.902259  0  1.969028  0  0  -0.94105  0  1.959366  0  0  -0.584769  -0.873054  0  1.975667  0
O  O50  1  0.94464941  0.62027878  0.53523070  1  0  -0.95517  0  1.776028  0  0  -0.932832  0  2.091451  0  0  -0.974818  0  2.082288  0  0  -0.566176  -0.902232  0  2.09795  0
O  O51  1  0.05536087  0.37971688  0.46477846  1  0  -0.955129  0  1.775976  0  0  -0.932776  0  2.091353  0  0  -0.974785  0  2.082255  0  0  -0.566142  -0.902151  0  2.097824  0
O  O52  1  0.61465744  0.59224689  0.27045575  1  0  -0.699321  0  1.432414  0  0  -0.692113  0  1.685885  0  0  -0.717436  0  1.676522  0  0  -0.521108  -0.673828  0  1.693464  0
O  O53  1  0.38534260  0.40775660  0.72954817  1  0  -0.699328  0  1.432482  0  0  -0.692107  0  1.685944  0  0  -0.71743  0  1.676581  0  0  -0.5211  -0.673821  0  1.693524  0
O  O54  1  0.28893128  0.34615705  0.21680075  1  0  -0.81204  0  1.631682  0  0  -0.7787  0  1.930136  0  0  -0.809821  0  1.912073  0  0  -0.538447  -0.756169  0  1.943203  0
O  O55  1  0.71107002  0.65383436  0.78320392  1  0  -0.812055  0  1.631683  0  0  -0.778712  0  1.930107  0  0  -0.809831  0  1.912045  0  0  -0.538426  -0.756195  0  1.943199  0
O  O56  1  0.93377793  0.46282059  0.70698064  1  0  -0.818276  0  1.632106  0  0  -0.794438  0  1.931639  0  0  -0.829641  0  1.91834  0  0  -0.541437  -0.768699  0  1.940505  0
O  O57  1  0.06623305  0.53718835  0.29302069  1  0  -0.818251  0  1.631914  0  0  -0.794503  0  1.931551  0  0  -0.829708  0  1.918261  0  0  -0.541457  -0.768753  0  1.940402  0
O  O58  1  0.74796958  0.18243500  0.50908249  1  0  -0.692068  0  1.444463  0  0  -0.687446  0  1.690912  0  0  -0.713076  0  1.681762  0  0  -0.520363  -0.668744  0  1.698916  0
O  O59  1  0.25203142  0.81755871  0.49091601  1  0  -0.692075  0  1.444461  0  0  -0.687478  0  1.690951  0  0  -0.713118  0  1.681811  0  0  -0.520385  -0.668779  0  1.698945  0
