# generated using pymatgen
data_H3PbC5N3O4
_symmetry_space_group_name_H-M   'P 1'
_cell_length_a   4.64308111
_cell_length_b   12.07647489
_cell_length_c   15.22820661
_cell_angle_alpha   89.99933342
_cell_angle_beta   96.43870735
_cell_angle_gamma   89.99973259
_symmetry_Int_Tables_number   1
_chemical_formula_structural   H3PbC5N3O4
_chemical_formula_sum   'H12 Pb4 C20 N12 O16'
_cell_volume   848.49087446
_cell_formula_units_Z   4
loop_
 _symmetry_equiv_pos_site_id
 _symmetry_equiv_pos_as_xyz
  1  'x, y, z'
loop_
 _atom_site_type_symbol
 _atom_site_label
 _atom_site_symmetry_multiplicity
 _atom_site_fract_x
 _atom_site_fract_y
 _atom_site_fract_z
 _atom_site_occupancy
 _atom_site_pbe_bader_charge
 _atom_site_pbe_bader_spin_density
 _atom_site_pbe_cm5_charge
 _atom_site_pbe_ddec_charge
 _atom_site_pbe_ddec_spin_density
 _atom_site_pbe_ddec_sum_bond_order
 _atom_site_pbe_magmom
H  H0  1  0.54367917  0.37222335  0.42613407  1  0.170993  0  0.154925  0.133592  0  0.951587  0
H  H1  1  0.95628132  0.87223573  0.07387471  1  0.17085  0  0.1549  0.133591  0  0.951524  0
H  H2  1  0.45629687  0.62777622  0.57386561  1  0.170966  0  0.154928  0.133566  0  0.951565  0
H  H3  1  0.04373381  0.12776798  0.92612883  1  0.170944  0  0.154916  0.133548  0  0.951603  0
H  H4  1  0.97857396  0.23807652  0.49448113  1  0.121756  0  0.131164  0.144332  0  0.953014  0
H  H5  1  0.52140343  0.73808407  0.00551628  1  0.121532  0  0.131202  0.144396  0  0.953091  0
H  H6  1  0.02142156  0.76193050  0.50551785  1  0.121831  0  0.131196  0.144371  0  0.952938  0
H  H7  1  0.47859642  0.26192046  0.99448284  1  0.121612  0  0.131209  0.144405  0  0.95304  0
H  H8  1  0.97677760  0.10207771  0.45220375  1  0.144396  0  0.133269  0.152237  0  0.970112  0
H  H9  1  0.52320623  0.60208298  0.04779512  1  0.144343  0  0.133246  0.152247  0  0.970117  0
H  H10  1  0.02322232  0.89792931  0.54779800  1  0.144699  0  0.133229  0.152253  0  0.97003  0
H  H11  1  0.47680007  0.39791990  0.95220223  1  0.144317  0  0.133229  0.152199  0  0.970219  0
Pb  Pb12  1  0.58963648  0.90836176  0.28647129  1  1.434939  0  0.639237  1.065946  0  1.825484  0
Pb  Pb13  1  0.91034694  0.40836428  0.21352540  1  1.434922  0  0.639266  1.065961  0  1.825485  0
Pb  Pb14  1  0.41036131  0.09162622  0.71353170  1  1.434995  0  0.639244  1.065925  0  1.82544  0
Pb  Pb15  1  0.08964198  0.59162618  0.78647008  1  1.434976  0  0.639234  1.065927  0  1.825454  0
C  C16  1  0.48929414  0.29765888  0.38803339  1  0.994211  0  0.175086  0.087896  0  3.902907  0
C  C17  1  0.01067656  0.79766239  0.11197433  1  0.994242  0  0.175143  0.087865  0  3.90315  0
C  C18  1  0.51068422  0.70234400  0.61197161  1  0.99459  0  0.175139  0.088  0  3.903132  0
C  C19  1  0.98933194  0.20233800  0.88802440  1  0.994229  0  0.17511  0.08792  0  3.903127  0
C  C20  1  0.30045703  0.18015525  0.29431302  1  0.990897  0  0.216814  0.161895  0  4.031291  0
C  C21  1  0.19953041  0.68015870  0.20568712  1  0.990713  0  0.216832  0.162043  0  4.030691  0
C  C22  1  0.69954717  0.81984266  0.70568689  1  0.990899  0  0.216727  0.161858  0  4.031165  0
C  C23  1  0.80046945  0.31983921  0.79431266  1  0.990653  0  0.216809  0.161912  0  4.030872  0
C  C24  1  0.83862072  0.16732436  0.47463132  1  0.270502  0  -0.042867  -0.241727  0  3.839162  0
C  C25  1  0.66135782  0.66733054  0.02536875  1  0.270555  0  -0.04282  -0.241669  0  3.839089  0
C  C26  1  0.16137704  0.83268101  0.52537036  1  0.270097  0  -0.042871  -0.241774  0  3.839064  0
C  C27  1  0.33864632  0.33267483  0.97462919  1  0.27047  0  -0.042857  -0.241719  0  3.839116  0
C  C28  1  0.69221936  0.12706464  0.55407194  1  1.642827  0  0.21655  0.613351  0  4.162633  0
C  C29  1  0.80776344  0.62706764  0.94592896  1  1.642913  0  0.216576  0.613308  0  4.162374  0
C  C30  1  0.30777843  0.87294073  0.44593105  1  1.64279  0  0.216645  0.613496  0  4.162515  0
C  C31  1  0.19222769  0.37293772  0.05406791  1  1.642819  0  0.216575  0.613304  0  4.162639  0
C  C32  1  0.10440862  0.13123774  0.21896980  1  1.648816  0  0.204043  0.533537  0  4.299915  0
C  C33  1  0.39556445  0.63123309  0.28103164  1  1.648759  0  0.204023  0.533417  0  4.29971  0
C  C34  1  0.89560421  0.86876100  0.78102907  1  1.648904  0  0.203992  0.533495  0  4.299968  0
C  C35  1  0.60442251  0.36876068  0.71897101  1  1.648836  0  0.204026  0.533489  0  4.299887  0
N  N36  1  0.62709378  0.19951991  0.40187797  1  -0.795688  0  -0.121488  0.198622  0  3.765627  0
N  N37  1  0.87288430  0.69953043  0.09812310  1  -0.795667  0  -0.121605  0.198598  0  3.765636  0
N  N38  1  0.37290179  0.80047883  0.59812298  1  -0.79579  0  -0.121496  0.198656  0  3.765669  0
N  N39  1  0.12711342  0.30046997  0.90187727  1  -0.795698  0  -0.121558  0.198598  0  3.765601  0
N  N40  1  0.50746698  0.12395867  0.34316221  1  -0.686277  0  -0.188312  -0.265383  0  3.208477  0
N  N41  1  0.99251863  0.62396313  0.15683453  1  -0.685953  0  -0.188271  -0.26543  0  3.208137  0
N  N42  1  0.49253726  0.87603841  0.65683901  1  -0.686223  0  -0.188293  -0.265403  0  3.20848  0
N  N43  1  0.00748343  0.37603726  0.84316597  1  -0.685954  0  -0.188262  -0.265343  0  3.208057  0
N  N44  1  0.28277926  0.28763015  0.32045205  1  -1.225329  0  -0.309602  -0.353347  0  3.424876  0
N  N45  1  0.21718281  0.78763477  0.17955155  1  -1.225325  0  -0.30965  -0.353469  0  3.425162  0
N  N46  1  0.71719895  0.71236197  0.67954770  1  -1.225626  0  -0.309614  -0.353442  0  3.424937  0
N  N47  1  0.78281707  0.21236479  0.82044888  1  -1.225425  0  -0.309634  -0.353415  0  3.425161  0
O  O48  1  0.85164275  0.11218958  0.62702219  1  -1.184741  0  -0.291683  -0.562686  0  2.233209  0
O  O49  1  0.64835974  0.61219395  0.87297816  1  -1.184865  0  -0.291639  -0.562647  0  2.233418  0
O  O50  1  0.14837016  0.88781413  0.37297931  1  -1.184681  0  -0.291705  -0.562723  0  2.23328  0
O  O51  1  0.35164659  0.38781141  0.12702050  1  -1.184752  0  -0.291678  -0.562693  0  2.233186  0
O  O52  1  0.42183219  0.11314450  0.54477336  1  -1.181461  0  -0.290619  -0.535946  0  2.225746  0
O  O53  1  0.07816222  0.61314778  0.95523255  1  -1.181315  0  -0.290681  -0.536005  0  2.225397  0
O  O54  1  0.57817638  0.88686087  0.45522800  1  -1.181511  0  -0.290673  -0.536081  0  2.225707  0
O  O55  1  0.92185071  0.38684930  0.04476961  1  -1.181301  0  -0.290627  -0.535916  0  2.225954  0
O  O56  1  0.13861958  0.02949374  0.20217983  1  -1.183837  0  -0.31389  -0.589507  0  2.217576  0
O  O57  1  0.36135918  0.52948725  0.29781485  1  -1.183934  0  -0.313879  -0.589453  0  2.217592  0
O  O58  1  0.86138238  0.97050417  0.79781738  1  -1.183796  0  -0.313858  -0.589424  0  2.217653  0
O  O59  1  0.63863420  0.47050653  0.70218538  1  -1.183799  0  -0.313889  -0.589456  0  2.217556  0
O  O60  1  0.91638424  0.19586874  0.17975944  1  -1.161969  0  -0.312622  -0.542772  0  2.16679  0
O  O61  1  0.58359599  0.69586490  0.32023910  1  -1.161786  0  -0.312657  -0.542763  0  2.166704  0
O  O62  1  0.08364566  0.80412669  0.82023012  1  -1.162137  0  -0.312549  -0.542769  0  2.166835  0
O  O63  1  0.41638667  0.30413384  0.67976473  1  -1.161953  0  -0.312633  -0.542794  0  2.166831  0
