# generated using pymatgen
data_AgH40C45Br(NO2)2
_symmetry_space_group_name_H-M   'P 1'
_cell_length_a   4.10788733
_cell_length_b   12.25600528
_cell_length_c   35.55540837
_cell_angle_alpha   90.00010980
_cell_angle_beta   91.91692306
_cell_angle_gamma   89.99991137
_symmetry_Int_Tables_number   1
_chemical_formula_structural   AgH40C45Br(NO2)2
_chemical_formula_sum   'Ag2 H80 C90 Br2 N4 O8'
_cell_volume   1789.08109130
_cell_formula_units_Z   2
loop_
 _symmetry_equiv_pos_site_id
 _symmetry_equiv_pos_as_xyz
  1  'x, y, z'
loop_
 _atom_site_type_symbol
 _atom_site_label
 _atom_site_symmetry_multiplicity
 _atom_site_fract_x
 _atom_site_fract_y
 _atom_site_fract_z
 _atom_site_occupancy
 _atom_site_pbe_bader_charge
 _atom_site_pbe_bader_spin_density
 _atom_site_pbe_cm5_charge
 _atom_site_pbe_ddec_charge
 _atom_site_pbe_ddec_spin_density
 _atom_site_pbe_ddec_sum_bond_order
 _atom_site_pbe_magmom
Ag  Ag0  1  0.99999967  0.86899401  0.24999956  1  0.348472  0  0.259674  0.166366  0  2.378109  0
Ag  Ag1  1  0.99999304  0.13100779  0.75000023  1  0.348942  0  0.259664  0.166313  0  2.378162  0
H  H2  1  0.29230258  0.90226151  0.08077590  1  0.102275  0  0.105524  0.130571  0  1.041309  0
H  H3  1  0.70770555  0.90226560  0.41922475  1  0.102275  0  0.105535  0.130601  0  1.041324  0
H  H4  1  0.70769906  0.09773811  0.91922399  1  0.102443  0  0.105515  0.130565  0  1.041307  0
H  H5  1  0.29229609  0.09773729  0.58077598  1  0.10231  0  0.105519  0.130589  0  1.041296  0
H  H6  1  0.73163307  0.86006847  0.18015793  1  0.085006  0  0.089239  0.107946  0  1.084172  0
H  H7  1  0.26836549  0.86007224  0.31984153  1  0.084981  0  0.089207  0.1079  0  1.084186  0
H  H8  1  0.26836369  0.13992952  0.81984138  1  0.08501  0  0.089242  0.107967  0  1.084155  0
H  H9  1  0.73162396  0.13992901  0.68015803  1  0.084951  0  0.089237  0.107979  0  1.084167  0
H  H10  1  0.89572929  0.18355914  0.13685331  1  0.078662  0  0.100136  0.117624  0  1.034173  0
H  H11  1  0.10428931  0.18356242  0.36314887  1  0.078587  0  0.100121  0.117628  0  1.034052  0
H  H12  1  0.10427967  0.81644048  0.86314801  1  0.07866  0  0.100126  0.117621  0  1.034144  0
H  H13  1  0.89572939  0.81643883  0.63685221  1  0.078613  0  0.100138  0.11764  0  1.034111  0
H  H14  1  0.71590008  0.27039886  0.06330363  1  0.075507  0  0.101482  0.102768  0  1.024755  0
H  H15  1  0.28409133  0.27039592  0.43669683  1  0.075529  0  0.101472  0.102687  0  1.02485  0
H  H16  1  0.28410887  0.72960484  0.93669629  1  0.075591  0  0.101483  0.102729  0  1.024849  0
H  H17  1  0.71590057  0.72960370  0.56330303  1  0.075541  0  0.101456  0.102706  0  1.024851  0
H  H18  1  0.16923193  0.10551174  0.97500828  1  0.035582  0  0.090747  0.080922  0  1.054611  0
H  H19  1  0.83075834  0.10551685  0.52499337  1  0.035603  0  0.090769  0.080973  0  1.054635  0
H  H20  1  0.83076732  0.89447727  0.02499498  1  0.03562  0  0.090786  0.081004  0  1.054604  0
H  H21  1  0.16923599  0.89448522  0.47500678  1  0.035562  0  0.090743  0.080933  0  1.05464  0
H  H22  1  0.93582506  0.57409652  0.08714336  1  0.066353  0  0.100102  0.098072  0  1.031658  0
H  H23  1  0.06417718  0.57409846  0.41285621  1  0.066361  0  0.100081  0.098055  0  1.031662  0
H  H24  1  0.06417901  0.42590392  0.91285654  1  0.066344  0  0.10011  0.098062  0  1.03166  0
H  H25  1  0.93582931  0.42590279  0.58714229  1  0.066365  0  0.100059  0.098077  0  1.031624  0
H  H26  1  0.80883848  0.42632880  0.02018718  1  0.049536  0  0.098459  0.094942  0  1.012127  0
H  H27  1  0.19113761  0.42632860  0.47981191  1  0.049711  0  0.098443  0.094867  0  1.012101  0
H  H28  1  0.19114852  0.57367000  0.97981040  1  0.049694  0  0.098458  0.095008  0  1.012123  0
H  H29  1  0.80884210  0.57367102  0.52018762  1  0.049525  0  0.098461  0.094953  0  1.012075  0
H  H30  1  0.24425038  0.55271811  0.20373957  1  0.078581  0  0.089083  0.10104  0  1.037814  0
H  H31  1  0.75574709  0.55272150  0.29626053  1  0.07854  0  0.089081  0.101012  0  1.037872  0
H  H32  1  0.75576587  0.44727906  0.79626010  1  0.07847  0  0.089036  0.100955  0  1.037866  0
H  H33  1  0.24423505  0.44728139  0.70373900  1  0.078548  0  0.089067  0.100958  0  1.037918  0
H  H34  1  0.40684246  0.28245443  0.12862504  1  0.068513  0  0.094333  0.087529  0  1.047923  0
H  H35  1  0.59316104  0.28245669  0.37137406  1  0.068595  0  0.094314  0.087524  0  1.047973  0
H  H36  1  0.59315915  0.71754437  0.87137344  1  0.068595  0  0.094313  0.08754  0  1.04792  0
H  H37  1  0.40684059  0.71754375  0.62862527  1  0.068561  0  0.094309  0.087509  0  1.047988  0
H  H38  1  0.59257503  0.41971917  0.95399639  1  0.086569  0  0.096787  0.089686  0  1.037187  0
H  H39  1  0.40739436  0.41972299  0.54600342  1  0.086831  0  0.096772  0.089638  0  1.037131  0
H  H40  1  0.40740224  0.58027147  0.04600201  1  0.086901  0  0.096779  0.089637  0  1.03714  0
H  H41  1  0.59257805  0.58027663  0.45399664  1  0.086867  0  0.096763  0.089651  0  1.037204  0
H  H42  1  0.15454289  0.38767951  0.07604850  1  0.06048  0  0.096961  0.091416  0  1.038546  0
H  H43  1  0.84546503  0.38768028  0.42395068  1  0.060514  0  0.096963  0.09148  0  1.038435  0
H  H44  1  0.84546117  0.61232174  0.92395027  1  0.060529  0  0.096972  0.09145  0  1.038461  0
H  H45  1  0.15454877  0.61232015  0.57604813  1  0.060464  0  0.096947  0.091436  0  1.038509  0
H  H46  1  0.27388428  0.25785732  0.93138593  1  0.1231  0  0.099196  0.100031  0  1.031036  0
H  H47  1  0.72608827  0.25786354  0.56861519  1  0.123093  0  0.099154  0.099905  0  1.031092  0
H  H48  1  0.72609789  0.74212925  0.06861529  1  0.123082  0  0.099185  0.099923  0  1.031092  0
H  H49  1  0.27388902  0.74213771  0.43138518  1  0.123057  0  0.099187  0.099989  0  1.030988  0
H  H50  1  0.44239830  0.36439484  0.19327244  1  0.011916  0  0.086794  0.072352  0  1.057082  0
H  H51  1  0.55759755  0.36439920  0.30672697  1  0.011944  0  0.086813  0.07239  0  1.057113  0
H  H52  1  0.55760332  0.63560070  0.80672660  1  0.011924  0  0.086809  0.072369  0  1.057098  0
H  H53  1  0.44239191  0.63560286  0.69327232  1  0.011961  0  0.086786  0.072336  0  1.05711  0
H  H54  1  0.46929396  0.14158159  0.18574330  1  0.072908  0  0.11108  0.099274  0  0.986888  0
H  H55  1  0.53071262  0.14158520  0.31425712  1  0.07283  0  0.111047  0.099199  0  0.986884  0
H  H56  1  0.53071255  0.85841884  0.81425689  1  0.072889  0  0.11107  0.099276  0  0.98685  0
H  H57  1  0.46929147  0.85841687  0.68574362  1  0.072888  0  0.111067  0.099231  0  0.986888  0
H  H58  1  0.45890028  0.00929548  0.20594531  1  0.067022  0  0.102025  0.083392  0  1.048532  0
H  H59  1  0.54110931  0.00929815  0.29405560  1  0.067043  0  0.102002  0.083331  0  1.04849  0
H  H60  1  0.54110868  0.99070495  0.79405573  1  0.066982  0  0.102042  0.083432  0  1.048477  0
H  H61  1  0.45889720  0.99070391  0.70594459  1  0.067025  0  0.102037  0.083397  0  1.048506  0
H  H62  1  0.60472012  0.04526842  0.05823459  1  0.058417  0  0.098061  0.065742  0  1.028119  0
H  H63  1  0.39529175  0.04526872  0.44176551  1  0.058507  0  0.098055  0.065759  0  1.028223  0
H  H64  1  0.39529616  0.95473038  0.94176760  1  0.058531  0  0.098097  0.065888  0  1.028139  0
H  H65  1  0.60471475  0.95473171  0.55823384  1  0.058444  0  0.098049  0.06575  0  1.028211  0
H  H66  1  0.68336207  0.69213766  0.15016815  1  0.081273  0  0.102331  0.082421  0  0.999488  0
H  H67  1  0.31664453  0.69213913  0.34983151  1  0.081237  0  0.102372  0.082439  0  0.99949  0
H  H68  1  0.31665176  0.30785951  0.84983262  1  0.081212  0  0.102354  0.082412  0  0.99953  0
H  H69  1  0.68334247  0.30786457  0.65016664  1  0.081265  0  0.102382  0.082477  0  0.999534  0
H  H70  1  0.22644433  0.02118801  0.03358017  1  0.062376  0  0.096429  0.05954  0  1.016508  0
H  H71  1  0.77355792  0.02119070  0.46642128  1  0.06235  0  0.096415  0.059528  0  1.016558  0
H  H72  1  0.77356708  0.97880834  0.96642172  1  0.062339  0  0.096428  0.059582  0  1.016557  0
H  H73  1  0.22644130  0.97881219  0.53357945  1  0.062336  0  0.096444  0.059566  0  1.016551  0
H  H74  1  0.79535685  0.28465513  0.21817029  1  0.136624  0  0.122779  0.123628  0  1.035062  0
H  H75  1  0.20462721  0.28465546  0.28183240  1  0.136459  0  0.122783  0.123613  0  1.035106  0
H  H76  1  0.20464238  0.71534775  0.78183128  1  0.136714  0  0.122794  0.123677  0  1.035032  0
H  H77  1  0.79536228  0.71534660  0.71816998  1  0.13663  0  0.122794  0.123697  0  1.035088  0
H  H78  1  0.02253721  0.71398844  0.18215800  1  0.095232  0  0.089203  0.063994  0  1.04539  0
H  H79  1  0.97746687  0.71399019  0.31784223  1  0.095108  0  0.089194  0.064008  0  1.045345  0
H  H80  1  0.97748148  0.28601200  0.81784195  1  0.095571  0  0.089202  0.064017  0  1.04536  0
H  H81  1  0.02251041  0.28601269  0.68215729  1  0.095649  0  0.089225  0.064061  0  1.04537  0
C  C82  1  0.00000310  0.04083047  0.25000049  1  0.807179  0  0.0528  -0.10737  0  3.768655  0
C  C83  1  0.00000503  0.95917186  0.74999977  1  0.80718  0  0.05292  -0.107335  0  3.768593  0
C  C84  1  0.15241968  0.93889263  0.10294252  1  -0.010779  0  -0.124108  -0.343996  0  3.965619  0
C  C85  1  0.84758586  0.93889734  0.39705843  1  -0.011109  0  -0.124154  -0.34419  0  3.965578  0
C  C86  1  0.84758684  0.06110618  0.89705823  1  -0.010939  0  -0.124108  -0.344017  0  3.9656  0
C  C87  1  0.15241335  0.06110473  0.60294202  1  -0.011168  0  -0.12411  -0.344031  0  3.965603  0
C  C88  1  0.80267247  0.02602585  0.16215063  1  0.034934  0  -0.016101  0.141699  0  4.014318  0
C  C89  1  0.19733462  0.02602894  0.33785084  1  0.035184  0  -0.016112  0.14161  0  4.014148  0
C  C90  1  0.19733648  0.97397377  0.83784985  1  0.035099  0  -0.016161  0.141664  0  4.0142  0
C  C91  1  0.80266702  0.97397231  0.66214961  1  0.035088  0  -0.01612  0.141722  0  4.014125  0
C  C92  1  0.43822362  0.17737993  0.02191489  1  -0.011494  0  -0.019482  0.073792  0  3.981419  0
C  C93  1  0.56177307  0.17737952  0.47808637  1  -0.011717  0  -0.019474  0.073858  0  3.98137  0
C  C94  1  0.56179265  0.82261806  0.97808618  1  -0.011351  0  -0.019464  0.073874  0  3.981509  0
C  C95  1  0.43822126  0.82262091  0.52191378  1  -0.011484  0  -0.01949  0.073835  0  3.981456  0
C  C96  1  0.02458922  0.87003588  0.13041117  1  0.412598  0  0.084365  0.300442  0  4.058492  0
C  C97  1  0.97541905  0.87003874  0.36958946  1  0.413024  0  0.084348  0.300435  0  4.058646  0
C  C98  1  0.97541485  0.12996292  0.86958901  1  0.412632  0  0.08435  0.300385  0  4.058612  0
C  C99  1  0.02457528  0.12996251  0.63041068  1  0.41304  0  0.084342  0.300398  0  4.058606  0
C  C100  1  0.10216554  0.05123964  0.10555177  1  0.42714  0  0.078551  0.277544  0  4.097761  0
C  C101  1  0.89785118  0.05124267  0.39444920  1  0.426995  0  0.07852  0.277633  0  4.097493  0
C  C102  1  0.89784342  0.94875998  0.89444928  1  0.427071  0  0.078456  0.277476  0  4.097666  0
C  C103  1  0.10216020  0.94875940  0.60555129  1  0.427011  0  0.078471  0.277437  0  4.097651  0
C  C104  1  0.07471357  0.57521636  0.14623033  1  -0.087338  0  -0.01381  0.08761  0  3.967751  0
C  C105  1  0.92528379  0.57522079  0.35376866  1  -0.087025  0  -0.013877  0.087432  0  3.967827  0
C  C106  1  0.92529536  0.42478326  0.85376846  1  -0.086641  0  -0.013795  0.087549  0  3.967809  0
C  C107  1  0.07470321  0.42478455  0.64622977  1  -0.087235  0  -0.013753  0.087779  0  3.967693  0
C  C108  1  0.37623995  0.08411064  0.04801608  1  0.379579  0  -0.062313  -0.010745  0  3.902426  0
C  C109  1  0.62376689  0.08411250  0.45198515  1  0.379534  0  -0.062351  -0.010859  0  3.902618  0
C  C110  1  0.62377390  0.91588735  0.95198639  1  0.379325  0  -0.062353  -0.01104  0  3.902841  0
C  C111  1  0.37623475  0.91588956  0.54801502  1  0.379578  0  -0.062288  -0.010839  0  3.902668  0
C  C112  1  0.84487388  0.91279193  0.15968707  1  -0.042646  0  -0.12743  -0.304864  0  3.981652  0
C  C113  1  0.15513177  0.91279424  0.34031358  1  -0.042829  0  -0.127324  -0.304679  0  3.98165  0
C  C114  1  0.15513020  0.08720688  0.84031311  1  -0.042828  0  -0.12737  -0.30481  0  3.981691  0
C  C115  1  0.84486500  0.08720620  0.65968685  1  -0.042813  0  -0.127361  -0.304844  0  3.981741  0
C  C116  1  0.89704664  0.21773367  0.23455764  1  0.284115  0  -0.001177  -0.10604  0  3.966221  0
C  C117  1  0.10294258  0.21773152  0.26544446  1  0.355009  0  -0.001246  -0.106109  0  3.966422  0
C  C118  1  0.10295746  0.78226921  0.76544451  1  0.354624  0  -0.001224  -0.106191  0  3.966143  0
C  C119  1  0.89704933  0.78226810  0.73455596  1  0.284389  0  -0.001252  -0.10628  0  3.966204  0
C  C120  1  0.92944759  0.09545211  0.13542620  1  -0.036025  0  -0.121704  -0.289528  0  3.966469  0
C  C121  1  0.07056651  0.09545623  0.36457562  1  -0.036001  0  -0.121691  -0.289533  0  3.966406  0
C  C122  1  0.07056137  0.90454751  0.86457484  1  -0.035971  0  -0.121673  -0.289529  0  3.966395  0
C  C123  1  0.92944244  0.90454583  0.63542486  1  -0.035964  0  -0.121745  -0.289601  0  3.966418  0
C  C124  1  0.61732837  0.26844874  0.03448073  1  -0.11213  0  -0.089624  -0.123164  0  3.96081  0
C  C125  1  0.38265573  0.26844673  0.46551969  1  -0.112145  0  -0.089591  -0.123098  0  3.960732  0
C  C126  1  0.38267327  0.73155333  0.96551916  1  -0.112193  0  -0.089629  -0.123126  0  3.960956  0
C  C127  1  0.61732885  0.73155289  0.53448013  1  -0.112075  0  -0.089606  -0.123152  0  3.960872  0
C  C128  1  0.31567547  0.17488752  0.98476272  1  0.002319  0  -0.094643  -0.136093  0  3.994193  0
C  C129  1  0.68430963  0.17489020  0.51523924  1  0.002552  0  -0.094662  -0.136185  0  3.994222  0
C  C130  1  0.68432375  0.82510721  0.01523913  1  0.002367  0  -0.094738  -0.136349  0  3.994245  0
C  C131  1  0.31567741  0.82511187  0.48476144  1  0.00234  0  -0.094666  -0.13617  0  3.99409  0
C  C132  1  0.04841060  0.52801002  0.11034732  1  0.01331  0  -0.089217  -0.124304  0  3.956059  0
C  C133  1  0.95160158  0.52801218  0.38965169  1  0.013002  0  -0.089117  -0.124098  0  3.955982  0
C  C134  1  0.95160808  0.47198960  0.88965207  1  0.012634  0  -0.089211  -0.124247  0  3.956008  0
C  C135  1  0.04840247  0.47199070  0.61034680  1  0.013067  0  -0.089174  -0.124351  0  3.956171  0
C  C136  1  0.95098291  0.68812243  0.15341287  1  0.353191  0  -0.065536  -0.022171  0  3.878279  0
C  C137  1  0.04902128  0.68812483  0.34658707  1  0.353319  0  -0.065541  -0.022153  0  3.878299  0
C  C138  1  0.04903334  0.31187801  0.84658708  1  0.352824  0  -0.065548  -0.022211  0  3.878497  0
C  C139  1  0.95096330  0.31187805  0.65341192  1  0.352741  0  -0.065601  -0.02239  0  3.878609  0
C  C140  1  0.66999394  0.35554637  0.01022801  1  0.006218  0  -0.091896  -0.081353  0  4.020452  0
C  C141  1  0.32998490  0.35554534  0.48977161  1  0.005984  0  -0.091892  -0.081277  0  4.020311  0
C  C142  1  0.32999794  0.64445162  0.98977044  1  0.006024  0  -0.091886  -0.081456  0  4.020408  0
C  C143  1  0.66999724  0.64445347  0.51022765  1  0.006198  0  -0.091887  -0.081312  0  4.02035  0
C  C144  1  0.21782106  0.51533474  0.17592688  1  0.001485  0  -0.094211  -0.131618  0  3.967388  0
C  C145  1  0.78218387  0.51533663  0.32407238  1  0.001467  0  -0.09418  -0.131534  0  3.96746  0
C  C146  1  0.78219761  0.48466488  0.82407223  1  0.001162  0  -0.094174  -0.131459  0  3.967343  0
C  C147  1  0.21780558  0.48466462  0.67592634  1  0.001296  0  -0.094224  -0.131554  0  3.96742  0
C  C148  1  0.31222462  0.36395003  0.13387271  1  -0.079611  0  -0.098646  -0.095261  0  4.02829  0
C  C149  1  0.68778097  0.36395139  0.36612617  1  -0.079963  0  -0.098594  -0.095223  0  4.028313  0
C  C150  1  0.68778675  0.63604795  0.86612609  1  -0.079919  0  -0.098568  -0.095223  0  4.02824  0
C  C151  1  0.31221822  0.63604986  0.63387258  1  -0.079972  0  -0.098567  -0.09519  0  4.028324  0
C  C152  1  0.54896020  0.35193777  0.97303139  1  -0.085369  0  -0.093495  -0.089802  0  4.010682  0
C  C153  1  0.45100949  0.35193983  0.52696838  1  -0.085798  0  -0.093514  -0.089783  0  4.010497  0
C  C154  1  0.45102438  0.64805532  0.02696760  1  -0.085542  0  -0.093452  -0.089703  0  4.010594  0
C  C155  1  0.54896292  0.64805979  0.47303112  1  -0.085746  0  -0.093524  -0.089903  0  4.010669  0
C  C156  1  0.16915069  0.42347836  0.10413241  1  -0.079785  0  -0.095488  -0.084207  0  4.016854  0
C  C157  1  0.83085221  0.42348062  0.39586706  1  -0.079438  0  -0.095531  -0.084359  0  4.01691  0
C  C158  1  0.83085581  0.57652045  0.89586694  1  -0.079489  0  -0.095539  -0.084274  0  4.01697  0
C  C159  1  0.16915185  0.57652063  0.60413171  1  -0.079385  0  -0.095525  -0.084274  0  4.016946  0
C  C160  1  0.37270436  0.26114963  0.96020440  1  -0.120132  0  -0.093219  -0.076413  0  4.002911  0
C  C161  1  0.62727304  0.26115249  0.53979646  1  -0.120011  0  -0.093177  -0.076283  0  4.002843  0
C  C162  1  0.62728511  0.73884101  0.03979629  1  -0.120385  0  -0.09322  -0.076205  0  4.002873  0
C  C163  1  0.37270911  0.73884795  0.46020336  1  -0.120137  0  -0.093151  -0.076223  0  4.002631  0
C  C164  1  0.33300127  0.40991045  0.16975916  1  -0.043196  0  -0.100768  -0.086675  0  4.052111  0
C  C165  1  0.66699925  0.40991326  0.33024029  1  -0.043166  0  -0.100828  -0.086755  0  4.052141  0
C  C166  1  0.66700766  0.59008753  0.83023991  1  -0.042843  0  -0.100824  -0.086769  0  4.052114  0
C  C167  1  0.33299020  0.59008881  0.66975899  1  -0.042896  0  -0.100768  -0.086679  0  4.05211  0
C  C168  1  0.62009457  0.07178886  0.19465123  1  0.30018  0  -0.05418  -0.105073  0  3.855999  0
C  C169  1  0.37990988  0.07179086  0.30534970  1  0.300657  0  -0.054118  -0.104874  0  3.855832  0
C  C170  1  0.37991194  0.92821158  0.80534896  1  0.300432  0  -0.054191  -0.105182  0  3.855958  0
C  C171  1  0.62009176  0.92821040  0.69465075  1  0.300485  0  -0.054152  -0.105029  0  3.855903  0
Br  Br172  1  0.50000200  0.72977423  0.24999970  1  -0.553339  0  -0.281173  -0.407296  0  1.558345  0
Br  Br173  1  0.49999720  0.27022783  0.74999990  1  -0.553832  0  -0.281168  -0.407281  0  1.55832  0
N  N174  1  0.83563043  0.10934762  0.22586732  1  -1.213331  0  -0.245209  0.060342  0  3.804517  0
N  N175  1  0.16437142  0.10934874  0.27413391  1  -1.213582  0  -0.245296  0.060242  0  3.804537  0
N  N176  1  0.16437608  0.89065608  0.77413344  1  -1.213659  0  -0.245264  0.060481  0  3.804547  0
N  N177  1  0.83562779  0.89065496  0.72586709  1  -1.213406  0  -0.245291  0.060431  0  3.804391  0
O  O178  1  0.20869297  0.12556637  0.07998537  1  -1.068673  0  -0.177701  -0.204523  0  2.551409  0
O  O179  1  0.79131856  0.12556797  0.42001647  1  -1.068715  0  -0.177628  -0.204451  0  2.551217  0
O  O180  1  0.79131843  0.87443489  0.92001681  1  -1.068661  0  -0.177606  -0.204371  0  2.551271  0
O  O181  1  0.20868795  0.87443410  0.57998400  1  -1.068664  0  -0.177659  -0.20438  0  2.551243  0
O  O182  1  0.09044436  0.76153476  0.12629927  1  -1.057088  0  -0.17931  -0.204278  0  2.518541  0
O  O183  1  0.90956195  0.76153767  0.37370101  1  -1.057024  0  -0.179263  -0.204229  0  2.518537  0
O  O184  1  0.90956214  0.23846568  0.87370008  1  -1.057018  0  -0.179299  -0.204208  0  2.518551  0
O  O185  1  0.09042994  0.23846440  0.62629857  1  -1.05701  0  -0.17929  -0.204194  0  2.518597  0
