# generated using pymatgen
data_CsLiH6C4O7
_symmetry_space_group_name_H-M   'P 1'
_cell_length_a   9.82584034
_cell_length_b   9.84894746
_cell_length_c   10.58176905
_cell_angle_alpha   117.73460043
_cell_angle_beta   112.27759462
_cell_angle_gamma   89.99923185
_symmetry_Int_Tables_number   1
_chemical_formula_structural   CsLiH6C4O7
_chemical_formula_sum   'Cs4 Li4 H24 C16 O28'
_cell_volume   819.05238670
_cell_formula_units_Z   4
loop_
 _symmetry_equiv_pos_site_id
 _symmetry_equiv_pos_as_xyz
  1  'x, y, z'
loop_
 _atom_site_type_symbol
 _atom_site_label
 _atom_site_symmetry_multiplicity
 _atom_site_fract_x
 _atom_site_fract_y
 _atom_site_fract_z
 _atom_site_occupancy
 _atom_site_hle17_bader_spin_density
 _atom_site_hle17_ddec_charge
 _atom_site_hle17_ddec_spin_density
 _atom_site_hle17_ddec_sum_bond_order
 _atom_site_hle17_magmom
 _atom_site_hse06_10hf_bader_spin_density
 _atom_site_hse06_10hf_ddec_charge
 _atom_site_hse06_10hf_ddec_spin_density
 _atom_site_hse06_10hf_ddec_sum_bond_order
 _atom_site_hse06_10hf_magmom
 _atom_site_hse06_bader_spin_density
 _atom_site_hse06_ddec_charge
 _atom_site_hse06_ddec_spin_density
 _atom_site_hse06_ddec_sum_bond_order
 _atom_site_hse06_magmom
 _atom_site_pbe_bader_spin_density
 _atom_site_pbe_cm5_charge
 _atom_site_pbe_ddec_charge
 _atom_site_pbe_ddec_spin_density
 _atom_site_pbe_ddec_sum_bond_order
 _atom_site_pbe_magmom
Cs  Cs0  1  0.74999825  0.97150516  0.00000222  1  0  0.956354  0  0.621474  0  0  0.894162  0  0.867142  0  0  0.911832  0  0.842047  0  0  0.970463  0.881626  0  0.8846  0
Cs  Cs1  1  0.25000274  0.02849513  0.99999847  1  0  0.956361  0  0.621464  0  0  0.894166  0  0.867134  0  0  0.911838  0  0.842037  0  0  0.970457  0.881633  0  0.884589  0
Cs  Cs2  1  0.74999341  0.49379191  0.99999675  1  0  0.954065  0  0.641378  0  0  0.88784  0  0.899617  0  0  0.907534  0  0.872016  0  0  0.986069  0.873477  0  0.919829  0
Cs  Cs3  1  0.25000624  0.50620720  0.00000297  1  0  0.95406  0  0.641382  0  0  0.88784  0  0.899613  0  0  0.907534  0  0.872011  0  0  0.986069  0.87348  0  0.919825  0
Li  Li4  1  0.93678906  0.42753546  0.33808897  1  0  0.859109  0  0.406574  0  0  0.822315  0  0.508899  0  0  0.831362  0  0.492253  0  0  0.497274  0.815855  0  0.520435  0
Li  Li5  1  0.56320464  0.08943462  0.66190359  1  0  0.859116  0  0.406556  0  0  0.822307  0  0.508912  0  0  0.831352  0  0.492266  0  0  0.497278  0.815841  0  0.520449  0
Li  Li6  1  0.06321083  0.57246483  0.66191040  1  0  0.859113  0  0.40656  0  0  0.822316  0  0.508891  0  0  0.831361  0  0.492246  0  0  0.497276  0.815853  0  0.520429  0
Li  Li7  1  0.43679524  0.91056567  0.33809578  1  0  0.859108  0  0.406567  0  0  0.822301  0  0.508921  0  0  0.831346  0  0.492276  0  0  0.497275  0.815839  0  0.520458  0
H  H8  1  0.90207550  0.74407999  0.74110350  1  0  0.364422  0  0.924225  0  0  0.343126  0  0.994089  0  0  0.353788  0  0.981313  0  0  0.304129  0.335345  0  1.003391  0
H  H9  1  0.59791868  0.00296998  0.25888893  1  0  0.364393  0  0.92421  0  0  0.343097  0  0.994097  0  0  0.353765  0  0.981313  0  0  0.304103  0.335314  0  1.003409  0
H  H10  1  0.09792525  0.25591913  0.25889660  1  0  0.364404  0  0.92425  0  0  0.343108  0  0.994112  0  0  0.353769  0  0.981338  0  0  0.304128  0.335325  0  1.003418  0
H  H11  1  0.40208255  0.99703148  0.74111237  1  0  0.364378  0  0.924221  0  0  0.34309  0  0.99409  0  0  0.353755  0  0.981309  0  0  0.304111  0.335305  0  1.003399  0
H  H12  1  0.09590955  0.11848951  0.66609808  1  0  0.370062  0  0.915435  0  0  0.347403  0  0.988998  0  0  0.357002  0  0.977789  0  0  0.300804  0.340755  0  0.996697  0
H  H13  1  0.40408824  0.45239772  0.33390596  1  0  0.369998  0  0.91549  0  0  0.347343  0  0.989061  0  0  0.356945  0  0.977848  0  0  0.300789  0.340697  0  0.996749  0
H  H14  1  0.90409010  0.88150961  0.33390163  1  0  0.369945  0  0.915566  0  0  0.347324  0  0.989045  0  0  0.356919  0  0.977849  0  0  0.300781  0.340681  0  0.996732  0
H  H15  1  0.59591165  0.54760257  0.66609341  1  0  0.369991  0  0.915504  0  0  0.347339  0  0.989069  0  0  0.35694  0  0.977859  0  0  0.300795  0.340692  0  0.996759  0
H  H16  1  0.03630047  0.35619859  0.11363955  1  0  0.425267  0  0.885172  0  0  0.392432  0  0.952146  0  0  0.40407  0  0.935319  0  0  0.296234  0.38466  0  0.963347  0
H  H17  1  0.46369296  0.24255972  0.88636396  1  0  0.425245  0  0.885199  0  0  0.392379  0  0.952227  0  0  0.404021  0  0.935394  0  0  0.296189  0.384608  0  0.963425  0
H  H18  1  0.96369808  0.64380053  0.88635884  1  0  0.425266  0  0.88518  0  0  0.392432  0  0.95215  0  0  0.404071  0  0.935322  0  0  0.296233  0.384657  0  0.963355  0
H  H19  1  0.53630583  0.75744057  0.11363597  1  0  0.425243  0  0.885204  0  0  0.392375  0  0.952234  0  0  0.404018  0  0.935399  0  0  0.296189  0.384601  0  0.963438  0
H  H20  1  0.15667265  0.49774527  0.28359672  1  0  0.428447  0  0.874964  0  0  0.397271  0  0.939123  0  0  0.407766  0  0.923868  0  0  0.300827  0.389762  0  0.950057  0
H  H21  1  0.34332872  0.21414912  0.71640435  1  0  0.428398  0  0.875009  0  0  0.397214  0  0.939185  0  0  0.40771  0  0.923927  0  0  0.300796  0.3897  0  0.950129  0
H  H22  1  0.84332699  0.50225385  0.71640205  1  0  0.42845  0  0.874957  0  0  0.397271  0  0.939122  0  0  0.407766  0  0.923867  0  0  0.300831  0.389761  0  0.950058  0
H  H23  1  0.65667118  0.78585117  0.28359596  1  0  0.428395  0  0.875009  0  0  0.397204  0  0.93919  0  0  0.4077  0  0.923934  0  0  0.300798  0.389695  0  0.950127  0
H  H24  1  0.72753483  0.84903084  0.58419718  1  0  0.069374  0  0.923135  0  0  0.075111  0  0.989854  0  0  0.077867  0  0.987489  0  0  0.124734  0.073109  0  0.991537  0
H  H25  1  0.77246297  0.26482816  0.41579657  1  0  0.069397  0  0.923182  0  0  0.075116  0  0.989841  0  0  0.07787  0  0.987479  0  0  0.124727  0.073111  0  0.991525  0
H  H26  1  0.27246506  0.15096945  0.41580313  1  0  0.069381  0  0.923122  0  0  0.075118  0  0.989847  0  0  0.077873  0  0.987482  0  0  0.124736  0.073118  0  0.99153  0
H  H27  1  0.22753692  0.73517213  0.58420374  1  0  0.069388  0  0.923121  0  0  0.07512  0  0.989836  0  0  0.077873  0  0.987474  0  0  0.124725  0.073115  0  0.991523  0
H  H28  1  0.84544015  0.04568232  0.56676325  1  0  0.065291  0  0.914608  0  0  0.074446  0  0.975294  0  0  0.076161  0  0.973991  0  0  0.120097  0.072984  0  0.976682  0
H  H29  1  0.65455651  0.47891270  0.43323010  1  0  0.065372  0  0.914479  0  0  0.074457  0  0.975184  0  0  0.076171  0  0.973883  0  0  0.12011  0.073004  0  0.976567  0
H  H30  1  0.15456060  0.95431680  0.43323590  1  0  0.065309  0  0.914644  0  0  0.074438  0  0.975307  0  0  0.076154  0  0.974002  0  0  0.120107  0.072985  0  0.976689  0
H  H31  1  0.34544361  0.52108877  0.56676986  1  0  0.065379  0  0.914499  0  0  0.074464  0  0.975175  0  0  0.076178  0  0.973873  0  0  0.120112  0.073005  0  0.976563  0
C  C32  1  0.87899689  0.73763914  0.48786113  1  0  0.696614  0  3.82278  0  0  0.645116  0  4.129747  0  0  0.677484  0  4.120105  0  0  0.234222  0.623362  0  4.135301  0
C  C33  1  0.62100853  0.24977838  0.51214003  1  0  0.696734  0  3.82258  0  0  0.645127  0  4.12961  0  0  0.677493  0  4.119971  0  0  0.234264  0.62338  0  4.135156  0
C  C34  1  0.12100275  0.26235998  0.51213764  1  0  0.696627  0  3.822711  0  0  0.645096  0  4.129731  0  0  0.677466  0  4.120089  0  0  0.234224  0.623344  0  4.135285  0
C  C35  1  0.37899136  0.75022191  0.48785933  1  0  0.696713  0  3.822658  0  0  0.645152  0  4.129703  0  0  0.67752  0  4.120063  0  0  0.234267  0.623394  0  4.135263  0
C  C36  1  0.85109413  0.86371641  0.62565966  1  0  0.064195  0  3.650912  0  0  0.040443  0  3.901998  0  0  0.041531  0  3.908991  0  0  9.9e-05  0.039586  0  3.897103  0
C  C37  1  0.64890494  0.23805274  0.37433646  1  0  0.06405  0  3.650891  0  0  0.040483  0  3.901664  0  0  0.041573  0  3.908657  0  0  8.1e-05  0.039636  0  3.896765  0
C  C38  1  0.14890527  0.13628153  0.37433946  1  0  0.064198  0  3.650947  0  0  0.040415  0  3.902019  0  0  0.041504  0  3.909009  0  0  8.6e-05  0.039556  0  3.897129  0
C  C39  1  0.35109605  0.76194755  0.62566329  1  0  0.064161  0  3.650714  0  0  0.040401  0  3.901772  0  0  0.04149  0  3.908765  0  0  7.7e-05  0.039551  0  3.896878  0
C  C40  1  0.91543811  0.02812031  0.66556379  1  0  0.070622  0  3.632764  0  0  0.048094  0  3.883613  0  0  0.049881  0  3.890375  0  0  -0.002415  0.046576  0  3.879551  0
C  C41  1  0.58455513  0.36255171  0.33443149  1  0  0.070552  0  3.632887  0  0  0.048145  0  3.883509  0  0  0.049939  0  3.890271  0  0  -0.002448  0.046607  0  3.879453  0
C  C42  1  0.08456288  0.97187999  0.33443691  1  0  0.070521  0  3.632948  0  0  0.048135  0  3.883554  0  0  0.049924  0  3.890311  0  0  -0.002405  0.046607  0  3.879501  0
C  C43  1  0.41544366  0.63744858  0.66556749  1  0  0.070466  0  3.632928  0  0  0.048157  0  3.883499  0  0  0.049949  0  3.890262  0  0  -0.002448  0.046623  0  3.879442  0
C  C44  1  0.89805626  0.15201525  0.81392076  1  0  0.673832  0  3.867119  0  0  0.625564  0  4.169924  0  0  0.658007  0  4.161565  0  0  0.197047  0.603346  0  4.175735  0
C  C45  1  0.60193336  0.33809122  0.18607386  1  0  0.673744  0  3.86706  0  0  0.625448  0  4.169862  0  0  0.65788  0  4.161526  0  0  0.19703  0.603232  0  4.17567  0
C  C46  1  0.10194229  0.84798386  0.18607857  1  0  0.673877  0  3.867078  0  0  0.625611  0  4.169819  0  0  0.658055  0  4.161458  0  0  0.197066  0.603391  0  4.175635  0
C  C47  1  0.39806652  0.66190907  0.81392551  1  0  0.673742  0  3.867057  0  0  0.625423  0  4.169869  0  0  0.657859  0  4.16153  0  0  0.197031  0.60322  0  4.175662  0
O  O48  1  0.82261309  0.73763352  0.35765616  1  0  -0.689713  0  2.013302  0  0  -0.631256  0  2.243101  0  0  -0.656328  0  2.232368  0  0  -0.360597  -0.614069  0  2.250481  0
O  O49  1  0.67739735  0.37997682  0.64234460  1  0  -0.689759  0  2.013269  0  0  -0.631296  0  2.243157  0  0  -0.656372  0  2.232422  0  0  -0.360609  -0.61411  0  2.250533  0
O  O50  1  0.17738655  0.26236559  0.64234356  1  0  -0.689738  0  2.013283  0  0  -0.631253  0  2.243107  0  0  -0.656329  0  2.232372  0  0  -0.360589  -0.614063  0  2.250487  0
O  O51  1  0.32260364  0.62002347  0.35765516  1  0  -0.689763  0  2.013305  0  0  -0.631295  0  2.243173  0  0  -0.65637  0  2.232436  0  0  -0.360599  -0.614104  0  2.250554  0
O  O52  1  0.95227113  0.63795743  0.50834640  1  0  -0.760469  0  1.990791  0  0  -0.716478  0  2.244244  0  0  -0.736744  0  2.228445  0  0  -0.427553  -0.701986  0  2.253523  0
O  O53  1  0.54773374  0.12961496  0.49165776  1  0  -0.760531  0  1.990713  0  0  -0.716536  0  2.244296  0  0  -0.736802  0  2.228494  0  0  -0.427593  -0.702049  0  2.253577  0
O  O54  1  0.04772876  0.36204286  0.49165296  1  0  -0.760466  0  1.990733  0  0  -0.716471  0  2.244211  0  0  -0.736737  0  2.228413  0  0  -0.427547  -0.701976  0  2.253488  0
O  O55  1  0.45226615  0.87038534  0.50834161  1  0  -0.760499  0  1.990717  0  0  -0.716509  0  2.244285  0  0  -0.736776  0  2.228484  0  0  -0.427573  -0.702015  0  2.253569  0
O  O56  1  0.91686762  0.85488788  0.76573742  1  0  -0.60342  0  2.143742  0  0  -0.558436  0  2.368137  0  0  -0.574154  0  2.358202  0  0  -0.496165  -0.547144  0  2.375086  0
O  O57  1  0.58313187  0.08914536  0.23425717  1  0  -0.603326  0  2.143593  0  0  -0.558412  0  2.367923  0  0  -0.574123  0  2.357956  0  0  -0.496142  -0.547119  0  2.37488  0
O  O58  1  0.08313337  0.14511241  0.23426233  1  0  -0.603396  0  2.143753  0  0  -0.558417  0  2.368163  0  0  -0.574136  0  2.35823  0  0  -0.496164  -0.54712  0  2.375115  0
O  O59  1  0.41686912  0.91085493  0.76574164  1  0  -0.60334  0  2.143539  0  0  -0.558377  0  2.36793  0  0  -0.574084  0  2.35796  0  0  -0.49616  -0.547082  0  2.374883  0
O  O60  1  0.06667522  0.03520965  0.68396442  1  0  -0.570967  0  2.087441  0  0  -0.532583  0  2.315263  0  0  -0.546738  0  2.304192  0  0  -0.45489  -0.522766  0  2.322667  0
O  O61  1  0.43332051  0.35124736  0.31603403  1  0  -0.57086  0  2.0875  0  0  -0.532492  0  2.315227  0  0  -0.546652  0  2.304157  0  0  -0.454834  -0.522673  0  2.322625  0
O  O62  1  0.93332467  0.96479064  0.31603495  1  0  -0.570825  0  2.087513  0  0  -0.532494  0  2.315283  0  0  -0.546648  0  2.304216  0  0  -0.454864  -0.522673  0  2.32268  0
O  O63  1  0.56668047  0.64875293  0.68396573  1  0  -0.570833  0  2.087511  0  0  -0.532472  0  2.315186  0  0  -0.54663  0  2.304117  0  0  -0.454841  -0.52265  0  2.322582  0
O  O64  1  0.01530562  0.25146824  0.93169550  1  0  -0.715791  0  2.036011  0  0  -0.655752  0  2.26763  0  0  -0.681844  0  2.258528  0  0  -0.445547  -0.63801  0  2.273565  0
O  O65  1  0.48468337  0.31977402  0.06830114  1  0  -0.715737  0  2.035977  0  0  -0.655681  0  2.267619  0  0  -0.681771  0  2.258523  0  0  -0.445587  -0.637939  0  2.273554  0
O  O66  1  0.98469403  0.74853088  0.06830422  1  0  -0.715809  0  2.036011  0  0  -0.655786  0  2.267633  0  0  -0.681878  0  2.258533  0  0  -0.445566  -0.638034  0  2.273558  0
O  O67  1  0.51531652  0.68022627  0.93169918  1  0  -0.715718  0  2.035968  0  0  -0.655661  0  2.267621  0  0  -0.681754  0  2.258524  0  0  -0.445579  -0.637925  0  2.273553  0
O  O68  1  0.76667900  0.14579635  0.80782257  1  0  -0.775285  0  2.000003  0  0  -0.732964  0  2.254051  0  0  -0.755854  0  2.242192  0  0  -0.505746  -0.717294  0  2.262222  0
O  O69  1  0.73331124  0.33796660  0.19217045  1  0  -0.775294  0  1.999998  0  0  -0.732986  0  2.254035  0  0  -0.755876  0  2.242189  0  0  -0.505735  -0.717316  0  2.262204  0
O  O70  1  0.23332065  0.85420276  0.19217715  1  0  -0.775314  0  1.999897  0  0  -0.733021  0  2.253971  0  0  -0.755912  0  2.242112  0  0  -0.505761  -0.717348  0  2.262143  0
O  O71  1  0.26668731  0.66203252  0.80782888  1  0  -0.775312  0  1.999975  0  0  -0.732987  0  2.254006  0  0  -0.755876  0  2.242158  0  0  -0.505745  -0.717323  0  2.262174  0
O  O72  1  0.06093667  0.41857951  0.22993413  1  0  -0.926749  0  1.83326  0  0  -0.874804  0  2.009788  0  0  -0.892889  0  1.975392  0  0  -0.660791  -0.861582  0  2.033024  0
O  O73  1  0.43906538  0.18864900  0.77007034  1  0  -0.926739  0  1.83336  0  0  -0.874767  0  2.00993  0  0  -0.89286  0  1.975536  0  0  -0.66073  -0.86154  0  2.033167  0
O  O74  1  0.93906322  0.58142078  0.77006618  1  0  -0.926742  0  1.833268  0  0  -0.874797  0  2.009798  0  0  -0.892883  0  1.975402  0  0  -0.660789  -0.861574  0  2.033032  0
O  O75  1  0.56093475  0.81135247  0.22992962  1  0  -0.926731  0  1.833347  0  0  -0.874747  0  2.009938  0  0  -0.892839  0  1.975542  0  0  -0.660728  -0.861523  0  2.033176  0
