# generated using pymatgen
data_CdH6C8N2(ClO)2
_symmetry_space_group_name_H-M   'P 1'
_cell_length_a   7.05945986
_cell_length_b   9.13049240
_cell_length_c   9.13046268
_cell_angle_alpha   90.10284380
_cell_angle_beta   69.11477966
_cell_angle_gamma   69.11501859
_symmetry_Int_Tables_number   1
_chemical_formula_structural   CdH6C8N2(ClO)2
_chemical_formula_sum   'Cd2 H12 C16 N4 Cl4 O4'
_cell_volume   508.09204914
_cell_formula_units_Z   2
loop_
 _symmetry_equiv_pos_site_id
 _symmetry_equiv_pos_as_xyz
  1  'x, y, z'
loop_
 _atom_site_type_symbol
 _atom_site_label
 _atom_site_symmetry_multiplicity
 _atom_site_fract_x
 _atom_site_fract_y
 _atom_site_fract_z
 _atom_site_occupancy
 _atom_site_pbe_bader_spin_density
 _atom_site_pbe_cm5_charge
 _atom_site_pbe_ddec_charge
 _atom_site_pbe_ddec_spin_density
 _atom_site_pbe_ddec_sum_bond_order
 _atom_site_pbe_magmom
Cd  Cd0  1  0.75000265  0.93813624  0.06185862  1  0  0.593252  0.849818  0  2.391266  0
Cd  Cd1  1  0.24999618  0.06186696  0.93814052  1  0  0.593257  0.849848  0  2.391175  0
H  H2  1  0.69772859  0.81034906  0.58662667  1  0  0.300745  0.290485  0  0.955857  0
H  H3  1  0.80226214  0.41336972  0.18964956  1  0  0.300674  0.290425  0  0.9559  0
H  H4  1  0.30227120  0.18964939  0.41337116  1  0  0.300707  0.290466  0  0.955819  0
H  H5  1  0.19773244  0.58662998  0.81035297  1  0  0.300662  0.29041  0  0.955879  0
H  H6  1  0.68867461  0.63396619  0.78273955  1  0  0.096775  0.12226  0  1.024554  0
H  H7  1  0.81133382  0.21726100  0.36603596  1  0  0.096801  0.122261  0  1.024593  0
H  H8  1  0.31132732  0.36603106  0.21725770  1  0  0.096738  0.122189  0  1.024594  0
H  H9  1  0.18867175  0.78273509  0.63396249  1  0  0.096804  0.122282  0  1.024565  0
H  H10  1  0.71900725  0.36189306  0.84499788  1  0  0.08993  0.108468  0  1.031879  0
H  H11  1  0.78100355  0.15500258  0.63810632  1  0  0.089892  0.108428  0  1.031962  0
H  H12  1  0.28099009  0.63811009  0.15499838  1  0  0.089905  0.108421  0  1.03188  0
H  H13  1  0.21899378  0.84499476  0.36189658  1  0  0.089923  0.108438  0  1.031951  0
C  C14  1  0.73477159  0.76834543  0.35617717  1  0  0.24078  0.37945  0  4.109211  0
C  C15  1  0.76520924  0.64383597  0.23164587  1  0  0.240794  0.379719  0  4.109155  0
C  C16  1  0.26522055  0.23165313  0.64382823  1  0  0.240721  0.379462  0  4.109116  0
C  C17  1  0.23478868  0.35616606  0.76835463  1  0  0.240789  0.379668  0  4.109214  0
C  C18  1  0.73271926  0.57700559  0.54042780  1  0  0.096952  0.139275  0  4.039957  0
C  C19  1  0.76728805  0.45957526  0.42300699  1  0  0.096893  0.139176  0  4.03991  0
C  C20  1  0.26729236  0.42299050  0.45957118  1  0  0.09689  0.139059  0  4.04014  0
C  C21  1  0.23272717  0.54042555  0.57699204  1  0  0.096891  0.139164  0  4.039978  0
C  C22  1  0.71533779  0.54185149  0.69308741  1  0  -0.100047  -0.171982  0  3.982965  0
C  C23  1  0.78466643  0.30691248  0.45814916  1  0  -0.100067  -0.171926  0  3.982702  0
C  C24  1  0.28465036  0.45815180  0.30691795  1  0  -0.099933  -0.171743  0  3.982965  0
C  C25  1  0.21533823  0.69308244  0.54185065  1  0  -0.100044  -0.17192  0  3.982883  0
C  C26  1  0.73254136  0.39044047  0.72679062  1  0  -0.100336  -0.076787  0  4.001921  0
C  C27  1  0.76747439  0.27320911  0.60956888  1  0  -0.100348  -0.076891  0  4.001755  0
C  C28  1  0.26746687  0.60955921  0.27321145  1  0  -0.100346  -0.07682  0  4.00198  0
C  C29  1  0.23252626  0.72679058  0.39043308  1  0  -0.100401  -0.076904  0  4.001838  0
N  N30  1  0.71727272  0.72644834  0.50066985  1  0  -0.36341  -0.285916  0  3.607189  0
N  N31  1  0.78272305  0.49933276  0.27355443  1  0  -0.363309  -0.285897  0  3.606862  0
N  N32  1  0.28271455  0.27355373  0.49933357  1  0  -0.363273  -0.285739  0  3.607116  0
N  N33  1  0.21727458  0.50066691  0.72644617  1  0  -0.363284  -0.28584  0  3.606821  0
Cl  Cl34  1  0.18522592  0.79995049  0.93716861  1  0  -0.261336  -0.477239  0  1.343719  0
Cl  Cl35  1  0.31477442  0.06283418  0.20004621  1  0  -0.261335  -0.47721  0  1.343691  0
Cl  Cl36  1  0.81477202  0.20005149  0.06282859  1  0  -0.261333  -0.477255  0  1.343749  0
Cl  Cl37  1  0.68522559  0.93717256  0.79995257  1  0  -0.261342  -0.477224  0  1.343696  0
O  O38  1  0.72641290  0.90341691  0.32431233  1  0  -0.296659  -0.452927  0  2.255397  0
O  O39  1  0.77357751  0.67567938  0.09658035  1  0  -0.296636  -0.452972  0  2.255504  0
O  O40  1  0.27359607  0.09657556  0.67568194  1  0  -0.296663  -0.452993  0  2.255358  0
O  O41  1  0.22642470  0.32432023  0.90341679  1  0  -0.296675  -0.452988  0  2.255634  0
