# generated using pymatgen
data_CsH7C7SO3
_symmetry_space_group_name_H-M   'P 1'
_cell_length_a   7.22588287
_cell_length_b   10.26876298
_cell_length_c   13.70624280
_cell_angle_alpha   109.67425459
_cell_angle_beta   90.00018549
_cell_angle_gamma   89.99937208
_symmetry_Int_Tables_number   1
_chemical_formula_structural   CsH7C7SO3
_chemical_formula_sum   'Cs4 H28 C28 S4 O12'
_cell_volume   957.64385939
_cell_formula_units_Z   4
loop_
 _symmetry_equiv_pos_site_id
 _symmetry_equiv_pos_as_xyz
  1  'x, y, z'
loop_
 _atom_site_type_symbol
 _atom_site_label
 _atom_site_symmetry_multiplicity
 _atom_site_fract_x
 _atom_site_fract_y
 _atom_site_fract_z
 _atom_site_occupancy
 _atom_site_hle17_bader_spin_density
 _atom_site_hle17_ddec_charge
 _atom_site_hle17_ddec_spin_density
 _atom_site_hle17_ddec_sum_bond_order
 _atom_site_hle17_magmom
 _atom_site_hse06_10hf_bader_spin_density
 _atom_site_hse06_10hf_ddec_charge
 _atom_site_hse06_10hf_ddec_spin_density
 _atom_site_hse06_10hf_ddec_sum_bond_order
 _atom_site_hse06_10hf_magmom
 _atom_site_hse06_bader_spin_density
 _atom_site_hse06_ddec_charge
 _atom_site_hse06_ddec_spin_density
 _atom_site_hse06_ddec_sum_bond_order
 _atom_site_hse06_magmom
 _atom_site_pbe_bader_spin_density
 _atom_site_pbe_cm5_charge
 _atom_site_pbe_ddec_charge
 _atom_site_pbe_ddec_spin_density
 _atom_site_pbe_ddec_sum_bond_order
 _atom_site_pbe_magmom
Cs  Cs0  1  0.32887750  0.16237229  0.43086849  1  0  0.962036  0  0.622005  0  0  0.910771  0  0.866314  0  0  0.924092  0  0.845039  0  0  0.919372  0.900806  0  0.881642  0
Cs  Cs1  1  0.82887359  0.33762873  0.56913196  1  0  0.962078  0  0.621909  0  0  0.910816  0  0.866211  0  0  0.924134  0  0.844938  0  0  0.919363  0.900841  0  0.881541  0
Cs  Cs2  1  0.67112290  0.83762987  0.56913094  1  0  0.962064  0  0.621979  0  0  0.910801  0  0.866288  0  0  0.924118  0  0.845011  0  0  0.919372  0.900854  0  0.881619  0
Cs  Cs3  1  0.17112404  0.66236929  0.43086712  1  0  0.962061  0  0.621962  0  0  0.910801  0  0.86625  0  0  0.924118  0  0.844974  0  0  0.919366  0.900846  0  0.881584  0
H  H4  1  0.72794553  0.09453313  0.20160969  1  0  0.107354  0  0.960159  0  0  0.116321  0  1.023754  0  0  0.119108  0  1.022303  0  0  0.107255  0.114338  0  1.024861  0
H  H5  1  0.22793820  0.40546563  0.79838635  1  0  0.107342  0  0.960242  0  0  0.116301  0  1.023821  0  0  0.119135  0  1.022314  0  0  0.107247  0.114289  0  1.024948  0
H  H6  1  0.27205764  0.90546493  0.79838648  1  0  0.107373  0  0.960124  0  0  0.116343  0  1.023708  0  0  0.11913  0  1.022257  0  0  0.107272  0.114349  0  1.024825  0
H  H7  1  0.77205667  0.59453037  0.20160856  1  0  0.107398  0  0.960145  0  0  0.116346  0  1.023757  0  0  0.119144  0  1.022289  0  0  0.107269  0.114333  0  1.024886  0
H  H8  1  0.45778467  0.06092406  0.08372834  1  0  0.087739  0  0.968935  0  0  0.100416  0  1.029819  0  0  0.102985  0  1.029171  0  0  0.099601  0.098512  0  1.030563  0
H  H9  1  0.95777990  0.43907178  0.91627245  1  0  0.087694  0  0.968934  0  0  0.100352  0  1.029843  0  0  0.10292  0  1.029197  0  0  0.099577  0.098444  0  1.030586  0
H  H10  1  0.54221296  0.93907806  0.91627326  1  0  0.087716  0  0.968979  0  0  0.100399  0  1.029853  0  0  0.102966  0  1.029208  0  0  0.099605  0.098496  0  1.030593  0
H  H11  1  0.04221911  0.56092520  0.08372636  1  0  0.087697  0  0.96894  0  0  0.100366  0  1.029839  0  0  0.102934  0  1.029192  0  0  0.099591  0.098456  0  1.030583  0
H  H12  1  0.27289584  0.72143756  0.17639546  1  0  0.089297  0  0.967684  0  0  0.100472  0  1.029305  0  0  0.103179  0  1.028823  0  0  0.104517  0.098563  0  1.02984  0
H  H13  1  0.77289577  0.77856586  0.82361118  1  0  0.089334  0  0.967603  0  0  0.10046  0  1.029268  0  0  0.103166  0  1.028789  0  0  0.104534  0.098554  0  1.02981  0
H  H14  1  0.72710318  0.27856868  0.82360867  1  0  0.089319  0  0.967559  0  0  0.100453  0  1.029225  0  0  0.103159  0  1.028744  0  0  0.10452  0.098546  0  1.029756  0
H  H15  1  0.22710601  0.22143931  0.17639487  1  0  0.089329  0  0.967685  0  0  0.10048  0  1.029323  0  0  0.103189  0  1.02884  0  0  0.104516  0.098574  0  1.029861  0
H  H16  1  0.54574012  0.75139896  0.29142977  1  0  0.107319  0  0.981294  0  0  0.114644  0  1.049242  0  0  0.118632  0  1.045855  0  0  0.111931  0.111664  0  1.051875  0
H  H17  1  0.04573745  0.74860422  0.70857348  1  0  0.107372  0  0.981221  0  0  0.114729  0  1.049128  0  0  0.118719  0  1.045735  0  0  0.111955  0.111745  0  1.051779  0
H  H18  1  0.45426443  0.24860111  0.70857057  1  0  0.107347  0  0.981344  0  0  0.114685  0  1.049272  0  0  0.118672  0  1.04589  0  0  0.111954  0.111701  0  1.051905  0
H  H19  1  0.95426018  0.25139791  0.29142812  1  0  0.107332  0  0.981275  0  0  0.114687  0  1.049183  0  0  0.118678  0  1.045795  0  0  0.11195  0.111703  0  1.051828  0
H  H20  1  0.08649005  0.78967011  0.05885859  1  0  0.108518  0  0.952102  0  0  0.130191  0  1.011857  0  0  0.131504  0  1.012014  0  0  0.090559  0.129162  0  1.011879  0
H  H21  1  0.58649314  0.71033066  0.94114557  1  0  0.108479  0  0.952099  0  0  0.13014  0  1.011892  0  0  0.131452  0  1.012049  0  0  0.090539  0.129109  0  1.011918  0
H  H22  1  0.91350481  0.21033302  0.94114546  1  0  0.108446  0  0.952117  0  0  0.130111  0  1.011914  0  0  0.131423  0  1.012071  0  0  0.090526  0.129081  0  1.011932  0
H  H23  1  0.41350864  0.28967144  0.05885749  1  0  0.108449  0  0.952115  0  0  0.130107  0  1.01192  0  0  0.131419  0  1.012078  0  0  0.090528  0.129077  0  1.011942  0
H  H24  1  0.09270249  0.96952466  0.07927082  1  0  0.114524  0  0.941153  0  0  0.13774  0  0.999656  0  0  0.13901  0  0.999668  0  0  0.095212  0.13673  0  0.999739  0
H  H25  1  0.59269718  0.53047604  0.92073479  1  0  0.114427  0  0.9412  0  0  0.137671  0  0.999676  0  0  0.138941  0  0.999689  0  0  0.095198  0.136657  0  0.999763  0
H  H26  1  0.90729791  0.03047743  0.92073296  1  0  0.114505  0  0.941169  0  0  0.137725  0  0.999664  0  0  0.138995  0  0.999675  0  0  0.095227  0.136717  0  0.999749  0
H  H27  1  0.40730322  0.46952709  0.07926927  1  0  0.114389  0  0.941191  0  0  0.137633  0  0.999677  0  0  0.138902  0  0.99969  0  0  0.095178  0.136615  0  0.999768  0
H  H28  1  0.21262778  0.85255875  0.97294890  1  0  0.109846  0  0.948334  0  0  0.131854  0  1.009408  0  0  0.132415  0  1.010704  0  0  0.090879  0.131498  0  1.008393  0
H  H29  1  0.71263323  0.64744312  0.02705432  1  0  0.109807  0  0.948305  0  0  0.131798  0  1.009397  0  0  0.132358  0  1.010693  0  0  0.090885  0.131443  0  1.008377  0
H  H30  1  0.78736570  0.14744337  0.02705344  1  0  0.109835  0  0.948304  0  0  0.131832  0  1.009383  0  0  0.132393  0  1.010679  0  0  0.090909  0.131479  0  1.008367  0
H  H31  1  0.28737132  0.35255898  0.97294874  1  0  0.109704  0  0.948366  0  0  0.131725  0  1.009434  0  0  0.132286  0  1.010731  0  0  0.09085  0.131369  0  1.008414  0
C  C32  1  0.65283837  0.92608018  0.25420154  1  0  -0.141846  0  3.772146  0  0  -0.114254  0  4.014156  0  0  -0.122258  0  4.036835  0  0  -0.035836  -0.109014  0  3.998868  0
C  C33  1  0.15283310  0.57392536  0.74579668  1  0  -0.141809  0  3.772247  0  0  -0.114088  0  4.014066  0  0  -0.122094  0  4.036762  0  0  -0.035845  -0.108842  0  3.998762  0
C  C34  1  0.34716203  0.07391680  0.74579726  1  0  -0.141833  0  3.772105  0  0  -0.114302  0  4.014204  0  0  -0.122306  0  4.036883  0  0  -0.035817  -0.109057  0  3.998903  0
C  C35  1  0.84716453  0.42607474  0.25420221  1  0  -0.141788  0  3.772199  0  0  -0.114076  0  4.014029  0  0  -0.12208  0  4.036714  0  0  -0.035859  -0.10884  0  3.998736  0
C  C36  1  0.62980866  0.01133970  0.19426429  1  0  -0.066385  0  3.780072  0  0  -0.090764  0  4.029472  0  0  -0.08888  0  4.049368  0  0  -0.09249  -0.091847  0  4.015875  0
C  C37  1  0.12981115  0.48865046  0.80573370  1  0  -0.066353  0  3.779792  0  0  -0.090747  0  4.029121  0  0  -0.088903  0  4.049  0  0  -0.09246  -0.091802  0  4.015507  0
C  C38  1  0.37019727  0.98865733  0.80573161  1  0  -0.066365  0  3.780024  0  0  -0.090735  0  4.029453  0  0  -0.088852  0  4.049347  0  0  -0.092504  -0.091809  0  4.015855  0
C  C39  1  0.87018509  0.51134551  0.19426338  1  0  -0.066439  0  3.779714  0  0  -0.090835  0  4.029069  0  0  -0.088961  0  4.048962  0  0  -0.092473  -0.091884  0  4.015454  0
C  C40  1  0.47658773  0.99237432  0.12892407  1  0  -0.15069  0  3.749225  0  0  -0.168764  0  3.998257  0  0  -0.173816  0  4.019566  0  0  -0.096263  -0.165474  0  3.983925  0
C  C41  1  0.97657555  0.50762551  0.87107690  1  0  -0.150612  0  3.749341  0  0  -0.168643  0  3.998391  0  0  -0.173696  0  4.019719  0  0  -0.096217  -0.165348  0  3.984037  0
C  C42  1  0.52341544  0.00762472  0.87107528  1  0  -0.150667  0  3.749061  0  0  -0.168736  0  3.998087  0  0  -0.173786  0  4.019395  0  0  -0.096262  -0.165445  0  3.983757  0
C  C43  1  0.02342623  0.49237250  0.12892218  1  0  -0.150579  0  3.749423  0  0  -0.168619  0  3.998461  0  0  -0.17367  0  4.019777  0  0  -0.096232  -0.165324  0  3.984112  0
C  C44  1  0.34433477  0.88925464  0.12184828  1  0  0.149314  0  3.757107  0  0  0.174009  0  3.993045  0  0  0.176777  0  4.016771  0  0  -0.00319  0.172195  0  3.976916  0
C  C45  1  0.84433626  0.61074105  0.87815210  1  0  0.149255  0  3.757131  0  0  0.173866  0  3.993181  0  0  0.17663  0  4.01691  0  0  -0.003183  0.172053  0  3.977046  0
C  C46  1  0.65566562  0.11075061  0.87815268  1  0  0.149317  0  3.757118  0  0  0.174025  0  3.993026  0  0  0.176792  0  4.016751  0  0  -0.003176  0.1722  0  3.976908  0
C  C47  1  0.15566275  0.38926003  0.12184996  1  0  0.1492  0  3.757352  0  0  0.173816  0  3.993407  0  0  0.17658  0  4.017139  0  0  -0.003197  0.171996  0  3.97728  0
C  C48  1  0.37355835  0.80241006  0.18056291  1  0  -0.130044  0  3.734995  0  0  -0.14566  0  3.976294  0  0  -0.150097  0  3.997286  0  0  -0.086913  -0.142854  0  3.962221  0
C  C49  1  0.87355537  0.69759058  0.81943808  1  0  -0.130114  0  3.734543  0  0  -0.145668  0  3.975914  0  0  -0.150105  0  3.996905  0  0  -0.086961  -0.14287  0  3.961861  0
C  C50  1  0.62644066  0.19759103  0.81943843  1  0  -0.130111  0  3.734961  0  0  -0.14569  0  3.976264  0  0  -0.150126  0  3.997256  0  0  -0.086953  -0.142882  0  3.962187  0
C  C51  1  0.12644641  0.30240948  0.18056298  1  0  -0.130102  0  3.73471  0  0  -0.145682  0  3.976055  0  0  -0.150118  0  3.997046  0  0  -0.086929  -0.142879  0  3.961995  0
C  C52  1  0.52600622  0.81989218  0.24626223  1  0  -0.091393  0  3.789378  0  0  -0.116165  0  4.040966  0  0  -0.114872  0  4.060099  0  0  -0.091227  -0.116881  0  4.028109  0
C  C53  1  0.02601320  0.68010390  0.75373987  1  0  -0.091466  0  3.789582  0  0  -0.116301  0  4.041104  0  0  -0.115005  0  4.06023  0  0  -0.091269  -0.117026  0  4.028276  0
C  C54  1  0.47399556  0.18010793  0.75373593  1  0  -0.091433  0  3.789456  0  0  -0.116205  0  4.041058  0  0  -0.114911  0  4.060189  0  0  -0.09125  -0.116919  0  4.028193  0
C  C55  1  0.97398582  0.31989718  0.24626219  1  0  -0.091416  0  3.789571  0  0  -0.116242  0  4.041103  0  0  -0.114952  0  4.060235  0  0  -0.091254  -0.116965  0  4.02827  0
C  C56  1  0.17557330  0.87407625  0.05472690  1  0  -0.33296  0  3.717619  0  0  -0.413234  0  3.949031  0  0  -0.41549  0  3.95845  0  0  -0.236362  -0.411307  0  3.942479  0
C  C57  1  0.67557081  0.62592280  0.94527552  1  0  -0.332759  0  3.717465  0  0  -0.413015  0  3.948934  0  0  -0.41527  0  3.958356  0  0  -0.236361  -0.411085  0  3.942384  0
C  C58  1  0.82442433  0.12592276  0.94527463  1  0  -0.332844  0  3.7176  0  0  -0.413109  0  3.949031  0  0  -0.415365  0  3.95845  0  0  -0.23638  -0.411181  0  3.942479  0
C  C59  1  0.32443097  0.37407931  0.05472681  1  0  -0.332583  0  3.71745  0  0  -0.412864  0  3.948924  0  0  -0.415121  0  3.958347  0  0  -0.236307  -0.410931  0  3.942374  0
S  S60  1  0.82478967  0.96488877  0.35353248  1  0  1.3284  0  5.697641  0  0  1.239544  0  6.214643  0  0  1.288368  0  6.187236  0  0  0.464321  1.20585  0  6.232475  0
S  S61  1  0.32479548  0.53509252  0.64646923  1  0  1.328327  0  5.697434  0  0  1.239434  0  6.214426  0  0  1.288252  0  6.187027  0  0  0.464196  1.205738  0  6.232253  0
S  S62  1  0.17521349  0.03511656  0.64646412  1  0  1.328578  0  5.697365  0  0  1.239755  0  6.214352  0  0  1.288578  0  6.186945  0  0  0.464454  1.20606  0  6.232184  0
S  S63  1  0.67520492  0.46489926  0.35353042  1  0  1.328207  0  5.697565  0  0  1.239311  0  6.214582  0  0  1.288132  0  6.187181  0  0  0.464139  1.205633  0  6.232387  0
O  O64  1  0.96471454  0.05190391  0.32789621  1  0  -0.7158  0  1.964743  0  0  -0.667607  0  2.216068  0  0  -0.688215  0  2.201623  0  0  -0.432218  -0.652923  0  2.225403  0
O  O65  1  0.46470301  0.44809918  0.67210210  1  0  -0.715605  0  1.965447  0  0  -0.667384  0  2.216765  0  0  -0.68798  0  2.202316  0  0  -0.432035  -0.652725  0  2.226143  0
O  O66  1  0.03528724  0.94809101  0.67210133  1  0  -0.716028  0  1.964357  0  0  -0.667835  0  2.215659  0  0  -0.688444  0  2.201212  0  0  -0.432371  -0.653156  0  2.225002  0
O  O67  1  0.53529185  0.55189985  0.32789797  1  0  -0.715574  0  1.965216  0  0  -0.667359  0  2.216535  0  0  -0.687959  0  2.202081  0  0  -0.432049  -0.65271  0  2.225914  0
O  O68  1  0.72003624  0.04081673  0.44892099  1  0  -0.803733  0  2.010713  0  0  -0.751971  0  2.27277  0  0  -0.773972  0  2.259052  0  0  -0.554678  -0.736287  0  2.281816  0
O  O69  1  0.22003350  0.45918202  0.55107940  1  0  -0.803748  0  2.010662  0  0  -0.752004  0  2.272741  0  0  -0.774007  0  2.259024  0  0  -0.554671  -0.736305  0  2.281754  0
O  O70  1  0.27996554  0.95918028  0.55107563  1  0  -0.803806  0  2.010635  0  0  -0.752024  0  2.272625  0  0  -0.77402  0  2.258901  0  0  -0.554714  -0.736339  0  2.281675  0
O  O71  1  0.77996552  0.54081806  0.44892021  1  0  -0.803768  0  2.010709  0  0  -0.752028  0  2.272808  0  0  -0.774022  0  2.259074  0  0  -0.55469  -0.736335  0  2.281817  0
O  O72  1  0.89508662  0.83213399  0.35637665  1  0  -0.731504  0  1.970574  0  0  -0.687562  0  2.230629  0  0  -0.708487  0  2.216586  0  0  -0.454437  -0.672735  0  2.239876  0
O  O73  1  0.39509173  0.66787172  0.64362133  1  0  -0.731642  0  1.969743  0  0  -0.687701  0  2.229785  0  0  -0.708626  0  2.215742  0  0  -0.45452  -0.672881  0  2.239048  0
O  O74  1  0.10491378  0.16786095  0.64361944  1  0  -0.731408  0  1.970873  0  0  -0.687483  0  2.230944  0  0  -0.708412  0  2.216908  0  0  -0.454394  -0.672656  0  2.240188  0
O  O75  1  0.60491143  0.33212631  0.35637702  1  0  -0.731525  0  1.970009  0  0  -0.687576  0  2.230057  0  0  -0.708504  0  2.216014  0  0  -0.454418  -0.672757  0  2.239308  0
