# generated using pymatgen
data_Cu4H24WC36S4(BrN9)2
_symmetry_space_group_name_H-M   'P 1'
_cell_length_a   13.77730576
_cell_length_b   20.50843307
_cell_length_c   20.50840173
_cell_angle_alpha   102.95947346
_cell_angle_beta   89.99905934
_cell_angle_gamma   90.00082711
_symmetry_Int_Tables_number   1
_chemical_formula_structural   Cu4H24WC36S4(BrN9)2
_chemical_formula_sum   'Cu16 H96 W4 C144 S16 Br8 N72'
_cell_volume   5647.07206946
_cell_formula_units_Z   4
loop_
 _symmetry_equiv_pos_site_id
 _symmetry_equiv_pos_as_xyz
  1  'x, y, z'
loop_
 _atom_site_type_symbol
 _atom_site_label
 _atom_site_symmetry_multiplicity
 _atom_site_fract_x
 _atom_site_fract_y
 _atom_site_fract_z
 _atom_site_occupancy
 _atom_site_pbe_bader_charge
 _atom_site_pbe_bader_spin_density
 _atom_site_pbe_cm5_charge
 _atom_site_pbe_ddec_charge
 _atom_site_pbe_ddec_spin_density
 _atom_site_pbe_ddec_sum_bond_order
 _atom_site_pbe_magmom
Cu  Cu0  1  0.16965246  0.72550164  0.61476414  1  0.546051  0  0.373766  0.338282  0  2.823012  0
Cu  Cu1  1  0.16963659  0.77448867  0.88524891  1  0.546358  0  0.373794  0.338233  0  2.823349  0
Cu  Cu2  1  0.33036291  0.38524651  0.27449191  1  0.546278  0  0.373809  0.338273  0  2.823274  0
Cu  Cu3  1  0.33034752  0.11476461  0.22550154  1  0.546065  0  0.373764  0.338261  0  2.823149  0
Cu  Cu4  1  0.83034635  0.27450395  0.38523648  1  0.546146  0  0.373772  0.33828  0  2.823061  0
Cu  Cu5  1  0.83035569  0.22550943  0.11475154  1  0.546452  0  0.373812  0.338227  0  2.823323  0
Cu  Cu6  1  0.66964171  0.61475160  0.72551049  1  0.54637  0  0.373804  0.338209  0  2.823401  0
Cu  Cu7  1  0.66965274  0.88523649  0.77449859  1  0.546145  0  0.373742  0.338245  0  2.823073  0
Cu  Cu8  1  0.17634473  0.61853182  0.74783508  1  0.612597  0  0.484651  0.325872  0  2.799991  0
Cu  Cu9  1  0.17636858  0.88146712  0.75219198  1  0.613007  0  0.48457  0.325832  0  2.799781  0
Cu  Cu10  1  0.32363242  0.25218807  0.38146541  1  0.612971  0  0.484575  0.325871  0  2.799791  0
Cu  Cu11  1  0.32364868  0.24783501  0.11853220  1  0.612483  0  0.484621  0.325823  0  2.800042  0
Cu  Cu12  1  0.82364247  0.38146728  0.25216705  1  0.612568  0  0.484599  0.325789  0  2.800065  0
Cu  Cu13  1  0.82362298  0.11853350  0.24781292  1  0.612985  0  0.484614  0.325943  0  2.799673  0
Cu  Cu14  1  0.67637002  0.74781405  0.61853933  1  0.61308  0  0.484582  0.325876  0  2.799794  0
Cu  Cu15  1  0.67635448  0.75216659  0.88146804  1  0.612581  0  0.484617  0.325812  0  2.799979  0
H  H16  1  0.84089133  0.06100442  0.36551501  1  0.123892  0  0.110276  0.076697  0  1.033595  0
H  H17  1  0.84091352  0.43899345  0.13445682  1  0.123519  0  0.110162  0.076356  0  1.033692  0
H  H18  1  0.65909005  0.63445648  0.93899628  1  0.123639  0  0.110162  0.076369  0  1.033674  0
H  H19  1  0.65910666  0.86551498  0.56100294  1  0.123846  0  0.110278  0.076683  0  1.033628  0
H  H20  1  0.15910530  0.93899667  0.63448414  1  0.123811  0  0.110284  0.076667  0  1.033594  0
H  H21  1  0.15908674  0.56100464  0.86554216  1  0.123575  0  0.110154  0.076313  0  1.033672  0
H  H22  1  0.34091239  0.36554212  0.06100476  1  0.123599  0  0.110151  0.076332  0  1.033677  0
H  H23  1  0.34089434  0.13448310  0.43899556  1  0.123819  0  0.110292  0.07672  0  1.033579  0
H  H24  1  0.73982071  0.99631187  0.42771041  1  0.12416  0  0.106001  0.105017  0  1.061628  0
H  H25  1  0.73983137  0.50367305  0.07225490  1  0.123788  0  0.105933  0.104964  0  1.061757  0
H  H26  1  0.76017293  0.57225738  0.00367757  1  0.123699  0  0.105939  0.104966  0  1.06175  0
H  H27  1  0.76017869  0.92771236  0.49631345  1  0.123851  0  0.105984  0.104983  0  1.061682  0
H  H28  1  0.26017811  0.00368772  0.57228842  1  0.124126  0  0.106004  0.105006  0  1.061643  0
H  H29  1  0.26016963  0.49632403  0.92774337  1  0.1238  0  0.105914  0.104916  0  1.061788  0
H  H30  1  0.23982879  0.42774473  0.99632521  1  0.123732  0  0.105923  0.104941  0  1.061762  0
H  H31  1  0.23982158  0.07228623  0.50368613  1  0.123912  0  0.106001  0.105039  0  1.061637  0
H  H32  1  0.50489497  0.01083609  0.29015926  1  0.140302  0  0.100922  0.111794  0  1.061106  0
H  H33  1  0.50491856  0.48914878  0.20982021  1  0.140651  0  0.100995  0.111856  0  1.060951  0
H  H34  1  0.99508338  0.70982501  0.98915353  1  0.140525  0  0.100964  0.111822  0  1.060963  0
H  H35  1  0.99510394  0.79016245  0.51083724  1  0.140357  0  0.100952  0.111839  0  1.061087  0
H  H36  1  0.49510240  0.98916250  0.70983983  1  0.140384  0  0.100951  0.111843  0  1.061088  0
H  H37  1  0.49508098  0.51084730  0.79017638  1  0.140586  0  0.100963  0.111819  0  1.060924  0
H  H38  1  0.00491689  0.29017911  0.01085018  1  0.140605  0  0.100977  0.111843  0  1.060919  0
H  H39  1  0.00489705  0.20983864  0.48916240  1  0.140383  0  0.10096  0.111841  0  1.061073  0
H  H40  1  0.61548401  0.07389510  0.23348321  1  0.130629  0  0.107766  0.096729  0  1.013048  0
H  H41  1  0.61551282  0.42610363  0.26650102  1  0.130629  0  0.107785  0.096844  0  1.012803  0
H  H42  1  0.88448840  0.76650263  0.92610732  1  0.130465  0  0.107808  0.096861  0  1.01284  0
H  H43  1  0.88451561  0.73348455  0.57389434  1  0.130694  0  0.107782  0.096754  0  1.013002  0
H  H44  1  0.38451190  0.92610650  0.76651703  1  0.130613  0  0.1078  0.09679  0  1.013055  0
H  H45  1  0.38448744  0.57389295  0.73349666  1  0.13047  0  0.1078  0.096839  0  1.012845  0
H  H46  1  0.11551042  0.23349848  0.07389573  1  0.130491  0  0.107762  0.096829  0  1.012746  0
H  H47  1  0.11548611  0.26651453  0.42610389  1  0.130318  0  0.107775  0.096755  0  1.01303  0
H  H48  1  0.48063089  0.85356998  0.58108707  1  0.109406  0  0.102748  0.110804  0  1.037325  0
H  H49  1  0.48062956  0.64643361  0.91891233  1  0.109431  0  0.102754  0.110888  0  1.037225  0
H  H50  1  0.01937154  0.41891355  0.14643490  1  0.109469  0  0.102794  0.110887  0  1.037258  0
H  H51  1  0.01936823  0.08108928  0.35357037  1  0.10938  0  0.102741  0.110801  0  1.03728  0
H  H52  1  0.51936720  0.14642961  0.41891126  1  0.109717  0  0.102748  0.110778  0  1.037276  0
H  H53  1  0.51937071  0.35356548  0.08108687  1  0.109443  0  0.102765  0.110889  0  1.037229  0
H  H54  1  0.98062945  0.58108805  0.85356583  1  0.109439  0  0.102761  0.110892  0  1.037204  0
H  H55  1  0.98063131  0.91891381  0.64642922  1  0.109421  0  0.102737  0.110798  0  1.037314  0
H  H56  1  0.37316796  0.78464619  0.63634907  1  0.114662  0  0.108013  0.092837  0  1.00411  0
H  H57  1  0.37315714  0.71535112  0.86365598  1  0.114464  0  0.108012  0.092865  0  1.00394  0
H  H58  1  0.12684031  0.36365415  0.21535271  1  0.114373  0  0.107994  0.092785  0  1.00407  0
H  H59  1  0.12683118  0.13634945  0.28464522  1  0.114644  0  0.107994  0.092817  0  1.004119  0
H  H60  1  0.62682940  0.21535440  0.36365046  1  0.11464  0  0.107997  0.092839  0  1.00405  0
H  H61  1  0.62684094  0.28464848  0.13634479  1  0.114409  0  0.108009  0.092837  0  1.004047  0
H  H62  1  0.87315850  0.63634445  0.78464687  1  0.114416  0  0.108011  0.092818  0  1.004043  0
H  H63  1  0.87316836  0.86365013  0.71535263  1  0.114679  0  0.108011  0.092835  0  1.004087  0
H  H64  1  0.16478780  0.76847182  0.48794136  1  0.108007  0  0.103717  0.081053  0  1.042227  0
H  H65  1  0.16477367  0.73150349  0.01206565  1  0.107773  0  0.103807  0.080997  0  1.04226  0
H  H66  1  0.33522571  0.51206299  0.23150946  1  0.107653  0  0.103793  0.081062  0  1.042219  0
H  H67  1  0.33521299  0.98794195  0.26847292  1  0.108009  0  0.103742  0.081096  0  1.042236  0
H  H68  1  0.83521174  0.23152727  0.51205735  1  0.108033  0  0.103736  0.081094  0  1.042208  0
H  H69  1  0.83522732  0.26849462  0.98793675  1  0.10771  0  0.103825  0.081072  0  1.042303  0
H  H70  1  0.66477528  0.48793513  0.76849441  1  0.107741  0  0.1038  0.081065  0  1.042283  0
H  H71  1  0.66478582  0.01205815  0.73152748  1  0.107936  0  0.103726  0.081065  0  1.042277  0
H  H72  1  0.26058817  0.84091710  0.42795637  1  0.120007  0  0.111859  0.115021  0  1.029801  0
H  H73  1  0.26058405  0.65905838  0.07204233  1  0.119487  0  0.11184  0.115036  0  1.029693  0
H  H74  1  0.23941970  0.57204046  0.15906277  1  0.119615  0  0.111854  0.115061  0  1.02971  0
H  H75  1  0.23941405  0.92796027  0.34092168  1  0.119927  0  0.111845  0.114986  0  1.029748  0
H  H76  1  0.73941355  0.15907797  0.57203952  1  0.120035  0  0.111847  0.114966  0  1.029762  0
H  H77  1  0.73941839  0.34093972  0.92795910  1  0.119596  0  0.11188  0.115079  0  1.029658  0
H  H78  1  0.76058347  0.42795916  0.84094094  1  0.119517  0  0.111876  0.115081  0  1.029664  0
H  H79  1  0.76058621  0.07204334  0.65908144  1  0.11989  0  0.111868  0.11503  0  1.029742  0
H  H80  1  0.09889270  0.47668565  0.74311198  1  0.049175  0  0.11066  0.078946  0  0.992318  0
H  H81  1  0.09890213  0.02329777  0.75689978  1  0.04969  0  0.110678  0.078988  0  0.992354  0
H  H82  1  0.40109798  0.25689894  0.52329708  1  0.049646  0  0.11067  0.07898  0  0.99232  0
H  H83  1  0.40110530  0.24311059  0.97668686  1  0.049188  0  0.110694  0.078978  0  0.992281  0
H  H84  1  0.90110684  0.52331393  0.25688636  1  0.049155  0  0.110676  0.078945  0  0.99226  0
H  H85  1  0.90109596  0.97670433  0.24310155  1  0.049638  0  0.11065  0.078939  0  0.992308  0
H  H86  1  0.59890229  0.74310015  0.47670163  1  0.049696  0  0.110667  0.078963  0  0.992313  0
H  H87  1  0.59889497  0.75688801  0.02331468  1  0.049305  0  0.110661  0.078918  0  0.992253  0
H  H88  1  0.95330860  0.41155938  0.69054402  1  0.09173  0  0.110821  0.118459  0  0.998927  0
H  H89  1  0.95332396  0.08843047  0.80945789  1  0.09192  0  0.110904  0.118585  0  0.99891  0
H  H90  1  0.54667773  0.30945742  0.58842909  1  0.091944  0  0.110917  0.118603  0  0.998901  0
H  H91  1  0.54668988  0.19054526  0.91156152  1  0.091277  0  0.11083  0.118458  0  0.998958  0
H  H92  1  0.04669311  0.58843918  0.30945116  1  0.091723  0  0.110886  0.118504  0  0.998888  0
H  H93  1  0.04667558  0.91157163  0.19054344  1  0.091969  0  0.110907  0.118584  0  0.998946  0
H  H94  1  0.45332399  0.69054066  0.41156940  1  0.092045  0  0.110911  0.118603  0  0.998883  0
H  H95  1  0.45330894  0.80945484  0.08843937  1  0.091265  0  0.110841  0.118458  0  0.998936  0
H  H96  1  0.90104812  0.56861146  0.58569546  1  0.141948  0  0.11137  0.126787  0  1.008848  0
H  H97  1  0.90103420  0.93139039  0.91431556  1  0.141479  0  0.111351  0.126674  0  1.008777  0
H  H98  1  0.59896388  0.41431430  0.43138783  1  0.141475  0  0.111358  0.126695  0  1.00882  0
H  H99  1  0.59895536  0.08569790  0.06861415  1  0.141904  0  0.111375  0.126759  0  1.008859  0
H  H100  1  0.09895360  0.43138862  0.41430298  1  0.141942  0  0.111359  0.126741  0  1.008893  0
H  H101  1  0.09896606  0.06861171  0.08568576  1  0.141489  0  0.111347  0.126688  0  1.008799  0
H  H102  1  0.40103566  0.58568478  0.56861039  1  0.141487  0  0.111348  0.126703  0  1.008792  0
H  H103  1  0.40104926  0.91430420  0.93138864  1  0.14195  0  0.111384  0.126816  0  1.008851  0
H  H104  1  0.04579956  0.62751419  0.64228835  1  0.146382  0  0.092029  0.061421  0  1.091178  0
H  H105  1  0.04578504  0.87248172  0.85773264  1  0.146108  0  0.091992  0.06138  0  1.091306  0
H  H106  1  0.45421291  0.35773171  0.37248063  1  0.146047  0  0.091949  0.06131  0  1.09134  0
H  H107  1  0.45420198  0.14229085  0.12751691  1  0.146355  0  0.091991  0.061387  0  1.091145  0
H  H108  1  0.95419998  0.37248689  0.35771080  1  0.146004  0  0.092028  0.061438  0  1.091187  0
H  H109  1  0.95421522  0.12752037  0.14226770  1  0.14604  0  0.091939  0.061297  0  1.091314  0
H  H110  1  0.54578518  0.64226787  0.62751868  1  0.146084  0  0.09196  0.061344  0  1.091312  0
H  H111  1  0.54580191  0.85771175  0.87248550  1  0.145983  0  0.092019  0.061415  0  1.091177  0
W  W112  1  0.17023681  0.74999643  0.75000948  1  1.515538  0  0.830992  0.748664  0  5.794509  0
W  W113  1  0.32976004  0.25000930  0.24999730  1  1.515712  0  0.830988  0.748619  0  5.794484  0
W  W114  1  0.82975983  0.25000316  0.24998983  1  1.515491  0  0.831027  0.748706  0  5.794269  0
W  W115  1  0.67023587  0.74999179  0.75000233  1  1.515827  0  0.831042  0.748752  0  5.794444  0
C  C116  1  0.76612205  0.04856067  0.35027708  1  0.443738  0  0.03478  0.082433  0  3.938236  0
C  C117  1  0.76614123  0.45143212  0.14969251  1  0.453608  0  0.035212  0.083335  0  3.938269  0
C  C118  1  0.73386376  0.64969442  0.95143484  1  0.443879  0  0.035189  0.08337  0  3.938244  0
C  C119  1  0.73387598  0.85027859  0.54856049  1  0.44369  0  0.034723  0.082314  0  3.938458  0
C  C120  1  0.23387459  0.95143991  0.64972147  1  0.443657  0  0.034731  0.082393  0  3.938359  0
C  C121  1  0.23386266  0.54856597  0.85030647  1  0.45394  0  0.03523  0.083477  0  3.938393  0
C  C122  1  0.26613723  0.35030668  0.04856724  1  0.453548  0  0.035177  0.083395  0  3.938294  0
C  C123  1  0.26612356  0.14972050  0.45143773  1  0.443749  0  0.034661  0.082244  0  3.938472  0
C  C124  1  0.70901209  0.01237990  0.38511786  1  -0.073536  0  -0.081949  -0.151033  0  3.948705  0
C  C125  1  0.70902130  0.48760343  0.11484688  1  -0.083923  0  -0.081929  -0.151294  0  3.949116  0
C  C126  1  0.79098150  0.61484930  0.98760690  1  -0.074216  0  -0.081919  -0.151303  0  3.949002  0
C  C127  1  0.79098666  0.88512009  0.51238068  1  -0.073472  0  -0.081904  -0.150931  0  3.948581  0
C  C128  1  0.29098527  0.98761968  0.61488097  1  -0.07357  0  -0.081912  -0.150979  0  3.94859  0
C  C129  1  0.29097824  0.51239264  0.88514923  1  -0.084283  0  -0.081913  -0.151255  0  3.949148  0
C  C130  1  0.20901949  0.38515129  0.01239409  1  -0.083811  0  -0.081943  -0.151334  0  3.949171  0
C  C131  1  0.20901433  0.11487949  0.48761766  1  -0.073594  0  -0.081832  -0.150899  0  3.948572  0
C  C132  1  0.61251867  0.99782568  0.36467403  1  0.021546  0  0.004027  0.038777  0  3.990907  0
C  C133  1  0.61253282  0.50215780  0.13529625  1  0.021302  0  0.003976  0.038859  0  3.990437  0
C  C134  1  0.88747283  0.63529986  0.00216008  1  0.021297  0  0.004  0.038729  0  3.990565  0
C  C135  1  0.88748154  0.86467733  0.49782729  1  0.021464  0  0.003941  0.038737  0  3.990827  0
C  C136  1  0.38747942  0.00217290  0.63532360  1  0.021576  0  0.003957  0.038738  0  3.990747  0
C  C137  1  0.38747035  0.49784027  0.86470078  1  0.020053  0  0.003984  0.0388  0  3.990436  0
C  C138  1  0.11253034  0.36470224  0.99784076  1  0.021214  0  0.003985  0.038879  0  3.990508  0
C  C139  1  0.11251945  0.13532176  0.50217240  1  0.021614  0  0.003902  0.03867  0  3.990764  0
C  C140  1  0.57861462  0.02028688  0.30903865  1  0.018665  0  -0.073917  -0.132444  0  3.907361  0
C  C141  1  0.57863485  0.47969853  0.19093722  1  0.020211  0  -0.073923  -0.132319  0  3.90676  0
C  C142  1  0.92136641  0.69094206  0.97970147  1  0.02027  0  -0.07389  -0.132206  0  3.90679  0
C  C143  1  0.92138424  0.80904183  0.52028786  1  0.020469  0  -0.073886  -0.132406  0  3.907294  0
C  C144  1  0.42138274  0.97971120  0.69095887  1  0.020456  0  -0.073893  -0.132416  0  3.907217  0
C  C145  1  0.42136397  0.52029904  0.80905824  1  0.021487  0  -0.073907  -0.132304  0  3.90672  0
C  C146  1  0.07863313  0.30906205  0.02030225  1  0.020179  0  -0.0739  -0.132309  0  3.906761  0
C  C147  1  0.07861748  0.19095826  0.47971107  1  0.020393  0  -0.073865  -0.13233  0  3.907282  0
C  C148  1  0.64085834  0.05598593  0.27674278  1  0.442742  0  0.046141  0.101492  0  3.888558  0
C  C149  1  0.64088281  0.44401096  0.22323639  1  0.442108  0  0.045908  0.101021  0  3.888859  0
C  C150  1  0.85911700  0.72323975  0.94401390  1  0.442127  0  0.045849  0.100993  0  3.888892  0
C  C151  1  0.85914051  0.77674473  0.55598550  1  0.441072  0  0.046154  0.10144  0  3.888507  0
C  C152  1  0.35913684  0.94401366  0.72325653  1  0.440923  0  0.046136  0.101406  0  3.88861  0
C  C153  1  0.35911601  0.55598661  0.77676005  1  0.442112  0  0.045885  0.10109  0  3.88893  0
C  C154  1  0.14088181  0.27676286  0.05598803  1  0.442217  0  0.045982  0.10114  0  3.888737  0
C  C155  1  0.14085975  0.22325435  0.44401272  1  0.441211  0  0.046104  0.101369  0  3.888677  0
C  C156  1  0.54899161  0.96141211  0.40150220  1  0.939984  0  0.240681  0.238575  0  3.985599  0
C  C157  1  0.54899585  0.53857194  0.09847621  1  0.939711  0  0.2407  0.238574  0  3.985136  0
C  C158  1  0.95100762  0.59847801  0.03857409  1  0.940333  0  0.240782  0.238737  0  3.984896  0
C  C159  1  0.95100714  0.90150565  0.46141352  1  0.939932  0  0.240679  0.238538  0  3.985577  0
C  C160  1  0.45100647  0.03858597  0.59849483  1  0.939959  0  0.240603  0.238417  0  3.985575  0
C  C161  1  0.45100514  0.46142815  0.90152419  1  0.940064  0  0.240708  0.238602  0  3.985084  0
C  C162  1  0.04899409  0.40152460  0.96142881  1  0.93977  0  0.240736  0.238642  0  3.985029  0
C  C163  1  0.04899312  0.09849545  0.53858759  1  0.939919  0  0.24064  0.238467  0  3.985539  0
C  C164  1  0.43960223  0.89350735  0.46503102  1  0.948058  0  0.242881  0.240265  0  3.984447  0
C  C165  1  0.43960443  0.60647995  0.03496050  1  0.948853  0  0.242928  0.240291  0  3.98412  0
C  C166  1  0.06039946  0.53496253  0.10648289  1  0.949135  0  0.242975  0.240413  0  3.984139  0
C  C167  1  0.06039985  0.96503488  0.39350961  1  0.948631  0  0.242931  0.240432  0  3.984173  0
C  C168  1  0.56039803  0.10648923  0.53496617  1  0.948715  0  0.242977  0.240446  0  3.984152  0
C  C169  1  0.56039729  0.39351813  0.96503653  1  0.949207  0  0.242965  0.240437  0  3.984141  0
C  C170  1  0.93960153  0.46504008  0.89352049  1  0.948841  0  0.242972  0.240303  0  3.98416  0
C  C171  1  0.93960186  0.03497023  0.60649335  1  0.948053  0  0.242847  0.240219  0  3.984347  0
C  C172  1  0.37944592  0.85267534  0.49933829  1  -0.029392  0  0.004562  0.035911  0  4.000177  0
C  C173  1  0.37943968  0.64731404  0.00066020  1  -0.029605  0  0.004507  0.035914  0  3.999907  0
C  C174  1  0.12056129  0.50066088  0.14731726  1  -0.029619  0  0.004491  0.035841  0  4.00003  0
C  C175  1  0.12055690  0.99934149  0.35267713  1  -0.029209  0  0.00453  0.035875  0  4.000147  0
C  C176  1  0.62055652  0.14732173  0.50065803  1  -0.029179  0  0.004516  0.035838  0  4.00009  0
C  C177  1  0.62056058  0.35268405  0.99933976  1  -0.029613  0  0.00454  0.035928  0  3.999903  0
C  C178  1  0.87943898  0.49934223  0.85268623  1  -0.029639  0  0.004575  0.036004  0  3.999923  0
C  C179  1  0.87944336  0.00066210  0.64732403  1  -0.029548  0  0.00454  0.035946  0  4.000104  0
C  C180  1  0.41097585  0.83624378  0.55882809  1  -0.007234  0  -0.081111  -0.153552  0  3.955764  0
C  C181  1  0.41097217  0.66375179  0.94117276  1  -0.007131  0  -0.081045  -0.153611  0  3.95573  0
C  C182  1  0.08902888  0.44117306  0.16375413  1  -0.007104  0  -0.081143  -0.153661  0  3.955859  0
C  C183  1  0.08902551  0.05883026  0.33624512  1  -0.007255  0  -0.081127  -0.153583  0  3.955817  0
C  C184  1  0.58902369  0.16375430  0.44116992  1  -0.007637  0  -0.081065  -0.153439  0  3.955648  0
C  C185  1  0.58902665  0.33624580  0.05882660  1  -0.007124  0  -0.08111  -0.153638  0  3.955775  0
C  C186  1  0.91097139  0.55882804  0.83624697  1  -0.007032  0  -0.081102  -0.153703  0  3.955803  0
C  C187  1  0.91097548  0.94117283  0.66375496  1  -0.007251  0  -0.081093  -0.153513  0  3.95579  0
C  C188  1  0.35126163  0.79781829  0.58977196  1  0.443627  0  0.041359  0.092308  0  3.922995  0
C  C189  1  0.35125519  0.70217485  0.91023243  1  0.443645  0  0.041395  0.092347  0  3.922709  0
C  C190  1  0.14874366  0.41023109  0.20217746  1  0.443779  0  0.041412  0.092453  0  3.922829  0
C  C191  1  0.14873756  0.08977215  0.29781820  1  0.443592  0  0.041363  0.092313  0  3.923122  0
C  C192  1  0.64873645  0.20218130  0.41022784  1  0.443607  0  0.041329  0.092237  0  3.922997  0
C  C193  1  0.64874362  0.29782376  0.08976911  1  0.443771  0  0.041373  0.092357  0  3.922851  0
C  C194  1  0.85125588  0.58976800  0.79782272  1  0.443778  0  0.041381  0.092421  0  3.922874  0
C  C195  1  0.85126271  0.91022793  0.70217976  1  0.443647  0  0.041382  0.092309  0  3.923014  0
C  C196  1  0.23462801  0.78962335  0.50695677  1  0.533318  0  0.044354  0.099132  0  3.91302  0
C  C197  1  0.23461752  0.71036189  0.99304422  1  0.534027  0  0.04406  0.098924  0  3.913065  0
C  C198  1  0.26538120  0.49304366  0.21036532  1  0.534172  0  0.044037  0.098791  0  3.91321  0
C  C199  1  0.26537277  0.00695844  0.28962443  1  0.533369  0  0.044308  0.099055  0  3.913067  0
C  C200  1  0.76537226  0.21037623  0.49304059  1  0.533411  0  0.044292  0.099047  0  3.912957  0
C  C201  1  0.76538202  0.28963670  0.00695536  1  0.534065  0  0.04405  0.098884  0  3.91319  0
C  C202  1  0.73461762  0.50695595  0.78963643  1  0.534066  0  0.043973  0.098747  0  3.913326  0
C  C203  1  0.73462604  0.99304265  0.71037570  1  0.533277  0  0.044318  0.099078  0  3.913153  0
C  C204  1  0.28883175  0.82876351  0.47332142  1  -0.00704  0  -0.072566  -0.135936  0  3.912903  0
C  C205  1  0.28882249  0.67122269  0.02667833  1  -0.007492  0  -0.072424  -0.135824  0  3.912493  0
C  C206  1  0.21117841  0.52667705  0.17122516  1  -0.007459  0  -0.072402  -0.13575  0  3.912711  0
C  C207  1  0.21117042  0.97332400  0.32876600  1  -0.007335  0  -0.072512  -0.135872  0  3.912807  0
C  C208  1  0.71116924  0.17123407  0.52667599  1  -0.007317  0  -0.072494  -0.1358  0  3.912709  0
C  C209  1  0.71117851  0.32877641  0.97332283  1  -0.00745  0  -0.072444  -0.135853  0  3.912643  0
C  C210  1  0.78882185  0.47332256  0.82877659  1  -0.007527  0  -0.072465  -0.135862  0  3.912608  0
C  C211  1  0.78883057  0.02667860  0.67123641  1  -0.00688  0  -0.072564  -0.135963  0  3.912918  0
C  C212  1  0.05245827  0.49533027  0.70817148  1  0.469542  0  0.036912  0.080002  0  3.965799  0
C  C213  1  0.05247079  0.00465731  0.79184218  1  0.469531  0  0.037073  0.080177  0  3.965616  0
C  C214  1  0.44753001  0.29184083  0.50465629  1  0.469183  0  0.037049  0.080132  0  3.965455  0
C  C215  1  0.44753902  0.20817159  0.99533313  1  0.469673  0  0.036928  0.080041  0  3.965642  0
C  C216  1  0.94754054  0.50466731  0.29182593  1  0.469635  0  0.036894  0.080006  0  3.965452  0
C  C217  1  0.94752875  0.99534479  0.20815915  1  0.469568  0  0.037088  0.080229  0  3.965438  0
C  C218  1  0.55247025  0.70815827  0.49534389  1  0.469684  0  0.037098  0.080227  0  3.965549  0
C  C219  1  0.55245834  0.79182852  0.00467019  1  0.469469  0  0.037007  0.080152  0  3.965654  0
C  C220  1  0.97209015  0.45935345  0.67916827  1  -0.017186  0  -0.077953  -0.148965  0  3.941871  0
C  C221  1  0.97209983  0.04063958  0.82084145  1  -0.017018  0  -0.078237  -0.149454  0  3.942025  0
C  C222  1  0.52790191  0.32084032  0.54063697  1  -0.017001  0  -0.078199  -0.149426  0  3.941969  0
C  C223  1  0.52790973  0.17916922  0.95935486  1  -0.016708  0  -0.078048  -0.149079  0  3.941802  0
C  C224  1  0.02791157  0.54064562  0.32082849  1  -0.016865  0  -0.078008  -0.14903  0  3.941556  0
C  C225  1  0.02789971  0.95936201  0.17915928  1  -0.017015  0  -0.078207  -0.14943  0  3.941955  0
C  C226  1  0.47210053  0.67915676  0.45936082  1  -0.0172  0  -0.078225  -0.149489  0  3.942022  0
C  C227  1  0.47208981  0.82083137  0.04064467  1  -0.01676  0  -0.078046  -0.149051  0  3.942019  0
C  C228  1  0.91466176  0.48596874  0.63498196  1  0.042514  0  0.018003  0.06646  0  3.960059  0
C  C229  1  0.91466034  0.01403235  0.86502673  1  0.042198  0  0.018083  0.066625  0  3.959734  0
C  C230  1  0.58533920  0.36502539  0.51402789  1  0.042692  0  0.018056  0.06668  0  3.959492  0
C  C231  1  0.58533887  0.13498414  0.98597160  1  0.042455  0  0.017999  0.066498  0  3.959809  0
C  C232  1  0.08534141  0.51403083  0.36501442  1  0.042193  0  0.018053  0.06663  0  3.959863  0
C  C233  1  0.08533848  0.98597174  0.13497454  1  0.042566  0  0.018095  0.066692  0  3.959587  0
C  C234  1  0.41466179  0.63497219  0.48597001  1  0.042418  0  0.018077  0.066686  0  3.959629  0
C  C235  1  0.41466067  0.86501747  0.01403157  1  0.042506  0  0.018049  0.066522  0  3.959944  0
C  C236  1  0.94231023  0.54700087  0.62082079  1  0.033833  0  -0.067426  -0.121753  0  3.885885  0
C  C237  1  0.94229838  0.95299731  0.87919142  1  0.034171  0  -0.067435  -0.121464  0  3.885257  0
C  C238  1  0.55769973  0.37919156  0.45299473  1  0.034108  0  -0.067401  -0.121542  0  3.885308  0
C  C239  1  0.55769177  0.12082081  0.04700286  1  0.033795  0  -0.067426  -0.121759  0  3.885818  0
C  C240  1  0.05769221  0.45300073  0.37918042  1  0.033839  0  -0.067483  -0.121846  0  3.885941  0
C  C241  1  0.05770043  0.04700428  0.12080882  1  0.034113  0  -0.067459  -0.121585  0  3.885415  0
C  C242  1  0.44230126  0.62080802  0.54700312  1  0.034119  0  -0.067475  -0.121649  0  3.885404  0
C  C243  1  0.44231140  0.87917980  0.95299862  1  0.03406  0  -0.067492  -0.121911  0  3.885848  0
C  C244  1  0.02301725  0.57988588  0.65249252  1  0.413217  0  0.041918  0.109477  0  3.907312  0
C  C245  1  0.02300837  0.92010735  0.84752667  1  0.414033  0  0.042006  0.109382  0  3.907037  0
C  C246  1  0.47699098  0.34752555  0.42010464  1  0.414396  0  0.042064  0.109462  0  3.907167  0
C  C247  1  0.47698435  0.15249317  0.07988888  1  0.413312  0  0.041948  0.109499  0  3.907299  0
C  C248  1  0.97698301  0.42011421  0.34750788  1  0.413427  0  0.041944  0.109463  0  3.907293  0
C  C249  1  0.97699117  0.07989575  0.15247390  1  0.414404  0  0.042062  0.109476  0  3.906978  0
C  C250  1  0.52300929  0.65247353  0.57989359  1  0.413995  0  0.042028  0.109429  0  3.906962  0
C  C251  1  0.52301955  0.84750844  0.92011429  1  0.41337  0  0.04194  0.109496  0  3.907353  0
C  C252  1  0.82693490  0.45221639  0.60371085  1  1.005689  0  0.245148  0.246651  0  4.002243  0
C  C253  1  0.82693271  0.04778402  0.89629523  1  1.005641  0  0.245212  0.246546  0  4.002432  0
C  C254  1  0.67306818  0.39629392  0.54778096  1  1.005343  0  0.245141  0.246457  0  4.002301  0
C  C255  1  0.67306655  0.10371378  0.95221961  1  1.005814  0  0.24514  0.246656  0  4.002141  0
C  C256  1  0.17306827  0.54778218  0.39628531  1  1.006054  0  0.24511  0.246566  0  4.002237  0
C  C257  1  0.17306755  0.95221708  0.10370637  1  1.00539  0  0.245183  0.246489  0  4.0023  0
C  C258  1  0.32693281  0.60370366  0.45221547  1  1.005455  0  0.245205  0.24659  0  4.002179  0
C  C259  1  0.32693444  0.89628782  0.04778258  1  1.005707  0  0.245138  0.246689  0  4.00217  0
S  S260  1  0.26338712  0.67423183  0.68141300  1  -0.67367  0  -0.403998  -0.439759  0  2.776539  0
S  S261  1  0.26338852  0.82575973  0.81860662  1  -0.673907  0  -0.403934  -0.439724  0  2.776591  0
S  S262  1  0.23661028  0.31860405  0.32576039  1  -0.673937  0  -0.403977  -0.439739  0  2.776671  0
S  S263  1  0.23660994  0.18141084  0.17423198  1  -0.673676  0  -0.403965  -0.439734  0  2.776474  0
S  S264  1  0.73661024  0.32576927  0.31858810  1  -0.673807  0  -0.404026  -0.439824  0  2.776631  0
S  S265  1  0.73660811  0.17424087  0.18139486  1  -0.673929  0  -0.403951  -0.43969  0  2.776566  0
S  S266  1  0.76338853  0.68139604  0.67423952  1  -0.674059  0  -0.403961  -0.439722  0  2.776652  0
S  S267  1  0.76338815  0.81858776  0.82576809  1  -0.673696  0  -0.403982  -0.439755  0  2.776487  0
S  S268  1  0.07717423  0.80195968  0.68713071  1  -0.672692  0  -0.412498  -0.453208  0  2.80357  0
S  S269  1  0.07715559  0.69804042  0.81288159  1  -0.672962  0  -0.412554  -0.453263  0  2.804047  0
S  S270  1  0.42284124  0.31287951  0.19803920  1  -0.673  0  -0.412555  -0.453241  0  2.804024  0
S  S271  1  0.42282626  0.18712833  0.30195887  1  -0.672747  0  -0.412472  -0.453168  0  2.803577  0
S  S272  1  0.92282313  0.19804042  0.31287066  1  -0.67285  0  -0.41247  -0.453189  0  2.803421  0
S  S273  1  0.92284105  0.30196018  0.18711990  1  -0.67295  0  -0.41254  -0.453222  0  2.803869  0
S  S274  1  0.57715902  0.68711958  0.80196000  1  -0.673021  0  -0.412558  -0.453262  0  2.803986  0
S  S275  1  0.57717183  0.81287176  0.69804104  1  -0.672925  0  -0.412517  -0.453244  0  2.803672  0
Br  Br276  1  0.06849163  0.66510488  0.52459332  1  -0.625618  0  -0.339146  -0.499744  0  1.264935  0
Br  Br277  1  0.06849735  0.83489421  0.97542714  1  -0.625709  0  -0.339162  -0.49974  0  1.264931  0
Br  Br278  1  0.43150193  0.47542576  0.33489395  1  -0.625698  0  -0.339137  -0.49972  0  1.264932  0
Br  Br279  1  0.43150132  0.02458913  0.16510117  1  -0.625652  0  -0.339151  -0.499748  0  1.264922  0
Br  Br280  1  0.93150500  0.33489674  0.47540985  1  -0.625635  0  -0.339159  -0.499765  0  1.264952  0
Br  Br281  1  0.93150146  0.16510639  0.02457434  1  -0.625733  0  -0.339167  -0.499764  0  1.264945  0
Br  Br282  1  0.56849978  0.52457533  0.66510617  1  -0.625711  0  -0.339155  -0.499742  0  1.264963  0
Br  Br283  1  0.56849967  0.97540946  0.83489841  1  -0.625632  0  -0.339167  -0.499766  0  1.264964  0
N  N284  1  0.73338796  0.07046688  0.29674890  1  -1.202398  0  -0.357475  -0.199236  0  3.638602  0
N  N285  1  0.73340679  0.42952870  0.20322750  1  -1.201326  0  -0.357561  -0.199382  0  3.639334  0
N  N286  1  0.76659379  0.70322841  0.92953142  1  -1.201307  0  -0.357564  -0.199465  0  3.639401  0
N  N287  1  0.76660940  0.79674986  0.57046715  1  -1.202492  0  -0.357459  -0.199149  0  3.638596  0
N  N288  1  0.26660578  0.92953271  0.70325041  1  -1.202333  0  -0.357439  -0.199136  0  3.638673  0
N  N289  1  0.26659202  0.57046888  0.79677137  1  -1.201334  0  -0.357557  -0.199512  0  3.639372  0
N  N290  1  0.23340647  0.29677119  0.07047131  1  -1.201321  0  -0.357571  -0.199493  0  3.639296  0
N  N291  1  0.23339232  0.20325023  0.42953130  1  -1.202305  0  -0.357452  -0.199175  0  3.638625  0
N  N292  1  0.58437213  0.94642269  0.45803665  1  -0.572932  0  -0.152245  -0.143448  0  3.236853  0
N  N293  1  0.58437155  0.55356514  0.04194415  1  -0.572794  0  -0.152097  -0.143276  0  3.236873  0
N  N294  1  0.91563053  0.54194701  0.05357052  1  -0.573185  0  -0.152173  -0.143364  0  3.236777  0
N  N295  1  0.91562947  0.95803993  0.44642501  1  -0.572895  0  -0.152212  -0.143401  0  3.236892  0
N  N296  1  0.41562668  0.05357489  0.54196125  1  -0.572996  0  -0.15216  -0.143359  0  3.236783  0
N  N297  1  0.41562871  0.44643144  0.95805401  1  -0.573081  0  -0.152131  -0.143317  0  3.236881  0
N  N298  1  0.08437046  0.45805661  0.94643455  1  -0.572748  0  -0.152145  -0.143436  0  3.236808  0
N  N299  1  0.08437297  0.04196168  0.55357767  1  -0.572951  0  -0.152131  -0.143271  0  3.236798  0
N  N300  1  0.52906736  0.91161544  0.49006118  1  -0.557786  0  -0.150294  -0.147314  0  3.241412  0
N  N301  1  0.52906688  0.58837300  0.00992377  1  -0.557839  0  -0.15042  -0.147275  0  3.24141  0
N  N302  1  0.97093520  0.50992727  0.08837728  1  -0.557973  0  -0.150341  -0.147285  0  3.241458  0
N  N303  1  0.97093497  0.99006508  0.41161688  1  -0.558382  0  -0.150259  -0.147296  0  3.241406  0
N  N304  1  0.47093290  0.08838214  0.50993575  1  -0.558359  0  -0.150334  -0.147321  0  3.241312  0
N  N305  1  0.47093266  0.41162408  0.99007304  1  -0.558007  0  -0.15039  -0.147352  0  3.241493  0
N  N306  1  0.02906434  0.49007685  0.91162790  1  -0.557815  0  -0.150398  -0.147164  0  3.241449  0
N  N307  1  0.02906675  0.00993852  0.58838477  1  -0.557799  0  -0.150294  -0.147337  0  3.241508  0
N  N308  1  0.40161237  0.91288955  0.41123616  1  -0.53506  0  -0.139941  -0.128378  0  3.205784  0
N  N309  1  0.40161499  0.58708593  0.08874978  1  -0.535113  0  -0.140069  -0.12855  0  3.205611  0
N  N310  1  0.09838811  0.58875212  0.08708896  1  -0.535276  0  -0.140101  -0.128627  0  3.205777  0
N  N311  1  0.09838686  0.91123953  0.41289358  1  -0.534686  0  -0.139998  -0.128488  0  3.205791  0
N  N312  1  0.59838644  0.08710603  0.58876081  1  -0.534662  0  -0.140034  -0.128568  0  3.205753  0
N  N313  1  0.59838672  0.41291315  0.91124942  1  -0.535261  0  -0.140128  -0.12868  0  3.20563  0
N  N314  1  0.90161433  0.41125100  0.91291503  1  -0.535155  0  -0.140106  -0.12857  0  3.205595  0
N  N315  1  0.90161267  0.08876459  0.58711013  1  -0.535047  0  -0.139898  -0.128367  0  3.205759  0
N  N316  1  0.45711238  0.94692589  0.37881450  1  -0.558314  0  -0.138298  -0.121041  0  3.190881  0
N  N317  1  0.45711710  0.55304951  0.12116935  1  -0.558983  0  -0.138179  -0.12105  0  3.190256  0
N  N318  1  0.04288674  0.62117078  0.05305300  1  -0.559121  0  -0.138214  -0.121022  0  3.190332  0
N  N319  1  0.04288758  0.87881643  0.44692722  1  -0.558593  0  -0.13829  -0.121073  0  3.190908  0
N  N320  1  0.54288571  0.05307070  0.62118318  1  -0.558664  0  -0.138242  -0.120955  0  3.190837  0
N  N321  1  0.54288317  0.44694959  0.87883034  1  -0.558992  0  -0.138172  -0.120974  0  3.190138  0
N  N322  1  0.95711643  0.37883183  0.94695088  1  -0.558989  0  -0.138192  -0.121065  0  3.190288  0
N  N323  1  0.95711559  0.12118517  0.55307399  1  -0.55828  0  -0.13832  -0.121043  0  3.190912  0
N  N324  1  0.26438839  0.77453830  0.56445192  1  -1.207423  0  -0.344204  -0.194059  0  3.594443  0
N  N325  1  0.26437675  0.72544967  0.93554983  1  -1.207291  0  -0.344174  -0.193957  0  3.594224  0
N  N326  1  0.23562275  0.43554835  0.22545286  1  -1.207547  0  -0.344154  -0.193992  0  3.594318  0
N  N327  1  0.23561159  0.06445353  0.27453863  1  -1.207354  0  -0.344183  -0.194018  0  3.594465  0
N  N328  1  0.73561042  0.22546178  0.43554603  1  -1.207351  0  -0.344176  -0.194051  0  3.594409  0
N  N329  1  0.73562351  0.27454994  0.06445143  1  -1.207478  0  -0.344178  -0.194007  0  3.594299  0
N  N330  1  0.76437678  0.56445075  0.77454878  1  -1.207542  0  -0.344085  -0.193883  0  3.594355  0
N  N331  1  0.76438867  0.93554756  0.72546052  1  -1.207305  0  -0.344188  -0.194019  0  3.594432  0
N  N332  1  0.07726000  0.55515700  0.69604167  1  -1.226224  0  -0.357775  -0.199303  0  3.6229  0
N  N333  1  0.07726217  0.94483015  0.80397755  1  -1.227081  0  -0.357889  -0.19937  0  3.622622  0
N  N334  1  0.42273866  0.30397764  0.44482932  1  -1.227169  0  -0.357885  -0.199344  0  3.622621  0
N  N335  1  0.42274085  0.19603964  0.05515960  1  -1.226381  0  -0.357728  -0.199264  0  3.622921  0
N  N336  1  0.92273881  0.44484160  0.30395889  1  -1.226218  0  -0.357768  -0.199273  0  3.622832  0
N  N337  1  0.92273737  0.05517094  0.19602258  1  -1.227484  0  -0.357864  -0.199385  0  3.622495  0
N  N338  1  0.57726160  0.69602295  0.55517021  1  -1.227086  0  -0.357858  -0.199331  0  3.622469  0
N  N339  1  0.57726232  0.80395947  0.94484253  1  -1.226178  0  -0.35781  -0.19932  0  3.622896  0
N  N340  1  0.78883589  0.40211280  0.62819237  1  -0.591917  0  -0.1595  -0.153848  0  3.233778  0
N  N341  1  0.78884048  0.09788628  0.87180749  1  -0.591946  0  -0.159515  -0.153868  0  3.233799  0
N  N342  1  0.71115820  0.37180761  0.59788455  1  -0.567517  0  -0.159461  -0.153794  0  3.233774  0
N  N343  1  0.71116342  0.12819487  0.90211398  1  -0.567608  0  -0.159472  -0.153825  0  3.233694  0
N  N344  1  0.21116655  0.59788577  0.37180428  1  -0.568084  0  -0.15947  -0.153877  0  3.23382  0
N  N345  1  0.21115688  0.90211481  0.12819215  1  -0.56759  0  -0.159531  -0.153851  0  3.233763  0
N  N346  1  0.28884279  0.62819147  0.40211319  1  -0.59151  0  -0.159466  -0.153759  0  3.23372  0
N  N347  1  0.28883612  0.87180723  0.09788735  1  -0.591953  0  -0.159471  -0.153854  0  3.233659  0
N  N348  1  0.78991258  0.47544361  0.55197562  1  -0.520299  0  -0.140569  -0.122578  0  3.233633  0
N  N349  1  0.78990862  0.02456604  0.94803483  1  -0.533335  0  -0.140673  -0.122424  0  3.233542  0
N  N350  1  0.71009296  0.44803461  0.52456411  1  -0.533541  0  -0.140644  -0.122365  0  3.233525  0
N  N351  1  0.71008818  0.05197791  0.97544443  1  -0.520431  0  -0.140535  -0.122506  0  3.23357  0
N  N352  1  0.21008841  0.52455497  0.44802103  1  -0.520609  0  -0.140573  -0.122514  0  3.233592  0
N  N353  1  0.21009237  0.97543405  0.05196459  1  -0.533292  0  -0.140678  -0.122427  0  3.233624  0
N  N354  1  0.28990803  0.55196397  0.47543401  1  -0.533296  0  -0.140631  -0.122448  0  3.23365  0
N  N355  1  0.28991353  0.94802268  0.02455608  1  -0.520459  0  -0.140511  -0.122483  0  3.233634  0
