# generated using pymatgen
data_CuH10C7N3O2
_symmetry_space_group_name_H-M   'P 1'
_cell_length_a   12.20484773
_cell_length_b   12.20800099
_cell_length_c   12.27910000
_cell_angle_alpha   106.16312981
_cell_angle_beta   106.16742020
_cell_angle_gamma   105.98570574
_symmetry_Int_Tables_number   1
_chemical_formula_structural   CuH10C7N3O2
_chemical_formula_sum   'Cu6 H60 C42 N18 O12'
_cell_volume   1559.34901157
_cell_formula_units_Z   6
loop_
 _symmetry_equiv_pos_site_id
 _symmetry_equiv_pos_as_xyz
  1  'x, y, z'
loop_
 _atom_site_type_symbol
 _atom_site_label
 _atom_site_symmetry_multiplicity
 _atom_site_fract_x
 _atom_site_fract_y
 _atom_site_fract_z
 _atom_site_occupancy
 _atom_site_hle17_bader_spin_density
 _atom_site_hle17_ddec_charge
 _atom_site_hle17_ddec_spin_density
 _atom_site_hle17_ddec_sum_bond_order
 _atom_site_hle17_magmom
 _atom_site_hse06_10hf_bader_spin_density
 _atom_site_hse06_10hf_ddec_charge
 _atom_site_hse06_10hf_ddec_spin_density
 _atom_site_hse06_10hf_ddec_sum_bond_order
 _atom_site_hse06_10hf_magmom
 _atom_site_hse06_bader_spin_density
 _atom_site_hse06_ddec_charge
 _atom_site_hse06_ddec_spin_density
 _atom_site_hse06_ddec_sum_bond_order
 _atom_site_hse06_magmom
 _atom_site_pbe_bader_charge
 _atom_site_pbe_bader_spin_density
 _atom_site_pbe_cm5_charge
 _atom_site_pbe_ddec_charge
 _atom_site_pbe_ddec_spin_density
 _atom_site_pbe_ddec_sum_bond_order
 _atom_site_pbe_magmom
Cu  Cu0  1  0.97753601  0.60049860  0.11312634  1  0  0.417867  0  1.93249  0  0  0.292424  0  2.414229  0  0  0.297157  0  2.37084  0  0.638119  0  0.539333  0.291865  0  2.442328  0
Cu  Cu1  1  0.11262997  0.97630983  0.59987785  1  0  0.418766  0  1.928109  0  0  0.293121  0  2.409679  0  0  0.298112  0  2.365999  0  0.638551  0  0.538939  0.292491  0  2.437849  0
Cu  Cu2  1  0.60050583  0.11261368  0.97745196  1  0  0.418671  0  1.931042  0  0  0.292961  0  2.412895  0  0  0.297904  0  2.369228  0  0.638205  0  0.538864  0.292312  0  2.441096  0
Cu  Cu3  1  0.02245999  0.39949703  0.88687036  1  0  0.417923  0  1.932475  0  0  0.292501  0  2.414198  0  0  0.297174  0  2.370805  0  0.638165  0  0.539361  0.291939  0  2.442301  0
Cu  Cu4  1  0.88736951  0.02369041  0.40012191  1  0  0.418754  0  1.928118  0  0  0.293112  0  2.409698  0  0  0.298093  0  2.366014  0  0.63857  0  0.538955  0.292472  0  2.437864  0
Cu  Cu5  1  0.39949144  0.88738748  0.02254989  1  0  0.418642  0  1.931085  0  0  0.29293  0  2.412916  0  0  0.297859  0  2.369215  0  0.63818  0  0.538862  0.29228  0  2.441185  0
H  H6  1  0.16388420  0.85441198  0.24684841  1  0  0.089257  0  0.95979  0  0  0.105005  0  1.01899  0  0  0.106086  0  1.019484  0  0.059617  0  0.098218  0.104195  0  1.018721  0
H  H7  1  0.24719639  0.16321784  0.85410927  1  0  0.089148  0  0.960594  0  0  0.104743  0  1.01994  0  0  0.105835  0  1.020472  0  0.058973  0  0.097949  0.103931  0  1.019619  0
H  H8  1  0.85465609  0.24790609  0.16433567  1  0  0.088649  0  0.960985  0  0  0.104265  0  1.020445  0  0  0.105376  0  1.020893  0  0.051606  0  0.097836  0.103423  0  1.020212  0
H  H9  1  0.83611833  0.14558733  0.75315601  1  0  0.089271  0  0.95981  0  0  0.104976  0  1.019003  0  0  0.106054  0  1.019496  0  0.059693  0  0.098231  0.10417  0  1.018741  0
H  H10  1  0.75280082  0.83677871  0.14588803  1  0  0.089192  0  0.960601  0  0  0.104798  0  1.019912  0  0  0.105893  0  1.020441  0  0.058983  0  0.097975  0.103984  0  1.019587  0
H  H11  1  0.14534282  0.75209045  0.83565965  1  0  0.08871  0  0.960925  0  0  0.104273  0  1.020419  0  0  0.105382  0  1.020867  0  0.051609  0  0.097843  0.103433  0  1.020186  0
H  H12  1  0.32274069  0.91233880  0.27322998  1  0  0.081836  0  0.923867  0  0  0.104114  0  0.976105  0  0  0.104823  0  0.97624  0  0.033614  0  0.097643  0.103484  0  0.97621  0
H  H13  1  0.27363806  0.32209635  0.91171106  1  0  0.082489  0  0.923763  0  0  0.104723  0  0.976071  0  0  0.105459  0  0.976235  0  0.036699  0  0.097725  0.104038  0  0.976223  0
H  H14  1  0.91270265  0.27416539  0.32236380  1  0  0.081442  0  0.923717  0  0  0.103663  0  0.976008  0  0  0.104412  0  0.976092  0  0.037058  0  0.097319  0.102988  0  0.976163  0
H  H15  1  0.67726078  0.08765775  0.72677420  1  0  0.081894  0  0.923873  0  0  0.104107  0  0.976123  0  0  0.104812  0  0.97626  0  0.033556  0  0.097638  0.10348  0  0.976231  0
H  H16  1  0.72636498  0.67790204  0.08828998  1  0  0.082536  0  0.923726  0  0  0.104728  0  0.976064  0  0  0.105466  0  0.976225  0  0.036687  0  0.09773  0.104039  0  0.976214  0
H  H17  1  0.08729627  0.72583116  0.67763233  1  0  0.081497  0  0.923665  0  0  0.103692  0  0.975962  0  0  0.104434  0  0.976052  0  0.036976  0  0.097341  0.103017  0  0.976118  0
H  H18  1  0.23135265  0.06226336  0.23170986  1  0  0.09685  0  0.954489  0  0  0.120449  0  1.010562  0  0  0.121685  0  1.011201  0  0.04846  0  0.084296  0.119587  0  1.010074  0
H  H19  1  0.23161448  0.23136665  0.06068892  1  0  0.097513  0  0.954998  0  0  0.121119  0  1.011118  0  0  0.12233  0  1.011782  0  0.052594  0  0.084962  0.120261  0  1.01064  0
H  H20  1  0.06242729  0.23183003  0.23157869  1  0  0.097499  0  0.954481  0  0  0.120947  0  1.01075  0  0  0.1222  0  1.011357  0  0.048103  0  0.084383  0.120066  0  1.0103  0
H  H21  1  0.76864903  0.93773595  0.76829514  1  0  0.096826  0  0.954484  0  0  0.120421  0  1.010593  0  0  0.121657  0  1.011231  0  0.048562  0  0.084279  0.119558  0  1.010105  0
H  H22  1  0.76838393  0.76863082  0.93930978  1  0  0.097489  0  0.95505  0  0  0.121097  0  1.01117  0  0  0.122306  0  1.011837  0  0.052895  0  0.08496  0.120238  0  1.010692  0
H  H23  1  0.93757212  0.76816560  0.76841814  1  0  0.097467  0  0.954489  0  0  0.120909  0  1.010767  0  0  0.122155  0  1.01138  0  0.048085  0  0.084379  0.120029  0  1.010315  0
H  H24  1  0.11861662  0.94754442  0.08905533  1  0  0.091028  0  0.96834  0  0  0.113164  0  1.028778  0  0  0.114025  0  1.030065  0  0.025855  0  0.085152  0.112471  0  1.027949  0
H  H25  1  0.08842104  0.11856005  0.94638289  1  0  0.091283  0  0.968712  0  0  0.113268  0  1.029247  0  0  0.114112  0  1.030545  0  0.027629  0  0.085292  0.11259  0  1.028413  0
H  H26  1  0.94736081  0.08889927  0.11901234  1  0  0.091415  0  0.967999  0  0  0.113767  0  1.028092  0  0  0.114637  0  1.02937  0  0.028092  0  0.085338  0.113069  0  1.027274  0
H  H27  1  0.88138577  0.05245674  0.91095038  1  0  0.091043  0  0.968409  0  0  0.113241  0  1.028767  0  0  0.114085  0  1.030071  0  0.026146  0  0.085228  0.112545  0  1.02794  0
H  H28  1  0.91157809  0.88143926  0.05361570  1  0  0.0913  0  0.96869  0  0  0.113289  0  1.029218  0  0  0.114135  0  1.030516  0  0.027664  0  0.085307  0.11261  0  1.028385  0
H  H29  1  0.05263861  0.91109635  0.88098449  1  0  0.091383  0  0.968021  0  0  0.113727  0  1.028131  0  0  0.114599  0  1.029411  0  0.028202  0  0.08532  0.113028  0  1.027312  0
H  H30  1  0.27650197  0.00083906  0.10941355  1  0  0.080812  0  0.993789  0  0  0.093819  0  1.076077  0  0  0.097904  0  1.072003  0  0.026763  0  0.073968  0.09073  0  1.079125  0
H  H31  1  0.10854063  0.27643797  0.99934956  1  0  0.080617  0  0.9933  0  0  0.093616  0  1.07556  0  0  0.097744  0  1.071461  0  0.02559  0  0.073444  0.090523  0  1.0786  0
H  H32  1  0.00075189  0.10874605  0.27596123  1  0  0.081841  0  0.992606  0  0  0.094806  0  1.074633  0  0  0.098831  0  1.070683  0  0.02845  0  0.074143  0.091761  0  1.077598  0
H  H33  1  0.72350006  0.99916117  0.89059261  1  0  0.080784  0  0.993798  0  0  0.093802  0  1.076089  0  0  0.097887  0  1.072014  0  0.026908  0  0.073947  0.090713  0  1.079131  0
H  H34  1  0.89145984  0.72356042  0.00064833  1  0  0.080596  0  0.993287  0  0  0.093591  0  1.075563  0  0  0.097715  0  1.071468  0  0.025603  0  0.073439  0.090498  0  1.078602  0
H  H35  1  0.99924582  0.89124958  0.72403677  1  0  0.081817  0  0.992615  0  0  0.094788  0  1.074635  0  0  0.098815  0  1.070683  0  0.028564  0  0.074144  0.091741  0  1.077601  0
H  H36  1  0.28206463  0.63070214  0.80744496  1  0  0.076968  0  0.928  0  0  0.094517  0  0.987694  0  0  0.095973  0  0.986627  0  0.038874  0  0.092752  0.093374  0  0.988592  0
H  H37  1  0.80633512  0.28269726  0.63029007  1  0  0.07785  0  0.927857  0  0  0.095078  0  0.987584  0  0  0.096469  0  0.98657  0  0.033577  0  0.093042  0.09396  0  0.988468  0
H  H38  1  0.63040888  0.80701547  0.28184172  1  0  0.077385  0  0.927232  0  0  0.094979  0  0.986759  0  0  0.096463  0  0.985666  0  0.033107  0  0.09285  0.093805  0  0.987692  0
H  H39  1  0.71792852  0.36929718  0.19255523  1  0  0.076979  0  0.928  0  0  0.094481  0  0.98771  0  0  0.095935  0  0.986646  0  0.038848  0  0.092728  0.093335  0  0.988611  0
H  H40  1  0.19366535  0.71730113  0.36970783  1  0  0.077838  0  0.927891  0  0  0.095072  0  0.987617  0  0  0.096462  0  0.986606  0  0.033533  0  0.093031  0.093953  0  0.988502  0
H  H41  1  0.36959060  0.19298477  0.71815803  1  0  0.077378  0  0.927228  0  0  0.09496  0  0.986777  0  0  0.096443  0  0.985686  0  0.032943  0  0.092837  0.09379  0  0.987707  0
H  H42  1  0.22088797  0.48449728  0.81407240  1  0  0.087372  0  0.956546  0  0  0.099006  0  1.025152  0  0  0.101152  0  1.023907  0  0.077954  0  0.09343  0.097436  0  1.026045  0
H  H43  1  0.81356201  0.22121203  0.48505382  1  0  0.087825  0  0.956947  0  0  0.099199  0  1.025715  0  0  0.101394  0  1.024394  0  0.085429  0  0.093593  0.097555  0  1.026729  0
H  H44  1  0.48434274  0.81427351  0.22079551  1  0  0.087834  0  0.956697  0  0  0.09941  0  1.0253  0  0  0.101532  0  1.024093  0  0.074985  0  0.093569  0.09786  0  1.026166  0
H  H45  1  0.77910483  0.51550111  0.18592663  1  0  0.08735  0  0.956576  0  0  0.098949  0  1.025194  0  0  0.101093  0  1.02395  0  0.078031  0  0.093435  0.097383  0  1.026083  0
H  H46  1  0.18644173  0.77878820  0.51494712  1  0  0.087804  0  0.956868  0  0  0.09915  0  1.025682  0  0  0.101344  0  1.024361  0  0.085784  0  0.09357  0.09751  0  1.026689  0
H  H47  1  0.51565759  0.18572673  0.77920611  1  0  0.087827  0  0.956654  0  0  0.099423  0  1.025248  0  0  0.101547  0  1.024039  0  0.074979  0  0.093588  0.097873  0  1.026112  0
H  H48  1  0.44943083  0.54977536  0.86401457  1  0  0.090994  0  0.955139  0  0  0.112345  0  1.015242  0  0  0.113835  0  1.015209  0  0.02969  0  0.081319  0.11127  0  1.01526  0
H  H49  1  0.86353296  0.44975042  0.55009933  1  0  0.091653  0  0.955102  0  0  0.112688  0  1.01553  0  0  0.114151  0  1.015555  0  0.026801  0  0.08172  0.111643  0  1.015508  0
H  H50  1  0.54960504  0.86372292  0.44798349  1  0  0.089468  0  0.955188  0  0  0.11066  0  1.015664  0  0  0.112147  0  1.015655  0  0.038254  0  0.080731  0.109613  0  1.015645  0
H  H51  1  0.55056005  0.45022026  0.13598071  1  0  0.09111  0  0.955059  0  0  0.112427  0  1.015193  0  0  0.113918  0  1.015161  0  0.029646  0  0.08136  0.111355  0  1.015207  0
H  H52  1  0.13646340  0.55024613  0.44989773  1  0  0.091692  0  0.955044  0  0  0.112674  0  1.015534  0  0  0.114139  0  1.015557  0  0.026904  0  0.081718  0.111633  0  1.015509  0
H  H53  1  0.45040147  0.13628009  0.55202142  1  0  0.089467  0  0.955186  0  0  0.110664  0  1.015651  0  0  0.112148  0  1.015644  0  0.038228  0  0.080729  0.109615  0  1.015631  0
H  H54  1  0.41865168  0.54240563  0.99593431  1  0  0.090512  0  0.966221  0  0  0.111212  0  1.029768  0  0  0.112116  0  1.03067  0  0.019803  0  0.082706  0.110488  0  1.029198  0
H  H55  1  0.99619605  0.41860258  0.54293490  1  0  0.090697  0  0.965546  0  0  0.111417  0  1.028974  0  0  0.112342  0  1.029865  0  0.021467  0  0.082555  0.110689  0  1.028421  0
H  H56  1  0.54217786  0.99659967  0.41782291  1  0  0.089819  0  0.967562  0  0  0.110575  0  1.031152  0  0  0.111492  0  1.032054  0  0.02364  0  0.082389  0.109828  0  1.030608  0
H  H57  1  0.58134347  0.45758999  0.00406134  1  0  0.090558  0  0.966139  0  0  0.111248  0  1.029703  0  0  0.112152  0  1.030607  0  0.019786  0  0.082715  0.110522  0  1.029134  0
H  H58  1  0.00380122  0.58139858  0.45706287  1  0  0.090692  0  0.965576  0  0  0.111415  0  1.028985  0  0  0.112338  0  1.029877  0  0.021472  0  0.082564  0.11069  0  1.028429  0
H  H59  1  0.45782865  0.00340333  0.58218201  1  0  0.089779  0  0.967578  0  0  0.110518  0  1.031194  0  0  0.111422  0  1.03211  0  0.023474  0  0.082353  0.10978  0  1.03064  0
H  H60  1  0.47858780  0.68749543  0.98547229  1  0  0.094798  0  0.963793  0  0  0.112691  0  1.033761  0  0  0.115466  0  1.031904  0  0.03463  0  0.0819  0.110479  0  1.035321  0
H  H61  1  0.98549065  0.47890721  0.68723025  1  0  0.095138  0  0.963484  0  0  0.112877  0  1.033548  0  0  0.115703  0  1.031642  0  0.034924  0  0.082004  0.110716  0  1.035052  0
H  H62  1  0.68732152  0.98577399  0.47760200  1  0  0.094065  0  0.964197  0  0  0.111865  0  1.034438  0  0  0.114655  0  1.032579  0  0.047621  0  0.08164  0.109714  0  1.035925  0
H  H63  1  0.52140664  0.31249834  0.01452266  1  0  0.094775  0  0.96382  0  0  0.112686  0  1.033774  0  0  0.115467  0  1.03191  0  0.034541  0  0.081884  0.110467  0  1.035335  0
H  H64  1  0.01450712  0.52109303  0.31276741  1  0  0.095197  0  0.963456  0  0  0.112929  0  1.033525  0  0  0.115754  0  1.03162  0  0.034878  0  0.082036  0.110766  0  1.035032  0
H  H65  1  0.31268392  0.01422625  0.52239616  1  0  0.094018  0  0.964254  0  0  0.111843  0  1.034477  0  0  0.114637  0  1.03261  0  0.04771  0  0.08163  0.109671  0  1.035983  0
C  C66  1  0.20970456  0.76119924  0.10457599  1  0  0.343845  0  3.733823  0  0  0.328204  0  3.993106  0  0  0.340233  0  4.011176  0  0.973747  0  0.201885  0.320227  0  3.980905  0
C  C67  1  0.10442398  0.20926114  0.76089297  1  0  0.344487  0  3.732131  0  0  0.32892  0  3.991497  0  0  0.340973  0  4.009557  0  1.002613  0  0.201675  0.320928  0  3.979288  0
C  C68  1  0.76133490  0.10507779  0.20972292  1  0  0.344066  0  3.732089  0  0  0.328252  0  3.992013  0  0  0.34027  0  4.010101  0  0.975466  0  0.201292  0.320277  0  3.979798  0
C  C69  1  0.79029832  0.23880100  0.89542552  1  0  0.343925  0  3.733765  0  0  0.328302  0  3.992945  0  0  0.340328  0  4.011008  0  0.973069  0  0.201904  0.320335  0  3.980746  0
C  C70  1  0.89557982  0.79074371  0.23910682  1  0  0.344435  0  3.732227  0  0  0.328828  0  3.991636  0  0  0.340883  0  4.009698  0  1.002425  0  0.201624  0.320832  0  3.979425  0
C  C71  1  0.23866337  0.89492152  0.79027381  1  0  0.344165  0  3.73193  0  0  0.328336  0  3.991829  0  0  0.340351  0  4.009916  0  0.975527  0  0.201325  0.320363  0  3.979617  0
C  C72  1  0.22888443  0.87723194  0.20270725  1  0  -0.150157  0  3.72121  0  0  -0.184792  0  3.969284  0  0  -0.186023  0  3.980362  0  0.027303  0  -0.157324  -0.183925  0  3.961696  0
C  C73  1  0.20272846  0.22836669  0.87658906  1  0  -0.150995  0  3.721047  0  0  -0.185676  0  3.96945  0  0  -0.187051  0  3.980677  0  0.003076  0  -0.156828  -0.184708  0  3.961793  0
C  C74  1  0.87744503  0.20337938  0.22893298  1  0  -0.149263  0  3.721318  0  0  -0.18375  0  3.96954  0  0  -0.185009  0  3.980593  0  0.030589  0  -0.15654  -0.182842  0  3.961969  0
C  C75  1  0.77111740  0.12276553  0.79729727  1  0  -0.150241  0  3.721322  0  0  -0.184703  0  3.969194  0  0  -0.185921  0  3.980249  0  0.027347  0  -0.157283  -0.183869  0  3.961643  0
C  C76  1  0.79727102  0.77163354  0.12341233  1  0  -0.151147  0  3.721127  0  0  -0.185777  0  3.969513  0  0  -0.187153  0  3.980737  0  0.003047  0  -0.156857  -0.184794  0  3.961836  0
C  C77  1  0.12255509  0.79661809  0.77106212  1  0  -0.149434  0  3.721402  0  0  -0.183821  0  3.969532  0  0  -0.185068  0  3.980573  0  0.030697  0  -0.156577  -0.182916  0  3.961966  0
C  C78  1  0.21306074  0.97795657  0.15556419  1  0  -0.270749  0  3.706159  0  0  -0.341603  0  3.943635  0  0  -0.345161  0  3.953354  0  -0.076465  0  -0.245833  -0.338773  0  3.936977  0
C  C79  1  0.15511391  0.21293862  0.97668494  1  0  -0.271027  0  3.704705  0  0  -0.341531  0  3.941994  0  0  -0.345052  0  3.951696  0  -0.086448  0  -0.24612  -0.338737  0  3.935329  0
C  C80  1  0.97798076  0.15550011  0.21310663  1  0  -0.272746  0  3.706203  0  0  -0.343736  0  3.943817  0  0  -0.347301  0  3.953538  0  -0.079206  0  -0.24616  -0.34092  0  3.93716  0
C  C81  1  0.78694215  0.02204367  0.84444466  1  0  -0.270724  0  3.70626  0  0  -0.341672  0  3.943644  0  0  -0.34522  0  3.953368  0  -0.077109  0  -0.245907  -0.338832  0  3.936992  0
C  C82  1  0.84488400  0.78705977  0.02331469  1  0  -0.270981  0  3.70475  0  0  -0.341484  0  3.942021  0  0  -0.345007  0  3.951731  0  -0.086768  0  -0.246137  -0.338692  0  3.93535  0
C  C83  1  0.02201659  0.84449459  0.78688775  1  0  -0.272632  0  3.706293  0  0  -0.343624  0  3.94385  0  0  -0.34719  0  3.95357  0  -0.079446  0  -0.246139  -0.340804  0  3.937195  0
C  C84  1  0.23309582  0.63341502  0.96039305  1  0  0.342608  0  3.747792  0  0  0.327078  0  4.007203  0  0  0.33944  0  4.024452  0  0.979201  0  0.200947  0.318844  0  3.995569  0
C  C85  1  0.96015683  0.23331708  0.63352010  1  0  0.340496  0  3.749345  0  0  0.326125  0  4.007093  0  0  0.338458  0  4.024366  0  0.980327  0  0.200413  0.317914  0  3.995428  0
C  C86  1  0.63339082  0.96087160  0.23319200  1  0  0.340441  0  3.750193  0  0  0.325492  0  4.009184  0  0  0.337862  0  4.026471  0  0.979352  0  0.20028  0.317253  0  3.997541  0
C  C87  1  0.76690053  0.36658152  0.03960808  1  0  0.342466  0  3.747925  0  0  0.326999  0  4.007202  0  0  0.339362  0  4.024457  0  0.979111  0  0.200926  0.318765  0  3.995569  0
C  C88  1  0.03984215  0.76668408  0.36648059  1  0  0.34051  0  3.749358  0  0  0.326183  0  4.007061  0  0  0.338518  0  4.024337  0  0.98036  0  0.200432  0.317969  0  3.995398  0
C  C89  1  0.36660730  0.03912956  0.76680764  1  0  0.340371  0  3.750247  0  0  0.325449  0  4.009215  0  0  0.337822  0  4.026504  0  0.979283  0  0.200298  0.317208  0  3.997572  0
C  C90  1  0.28335917  0.58104781  0.87003058  1  0  -0.160471  0  3.743413  0  0  -0.19847  0  4.000839  0  0  -0.199665  0  4.010537  0  -0.01609  0  -0.161647  -0.197519  0  3.994082  0
C  C91  1  0.86951601  0.28376893  0.58118098  1  0  -0.160798  0  3.745041  0  0  -0.198471  0  4.001475  0  0  -0.199622  0  4.011173  0  -0.017447  0  -0.161861  -0.197512  0  3.994661  0
C  C92  1  0.58090798  0.87023882  0.28314671  1  0  -0.161086  0  3.743338  0  0  -0.199123  0  4.000504  0  0  -0.200355  0  4.010285  0  -0.000793  0  -0.161628  -0.198156  0  3.993746  0
C  C93  1  0.71663363  0.41895058  0.12996926  1  0  -0.160449  0  3.743404  0  0  -0.198356  0  4.00072  0  0  -0.199551  0  4.010421  0  -0.016394  0  -0.161668  -0.197411  0  3.993966  0
C  C94  1  0.13048482  0.71623038  0.41881646  1  0  -0.160729  0  3.744954  0  0  -0.198399  0  4.001405  0  0  -0.19955  0  4.011101  0  -0.017721  0  -0.161826  -0.197449  0  3.994609  0
C  C95  1  0.41909135  0.12976327  0.71685270  1  0  -0.161029  0  3.743251  0  0  -0.199097  0  4.000465  0  0  -0.20033  0  4.010238  0  -0.000699  0  -0.161613  -0.198137  0  3.993709  0
C  C96  1  0.41524492  0.59057752  0.93248901  1  0  -0.277019  0  3.717443  0  0  -0.351478  0  3.961782  0  0  -0.354313  0  3.971896  0  -0.053592  0  -0.248904  -0.349084  0  3.954845  0
C  C97  1  0.93234429  0.41549463  0.59077681  1  0  -0.278159  0  3.716638  0  0  -0.352452  0  3.960639  0  0  -0.355308  0  3.970627  0  -0.055179  0  -0.249147  -0.350129  0  3.953666  0
C  C98  1  0.59040938  0.93272095  0.41432386  1  0  -0.273326  0  3.717652  0  0  -0.347562  0  3.961973  0  0  -0.350418  0  3.972066  0  -0.083909  0  -0.247633  -0.345243  0  3.955012  0
C  C99  1  0.58474923  0.40941995  0.06750850  1  0  -0.277154  0  3.717338  0  0  -0.351612  0  3.961637  0  0  -0.354451  0  3.971745  0  -0.053088  0  -0.248917  -0.349213  0  3.9547  0
C  C100  1  0.06765348  0.58450561  0.40921922  1  0  -0.278274  0  3.716687  0  0  -0.352512  0  3.960709  0  0  -0.355367  0  3.970697  0  -0.055253  0  -0.249197  -0.350188  0  3.953727  0
C  C101  1  0.40959421  0.06728113  0.58567918  1  0  -0.273261  0  3.717676  0  0  -0.347494  0  3.961992  0  0  -0.350338  0  3.972092  0  -0.083768  0  -0.247613  -0.345162  0  3.955033  0
C  C102  1  0.27876652  0.52102934  0.22737900  1  0  0.804701  0  3.796443  0  0  0.73898  0  4.118845  0  0  0.783345  0  4.103491  0  2.130735  0  0.370245  0.708643  0  4.129305  0
C  C103  1  0.22763772  0.27885824  0.52136274  1  0  0.804895  0  3.796581  0  0  0.739268  0  4.11882  0  0  0.783651  0  4.103455  0  2.129769  0  0.370877  0.708912  0  4.129301  0
C  C104  1  0.52099941  0.22767717  0.27829700  1  0  0.807399  0  3.794432  0  0  0.741908  0  4.116369  0  0  0.78624  0  4.10102  0  2.128598  0  0.370927  0.71159  0  4.126829  0
C  C105  1  0.72125446  0.47898474  0.77262484  1  0  0.804939  0  3.796226  0  0  0.739215  0  4.118637  0  0  0.783585  0  4.103279  0  2.131575  0  0.370455  0.708873  0  4.129104  0
C  C106  1  0.77235805  0.72114569  0.47863783  1  0  0.80469  0  3.7966  0  0  0.739064  0  4.118844  0  0  0.78345  0  4.103475  0  2.12977  0  0.370647  0.708705  0  4.129325  0
C  C107  1  0.47899986  0.77232030  0.72170926  1  0  0.807326  0  3.794398  0  0  0.741848  0  4.116323  0  0  0.786182  0  4.100973  0  2.128508  0  0.370851  0.711529  0  4.12679  0
N  N108  1  0.12340376  0.64991200  0.07349969  1  0  -0.327912  0  3.314386  0  0  -0.274177  0  3.641027  0  0  -0.284517  0  3.646113  0  -0.790727  0  -0.31297  -0.267957  0  3.637969  0
N  N109  1  0.07345355  0.12294921  0.65006646  1  0  -0.327648  0  3.311579  0  0  -0.273792  0  3.637719  0  0  -0.284166  0  3.642897  0  -0.785788  0  -0.312296  -0.26757  0  3.634667  0
N  N110  1  0.65012815  0.07358565  0.12322921  1  0  -0.327863  0  3.313575  0  0  -0.273803  0  3.640071  0  0  -0.284153  0  3.645165  0  -0.796348  0  -0.312502  -0.26759  0  3.637047  0
N  N111  1  0.87659727  0.35009008  0.92650345  1  0  -0.327999  0  3.31444  0  0  -0.274288  0  3.641085  0  0  -0.284612  0  3.646149  0  -0.790457  0  -0.312995  -0.268074  0  3.638032  0
N  N112  1  0.92654890  0.87705656  0.34993484  1  0  -0.32748  0  3.311556  0  0  -0.273612  0  3.637711  0  0  -0.283982  0  3.642883  0  -0.785563  0  -0.312262  -0.267385  0  3.634651  0
N  N113  1  0.34986998  0.92641551  0.87676961  1  0  -0.327921  0  3.313435  0  0  -0.27386  0  3.639943  0  0  -0.284204  0  3.645025  0  -0.796493  0  -0.312534  -0.267656  0  3.63695  0
N  N114  1  0.13893332  0.56758402  0.98089466  1  0  -0.32491  0  3.343196  0  0  -0.269716  0  3.673071  0  0  -0.279785  0  3.677254  0  -0.780992  0  -0.317223  -0.263667  0  3.67054  0
N  N115  1  0.98083902  0.13894866  0.56801825  1  0  -0.325489  0  3.346873  0  0  -0.270587  0  3.676637  0  0  -0.280735  0  3.680902  0  -0.786675  0  -0.317559  -0.264526  0  3.67413  0
N  N116  1  0.56769527  0.98101006  0.13883572  1  0  -0.325599  0  3.347016  0  0  -0.270594  0  3.676902  0  0  -0.280717  0  3.681122  0  -0.783176  0  -0.317249  -0.264543  0  3.674431  0
N  N117  1  0.86106325  0.43241530  0.01910647  1  0  -0.324857  0  3.343404  0  0  -0.26968  0  3.673247  0  0  -0.279774  0  3.677466  0  -0.780608  0  -0.317229  -0.263638  0  3.670722  0
N  N118  1  0.01916443  0.86105526  0.43198281  1  0  -0.325627  0  3.347046  0  0  -0.270753  0  3.676834  0  0  -0.280902  0  3.6811  0  -0.786748  0  -0.317612  -0.264693  0  3.674332  0
N  N119  1  0.43230321  0.01899202  0.86116672  1  0  -0.325586  0  3.347038  0  0  -0.270583  0  3.676903  0  0  -0.280719  0  3.681147  0  -0.783126  0  -0.317286  -0.264529  0  3.674405  0
N  N120  1  0.27917970  0.75472303  0.03522679  1  0  -0.491443  0  3.326674  0  0  -0.416263  0  3.626636  0  0  -0.433963  0  3.631934  0  -1.270553  0  -0.405448  -0.404855  0  3.622596  0
N  N121  1  0.03495356  0.27916654  0.75434838  1  0  -0.490709  0  3.32516  0  0  -0.416131  0  3.625051  0  0  -0.433764  0  3.630276  0  -1.271999  0  -0.405229  -0.40478  0  3.621055  0
N  N122  1  0.75471996  0.03605392  0.27943574  1  0  -0.490249  0  3.324956  0  0  -0.415646  0  3.625377  0  0  -0.433361  0  3.630705  0  -1.266347  0  -0.404577  -0.404221  0  3.621269  0
N  N123  1  0.72082042  0.24527444  0.96477238  1  0  -0.491378  0  3.326608  0  0  -0.416258  0  3.626573  0  0  -0.433966  0  3.631887  0  -1.270588  0  -0.405431  -0.404841  0  3.622484  0
N  N124  1  0.96504769  0.72083831  0.24565152  1  0  -0.490662  0  3.325126  0  0  -0.416078  0  3.625003  0  0  -0.43373  0  3.630258  0  -1.272077  0  -0.405177  -0.404727  0  3.621007  0
N  N125  1  0.24527710  0.96394448  0.72056121  1  0  -0.490215  0  3.325028  0  0  -0.415606  0  3.625413  0  0  -0.433323  0  3.630743  0  -1.266257  0  -0.404554  -0.404185  0  3.621306  0
O  O126  1  0.19033550  0.45491865  0.23080748  1  0  -0.395093  0  2.008793  0  0  -0.361022  0  2.211693  0  0  -0.382176  0  2.200858  0  -1.077749  0  -0.162747  -0.346804  0  2.219132  0
O  O127  1  0.23134311  0.19051004  0.45539224  1  0  -0.395203  0  2.007317  0  0  -0.361286  0  2.210104  0  0  -0.382424  0  2.19924  0  -1.077175  0  -0.163097  -0.347082  0  2.217569  0
O  O128  1  0.45528316  0.23173957  0.19030577  1  0  -0.396701  0  2.007018  0  0  -0.36284  0  2.210025  0  0  -0.38399  0  2.199146  0  -1.079683  0  -0.163513  -0.348632  0  2.217502  0
O  O129  1  0.80968199  0.54510190  0.76919067  1  0  -0.395312  0  2.008739  0  0  -0.361231  0  2.211643  0  0  -0.382379  0  2.200782  0  -1.078309  0  -0.162942  -0.34701  0  2.219066  0
O  O130  1  0.76864855  0.80949205  0.54461564  1  0  -0.395092  0  2.007183  0  0  -0.361166  0  2.209956  0  0  -0.382308  0  2.199091  0  -1.077404  0  -0.162939  -0.346964  0  2.217426  0
O  O131  1  0.54471549  0.76824959  0.80969395  1  0  -0.396692  0  2.007093  0  0  -0.362842  0  2.210099  0  0  -0.383992  0  2.199218  0  -1.079747  0  -0.163546  -0.348634  0  2.217581  0
O  O132  1  0.36884745  0.58668311  0.22591924  1  0  -0.39224  0  1.977753  0  0  -0.355758  0  2.166386  0  0  -0.377995  0  2.158052  0  -1.077839  0  -0.171771  -0.340683  0  2.17199  0
O  O133  1  0.22589593  0.36885780  0.58690202  1  0  -0.392236  0  1.979269  0  0  -0.355745  0  2.16783  0  0  -0.37797  0  2.159449  0  -1.077384  0  -0.172055  -0.340676  0  2.173462  0
O  O134  1  0.58626537  0.22562151  0.36793571  1  0  -0.393211  0  1.978559  0  0  -0.356734  0  2.167129  0  0  -0.37896  0  2.158772  0  -1.07386  0  -0.171674  -0.34166  0  2.172737  0
O  O135  1  0.63117462  0.41332266  0.77407608  1  0  -0.392253  0  1.977562  0  0  -0.355789  0  2.166222  0  0  -0.378027  0  2.157884  0  -1.078148  0  -0.171798  -0.340717  0  2.171831  0
O  O136  1  0.77410658  0.63115259  0.41309813  1  0  -0.392134  0  1.979404  0  0  -0.355652  0  2.167972  0  0  -0.377877  0  2.15959  0  -1.077148  0  -0.171981  -0.340583  0  2.173606  0
O  O137  1  0.41372928  0.77437504  0.63206902  1  0  -0.39315  0  1.978446  0  0  -0.356679  0  2.166992  0  0  -0.378906  0  2.158634  0  -1.073697  0  -0.171566  -0.341603  0  2.172603  0
