# generated using pymatgen
data_CuH15C17Br(NO)4
_symmetry_space_group_name_H-M   'P 1'
_cell_length_a   8.95345735
_cell_length_b   9.21304752
_cell_length_c   11.44287822
_cell_angle_alpha   93.56410589
_cell_angle_beta   90.00006662
_cell_angle_gamma   90.00019939
_symmetry_Int_Tables_number   1
_chemical_formula_structural   CuH15C17Br(NO)4
_chemical_formula_sum   'Cu2 H30 C34 Br2 N8 O8'
_cell_volume   942.08168488
_cell_formula_units_Z   2
loop_
 _symmetry_equiv_pos_site_id
 _symmetry_equiv_pos_as_xyz
  1  'x, y, z'
loop_
 _atom_site_type_symbol
 _atom_site_label
 _atom_site_symmetry_multiplicity
 _atom_site_fract_x
 _atom_site_fract_y
 _atom_site_fract_z
 _atom_site_occupancy
 _atom_site_hle17_ddec_charge
 _atom_site_hle17_ddec_spin_density
 _atom_site_hle17_ddec_sum_bond_order
 _atom_site_hle17_magmom
 _atom_site_hse06_10hf_ddec_charge
 _atom_site_hse06_10hf_ddec_spin_density
 _atom_site_hse06_10hf_ddec_sum_bond_order
 _atom_site_hse06_10hf_magmom
 _atom_site_hse06_ddec_charge
 _atom_site_hse06_ddec_spin_density
 _atom_site_hse06_ddec_sum_bond_order
 _atom_site_hse06_magmom
 _atom_site_pbe_cm5_charge
 _atom_site_pbe_ddec_charge
 _atom_site_pbe_ddec_spin_density
 _atom_site_pbe_ddec_sum_bond_order
 _atom_site_pbe_magmom
Cu  Cu0  1  0.40459660  0.30268636  0.55655339  1  0.865261  0.687067  1.839414  0.515  0.850089  0.779889  2.234815  0.634  0.940429  0.842307  2.165106  0.718  0.731916  0.791422  0.734503  2.285171  0.577
Cu  Cu1  1  0.90459960  0.69731455  0.44344908  1  0.865333  0.687063  1.839355  0.515  0.850135  0.779877  2.234767  0.634  0.940527  0.842313  2.165042  0.718  0.731916  0.791397  0.734498  2.285249  0.577
H  H2  1  0.52766649  0.98370669  0.59755864  1  0.096873  -0.0001  0.943434  0.0  0.106181  -5.9e-05  1.006649  0.0  0.10858  -9.6e-05  1.003533  0.0  0.137709  0.103597  -2.2e-05  1.010539  0.0
H  H3  1  0.02766226  0.01629945  0.40244449  1  0.096885  -9.7e-05  0.94338  0.0  0.106189  -5.9e-05  1.006598  0.0  0.108587  -9.6e-05  1.003483  0.0  0.137722  0.103604  -2.2e-05  1.010496  0.0
H  H4  1  0.08770646  0.14358027  0.58933523  1  0.109073  0.000267  0.954299  0.001  0.118805  0.000427  1.011236  0.001  0.121029  0.000298  1.010452  0.001  0.118805  0.116418  0.000536  1.013528  0.001
H  H5  1  0.58770439  0.85641404  0.41066496  1  0.109084  0.000271  0.954343  0.001  0.118777  0.000427  1.011315  0.001  0.121  0.000298  1.010535  0.001  0.11881  0.116384  0.000536  1.013611  0.001
H  H6  1  0.07789143  0.85169118  0.64078030  1  0.1312  -7.2e-05  0.981562  0.0  0.137744  -1.6e-05  1.047843  0.0  0.142015  -9.3e-05  1.044865  0.0  0.120152  0.13444  4.2e-05  1.050267  0.0
H  H7  1  0.57788343  0.14830078  0.35921455  1  0.131165  -7.6e-05  0.981448  0.0  0.137779  -1.6e-05  1.04768  0.0  0.142057  -9.3e-05  1.044686  0.0  0.120107  0.134465  4.2e-05  1.050117  0.0
H  H8  1  0.48879727  0.72392335  0.63388788  1  0.102174  -0.000102  0.904177  0.0  0.121077  3e-06  0.956666  0.0  0.122076  -4e-06  0.956434  0.0  0.122459  0.120347  -9e-06  0.956929  0.0
H  H9  1  0.98878974  0.27607785  0.36611468  1  0.102155  -0.00011  0.90415  0.0  0.121058  3e-06  0.956619  0.0  0.122059  -4e-06  0.956386  0.0  0.12245  0.120336  -9e-06  0.956893  0.0
H  H10  1  0.30694112  0.64791646  0.61979120  1  0.099473  -0.000118  0.934024  0.0  0.111817  -9e-05  0.999655  0.0  0.112552  -0.000102  0.999493  0.0  0.116735  0.110592  -8.7e-05  1.000836  0.0
H  H11  1  0.80693387  0.35208285  0.38020500  1  0.099559  -0.000116  0.933947  0.0  0.11187  -9.1e-05  0.99961  0.0  0.112606  -0.000102  0.999448  0.0  0.116754  0.110652  -8.7e-05  1.000792  0.0
H  H12  1  0.52336650  0.90448984  0.83001953  1  0.113405  -5e-05  0.939343  0.0  0.124274  -1.2e-05  0.999895  0.0  0.127704  -9e-06  0.997864  0.0  0.1062  0.122399  -1.1e-05  1.000076  0.0
H  H13  1  0.02336780  0.09551075  0.16997992  1  0.113399  -6.8e-05  0.939315  0.0  0.124266  -1.2e-05  0.999872  0.0  0.127697  -8e-06  0.997842  0.0  0.106187  0.122388  -1.1e-05  1.000063  0.0
H  H14  1  0.31941543  0.73209495  0.13308255  1  0.107414  -7.2e-05  0.948084  0.0  0.118851  -1.9e-05  1.009531  0.0  0.121975  -2.6e-05  1.007536  0.0  0.103418  0.116584  -2.1e-05  1.01125  0.0
H  H15  1  0.81941528  0.26790663  0.86691548  1  0.107393  -5.8e-05  0.948047  0.0  0.118818  -1.9e-05  1.009513  0.0  0.121938  -2.6e-05  1.007518  0.0  0.103388  0.116546  -2.1e-05  1.011229  0.0
H  H16  1  0.19939045  0.55834983  0.78710892  1  0.111322  7e-06  0.958913  0.0  0.123424  4e-05  1.019665  0.0  0.125766  3.3e-05  1.019626  0.0  0.104468  0.121601  4.7e-05  1.019911  0.0
H  H17  1  0.69939222  0.44164589  0.21288880  1  0.111306  1.7e-05  0.958997  0.0  0.12344  4e-05  1.019689  0.0  0.125782  3.2e-05  1.019649  0.0  0.10449  0.121618  4.7e-05  1.019935  0.0
H  H18  1  0.07857339  0.46806194  0.94868234  1  0.0922  6.4e-05  0.918006  0.0  0.107375  9.1e-05  0.978784  0.0  0.108055  4.6e-05  0.979063  0.0  0.112951  0.10624  0.000124  0.979362  0.0
H  H19  1  0.57857859  0.53193988  0.05131545  1  0.092205  7.2e-05  0.918048  0.0  0.107386  9.1e-05  0.978822  0.0  0.108062  4.5e-05  0.979105  0.0  0.112957  0.106254  0.000124  0.979399  0.0
H  H20  1  0.20779877  0.44446130  0.06468890  1  0.107788  0.000112  0.95152  0.0  0.121256  0.000168  1.017199  0.0  0.123087  9.1e-05  1.016161  0.0  0.118313  0.119833  0.00024  1.017793  0.0
H  H21  1  0.70780644  0.55553657  0.93530715  1  0.107751  9.1e-05  0.95152  0.0  0.121242  0.000168  1.017192  0.0  0.123083  9e-05  1.016133  0.0  0.11827  0.119817  0.00024  1.017791  0.0
H  H22  1  0.12674321  0.51738017  0.26283906  1  0.106867  3e-05  0.962415  0.0  0.116833  8.9e-05  1.02505  0.0  0.118967  3.8e-05  1.022693  0.0  0.136158  0.114645  0.000125  1.027309  0.0
H  H23  1  0.62674251  0.48261848  0.73715606  1  0.106844  1.8e-05  0.962416  0.0  0.116815  8.9e-05  1.025055  0.0  0.118948  3.8e-05  1.0227  0.0  0.13614  0.114622  0.000125  1.027315  0.0
H  H24  1  0.77862036  0.81307664  0.20195077  1  0.091759  7.9e-05  1.005327  0.0  0.095265  0.000295  1.077644  0.0  0.097382  0.000202  1.077363  0.0  0.10382  0.093918  0.000369  1.077113  0.001
H  H25  1  0.27861394  0.18692921  0.79804998  1  0.091745  9.3e-05  1.005385  0.0  0.09527  0.000295  1.077683  0.0  0.097385  0.000201  1.077402  0.0  0.103839  0.093915  0.000369  1.077165  0.001
H  H26  1  0.90768710  0.72076253  0.98879225  1  0.132702  0.000483  0.960776  0.0  0.140392  0.000444  1.024394  0.0  0.144588  0.000333  1.020777  0.0  0.122065  0.136775  0.000522  1.027885  0.0
H  H27  1  0.40768547  0.27924377  0.01120865  1  0.132629  0.00049  0.960884  0.001  0.140389  0.000443  1.024423  0.0  0.144586  0.000333  1.020804  0.0  0.122069  0.136764  0.000522  1.027919  0.0
H  H28  1  0.42649573  0.59801845  0.29235008  1  0.129578  -0.000398  0.934849  0.0  0.140868  -0.00014  0.994599  0.0  0.144891  -0.000202  0.991971  0.0  0.098436  0.138219  -3e-05  0.996474  0.0
H  H29  1  0.92649360  0.40197591  0.70764870  1  0.129554  -0.000363  0.934873  0.0  0.140877  -0.000139  0.994584  0.0  0.144892  -0.000203  0.991956  0.0  0.098429  0.138226  -3e-05  0.996461  0.0
H  H30  1  0.32041719  0.56361829  0.42092280  1  0.144491  -0.000379  0.949296  0.0  0.151643  -0.000159  1.019593  0.0  0.155949  -0.000184  1.016628  0.0  0.106172  0.147929  -0.000197  1.023058  0.0
H  H31  1  0.82041834  0.43638003  0.57907512  1  0.144473  -0.000344  0.949359  0.0  0.151662  -0.00016  1.019616  0.0  0.155961  -0.000184  1.016649  0.0  0.106187  0.147949  -0.000197  1.023082  0.0
C  C32  1  0.40682380  0.98917396  0.60006876  1  0.145744  -0.006403  3.667286  -0.003  0.08839  -0.001571  3.935066  0.0  0.103153  -0.002951  3.948317  -0.001  0.140776  0.078487  -0.000626  3.927886  0.001
C  C33  1  0.90681984  0.01082911  0.39993290  1  0.145702  -0.006449  3.667024  -0.003  0.088351  -0.001572  3.934812  0.0  0.103114  -0.00295  3.948065  -0.001  0.140736  0.078446  -0.000625  3.927635  0.001
C  C34  1  0.17689310  0.06518170  0.59579305  1  -0.004588  -0.003033  3.749629  -0.002  -0.031357  -0.000885  4.014646  0.0  -0.027842  -0.00181  4.033948  -0.001  -0.002152  -0.034124  -0.000181  4.003562  0.0
C  C35  1  0.67689019  0.93481617  0.40420647  1  -0.004617  -0.003118  3.749699  -0.002  -0.031354  -0.000885  4.01473  0.0  -0.027837  -0.001808  4.034036  -0.001  -0.002168  -0.03412  -0.00018  4.003635  0.0
C  C36  1  0.17165867  0.92201308  0.62335981  1  -0.070047  0.003333  3.655651  0.004  -0.112669  0.001473  3.914248  0.002  -0.111559  0.001242  3.930876  0.002  -0.001415  -0.112259  0.001721  3.902839  0.002
C  C37  1  0.67165380  0.07798145  0.37663784  1  -0.069994  0.003383  3.655543  0.004  -0.112677  0.001474  3.914094  0.002  -0.111568  0.00124  3.930712  0.002  -0.001362  -0.112251  0.001721  3.902671  0.002
C  C38  1  0.37246460  0.73620806  0.66324954  1  -0.044736  0.000654  3.624099  0.001  -0.109675  0.000624  3.868012  0.001  -0.105345  0.000456  3.878588  0.001  -0.042991  -0.112531  0.000722  3.861297  0.001
C  C39  1  0.87245921  0.26379160  0.33675111  1  -0.044882  0.000663  3.624141  0.001  -0.109785  0.000624  3.86802  0.001  -0.105463  0.000456  3.878604  0.001  -0.043037  -0.11267  0.000722  3.86135  0.001
C  C40  1  0.36130922  0.73190800  0.79476172  1  0.091196  -0.00059  3.75416  0.0  0.111047  -0.000241  4.002814  0.0  0.110355  -0.000288  4.027209  0.0  -0.011432  0.111819  -6.8e-05  3.98468  0.0
C  C41  1  0.86130701  0.26809266  0.20523720  1  0.091228  -0.000647  3.753963  0.0  0.111091  -0.000242  4.002592  0.0  0.1104  -0.000293  4.026986  0.0  -0.011382  0.111874  -6.8e-05  3.984459  0.0
C  C42  1  0.44586114  0.82861224  0.86712278  1  -0.16565  0.000726  3.729592  0.001  -0.20035  0.000313  3.982869  0.0  -0.20315  0.000218  4.003207  0.0  -0.097468  -0.197047  0.000292  3.966219  0.0
C  C43  1  0.94586183  0.17138874  0.13287711  1  -0.165622  0.000803  3.729501  0.001  -0.200339  0.000313  3.982765  0.0  -0.20314  0.00022  4.003102  0.0  -0.097462  -0.19704  0.000292  3.966121  0.0
C  C44  1  0.42881194  0.82728523  0.98807826  1  0.101185  -0.000573  3.76583  0.0  0.12038  -0.000161  4.034246  0.0  0.123885  -0.000177  4.056313  0.0  -0.016689  0.1174  -6.7e-05  4.020037  0.0
C  C45  1  0.92881470  0.17271670  0.01191902  1  0.101089  -0.000634  3.765979  0.0  0.12032  -0.000161  4.034345  0.0  0.123827  -0.000183  4.05641  0.0  -0.016725  0.117345  -6.7e-05  4.020124  0.0
C  C46  1  0.33179606  0.73038684  0.03819749  1  -0.172713  0.00083  3.733075  0.001  -0.20716  0.000366  3.986355  0.0  -0.209905  0.000236  4.005834  0.0  -0.099212  -0.205934  0.000271  3.974784  0.0
C  C47  1  0.83179940  0.26961258  0.96179961  1  -0.17267  0.000815  3.732903  0.001  -0.207108  0.000363  3.986191  0.0  -0.209846  0.000242  4.005663  0.0  -0.099167  -0.205874  0.000271  3.9746  0.0
C  C48  1  0.24934906  0.63236374  0.96539657  1  0.102539  -0.000549  3.743778  0.0  0.123378  -0.00014  3.990248  0.0  0.124149  -0.000192  4.01303  0.0  -0.006444  0.122556  -3.9e-05  3.974956  0.0
C  C49  1  0.74935143  0.36763549  0.03460393  1  0.10262  -0.000536  3.743612  0.0  0.123415  -0.000133  3.990149  0.0  0.124184  -0.000207  4.012931  0.0  -0.006442  0.122598  -3.9e-05  3.974849  0.0
C  C50  1  0.26343404  0.63466355  0.84399328  1  -0.161295  0.00049  3.695832  0.001  -0.194409  0.000179  3.944222  0.0  -0.19747  0.00014  3.965764  0.0  -0.09188  -0.191656  0.000336  3.92852  0.0
C  C51  1  0.76343322  0.36533674  0.15600465  1  -0.161317  0.000487  3.695922  0.001  -0.19444  0.000178  3.944286  0.0  -0.197505  0.000145  3.96584  0.0  -0.091909  -0.191695  0.000336  3.928584  0.0
C  C52  1  0.14507898  0.52512316  0.01767615  1  -0.057575  0.001301  3.643849  0.001  -0.125325  0.001009  3.887564  0.001  -0.122116  0.000712  3.898582  0.001  -0.046631  -0.126888  0.001293  3.88  0.001
C  C53  1  0.64507973  0.47487672  0.98232166  1  -0.057619  0.001318  3.643903  0.002  -0.125391  0.001007  3.887626  0.001  -0.122181  0.000715  3.898649  0.001  -0.046619  -0.126964  0.001293  3.880068  0.001
C  C54  1  0.04945360  0.58708447  0.22003944  1  0.156536  -0.007555  3.6467  -0.004  0.10304  -0.002199  3.90967  0.0  0.118615  -0.00359  3.924132  -0.002  0.138944  0.092821  -0.00121  3.900267  0.0
C  C55  1  0.54945384  0.41291510  0.77995913  1  0.156628  -0.007484  3.646648  -0.004  0.103135  -0.002198  3.90959  0.0  0.118705  -0.003589  3.924056  -0.002  0.139002  0.092916  -0.001211  3.900184  0.0
C  C56  1  0.87124030  0.73962826  0.18405695  1  -0.006714  -0.001543  3.75987  0.0  -0.035312  -9e-05  4.029129  0.0  -0.032714  -0.001029  4.051275  0.0  -0.010718  -0.036666  0.000579  4.013295  0.001
C  C57  1  0.37123641  0.26037463  0.81594293  1  -0.006688  -0.001604  3.759833  0.0  -0.035316  -9.1e-05  4.029121  0.0  -0.032716  -0.001027  4.051261  0.0  -0.010735  -0.036681  0.000579  4.013315  0.001
C  C58  1  0.93240200  0.69447810  0.07792686  1  -0.06432  0.003279  3.657664  0.003  -0.101572  0.001881  3.909278  0.002  -0.099693  0.001651  3.926505  0.002  0.003011  -0.103359  0.002092  3.898395  0.002
C  C59  1  0.43240065  0.30552721  0.92207403  1  -0.064233  0.003273  3.65759  0.003  -0.101544  0.001885  3.909203  0.002  -0.099664  0.001649  3.926429  0.002  0.003022  -0.103321  0.002093  3.898309  0.002
C  C60  1  0.55653709  0.52533998  0.43540992  1  0.704914  -0.00878  3.865826  -0.007  0.674203  -0.002493  4.159658  -0.003  0.712847  -0.002298  4.150467  -0.002  0.200419  0.647663  -0.00269  4.164599  -0.003
C  C61  1  0.05654141  0.47466193  0.56459397  1  0.704842  -0.008746  3.865975  -0.007  0.674149  -0.002493  4.159777  -0.003  0.712786  -0.002297  4.150587  -0.002  0.200469  0.647619  -0.00269  4.164713  -0.003
C  C62  1  0.41383351  0.52565407  0.36401008  1  -0.457856  -0.000398  3.685885  0.001  -0.498806  -0.000165  3.929976  0.001  -0.510571  -0.00047  3.930559  0.0  -0.183337  -0.490659  8e-05  3.930074  0.001
C  C63  1  0.91383153  0.47434134  0.63598873  1  -0.457716  -0.000505  3.685945  0.001  -0.498768  -0.000166  3.929946  0.001  -0.510502  -0.000471  3.930496  0.0  -0.183336  -0.490626  7.9e-05  3.930039  0.001
C  C64  1  0.37061526  0.37284302  0.31426162  1  0.702717  -0.008919  3.857019  -0.008  0.670208  -0.001531  4.161754  -0.002  0.706734  -0.001258  4.155294  -0.001  0.195933  0.644912  -0.001898  4.165138  -0.002
C  C65  1  0.87062171  0.62715347  0.68574241  1  0.702499  -0.008922  3.857172  -0.008  0.670147  -0.001527  4.161689  -0.002  0.706667  -0.001261  4.155228  -0.001  0.195937  0.644863  -0.001898  4.165054  -0.002
Br  Br66  1  0.53928506  0.96163947  0.08755431  1  -0.063602  -6.4e-05  1.256011  0.0  -0.049938  4e-06  1.488046  0.0  -0.055235  3.4e-05  1.482726  0.0  0.050492  -0.046219  2.2e-05  1.492195  0.0
Br  Br67  1  0.03929057  0.03836127  0.91244866  1  -0.063568  -6.4e-05  1.25612  0.0  -0.049916  4e-06  1.48814  0.0  -0.055212  3.2e-05  1.482819  0.0  0.050508  -0.046197  2.2e-05  1.492288  0.0
N  N68  1  0.32372471  0.10478444  0.58054879  1  -0.336047  0.059293  3.34862  0.077  -0.28988  0.046066  3.656963  0.064  -0.31767  0.038182  3.674129  0.057  -0.374342  -0.273346  0.049648  3.647621  0.065
N  N69  1  0.82372391  0.89521616  0.41945271  1  -0.336024  0.059315  3.348372  0.077  -0.289843  0.046063  3.656684  0.064  -0.317649  0.038179  3.673866  0.057  -0.374305  -0.273294  0.049645  3.64734  0.065
N  N70  1  0.31844546  0.87549847  0.62475313  1  -0.056453  0.000757  3.577176  0.001  0.039763  0.000968  3.79084  0.002  0.025249  0.000536  3.817322  0.001  -0.241147  0.049335  0.001225  3.772774  0.002
N  N71  1  0.81844075  0.12450095  0.37524570  1  -0.056369  0.00076  3.577153  0.001  0.039836  0.000968  3.790813  0.002  0.025325  0.000536  3.817295  0.001  -0.241133  0.04941  0.001225  3.772756  0.002
N  N72  1  0.94563274  0.67241568  0.27191807  1  -0.365539  0.065854  3.350697  0.085  -0.324846  0.050152  3.666418  0.069  -0.356731  0.041685  3.687123  0.062  -0.37897  -0.305416  0.05427  3.654374  0.07
N  N73  1  0.44563007  0.32758421  0.72808178  1  -0.365544  0.065849  3.350703  0.085  -0.324849  0.050157  3.666423  0.069  -0.356719  0.041685  3.687115  0.062  -0.378996  -0.305433  0.054276  3.654363  0.07
N  N74  1  0.04411593  0.59759234  0.10259002  1  -0.050858  0.001301  3.587689  0.002  0.045784  0.001204  3.797268  0.002  0.031084  0.000697  3.823611  0.002  -0.241627  0.055069  0.001602  3.779647  0.002
N  N75  1  0.54411742  0.40240941  0.89740949  1  -0.050927  0.001283  3.587761  0.002  0.045696  0.001201  3.797364  0.002  0.030996  0.000698  3.823706  0.002  -0.241675  0.054979  0.001603  3.77973  0.002
O  O76  1  0.55933147  0.44937828  0.52686358  1  -0.629801  0.082167  2.058183  0.116  -0.607336  0.051443  2.350465  0.08  -0.649673  0.037397  2.339091  0.063  -0.339578  -0.578251  0.061292  2.358916  0.089
O  O77  1  0.05934152  0.55063357  0.47314589  1  -0.629774  0.082164  2.058319  0.116  -0.607317  0.051445  2.35059  0.08  -0.64967  0.037398  2.339236  0.063  -0.339585  -0.578222  0.061292  2.359054  0.089
O  O78  1  0.66689680  0.59626323  0.40253236  1  -0.619862  0.013823  1.978502  0.02  -0.592826  0.006727  2.235557  0.011  -0.621724  0.002676  2.222558  0.006  -0.323231  -0.570838  0.011516  2.244271  0.017
O  O79  1  0.16689421  0.40373365  0.59747236  1  -0.619884  0.013818  1.978598  0.02  -0.59287  0.006726  2.235666  0.011  -0.621759  0.002676  2.222666  0.006  -0.323285  -0.570897  0.011514  2.244376  0.017
O  O80  1  0.36748561  0.26970751  0.38646504  1  -0.618329  0.096929  2.036766  0.134  -0.604661  0.057087  2.319035  0.086  -0.649127  0.041388  2.309932  0.068  -0.347622  -0.574154  0.067982  2.325567  0.097
O  O81  1  0.86748674  0.73029003  0.61353815  1  -0.618275  0.096941  2.036713  0.134  -0.604657  0.057092  2.318917  0.086  -0.649133  0.041391  2.30982  0.068  -0.347601  -0.574144  0.067993  2.325457  0.097
O  O82  1  0.33911335  0.35359164  0.20816602  1  -0.600426  0.020895  1.865859  0.028  -0.575955  0.009031  2.091014  0.013  -0.600599  0.004184  2.082472  0.007  -0.332444  -0.555615  0.0157  2.094981  0.021
O  O83  1  0.83912896  0.64640587  0.79183977  1  -0.600365  0.020909  1.865961  0.028  -0.57595  0.009029  2.09105  0.013  -0.6006  0.004187  2.082509  0.007  -0.332485  -0.555617  0.015704  2.095013  0.021
