# generated using pymatgen
data_Zn5H16C24S2(N9O4)2
_symmetry_space_group_name_H-M   'P 1'
_cell_length_a   15.82861378
_cell_length_b   15.82871781
_cell_length_c   15.82860365
_cell_angle_alpha   108.51986181
_cell_angle_beta   108.51968238
_cell_angle_gamma   111.39139379
_symmetry_Int_Tables_number   1
_chemical_formula_structural   Zn5H16C24S2(N9O4)2
_chemical_formula_sum   'Zn10 H32 C48 S4 N36 O16'
_cell_volume   3050.29432219
_cell_formula_units_Z   2
loop_
 _symmetry_equiv_pos_site_id
 _symmetry_equiv_pos_as_xyz
  1  'x, y, z'
loop_
 _atom_site_type_symbol
 _atom_site_label
 _atom_site_symmetry_multiplicity
 _atom_site_fract_x
 _atom_site_fract_y
 _atom_site_fract_z
 _atom_site_occupancy
 _atom_site_pbe_bader_charge
 _atom_site_pbe_bader_spin_density
 _atom_site_pbe_cm5_charge
 _atom_site_pbe_ddec_charge
 _atom_site_pbe_ddec_spin_density
 _atom_site_pbe_ddec_sum_bond_order
 _atom_site_pbe_magmom
Zn  Zn0  1  0.98098026  0.19683971  0.94830986  1  1.239334  0  0.723526  0.665802  0  2.472172  0
Zn  Zn1  1  0.24853042  0.03266703  0.05168642  1  1.241648  0  0.723486  0.665783  0  2.472125  0
Zn  Zn2  1  0.96733170  0.01901785  0.21585998  1  1.240473  0  0.72348  0.665715  0  2.472172  0
Zn  Zn3  1  0.80316318  0.75147403  0.78413684  1  1.23811  0  0.723512  0.665819  0  2.472038  0
Zn  Zn4  1  0.00147602  0.55316027  0.28413822  1  1.238134  0  0.723491  0.665712  0  2.472166  0
Zn  Zn5  1  0.26901770  0.71733817  0.71586368  1  1.240515  0  0.72351  0.665784  0  2.472191  0
Zn  Zn6  1  0.44684163  0.73098194  0.44831578  1  1.239385  0  0.723512  0.66579  0  2.472157  0
Zn  Zn7  1  0.28266335  0.99852808  0.55168670  1  1.241611  0  0.723491  0.665771  0  2.47205  0
Zn  Zn8  1  0.99999908  0.99999773  0.99999640  1  1.279652  0  0.699694  0.442622  0  2.647717  0
Zn  Zn9  1  0.24999697  0.74999991  0.49999975  1  1.279682  0  0.699701  0.442663  0  2.647716  0
H  H10  1  0.07373936  0.54275962  0.00938050  1  0.094662  0  0.110286  0.123466  0  0.99507  0
H  H11  1  0.79213370  0.04791900  0.70401921  1  0.130751  0  0.135287  0.134321  0  0.975144  0
H  H12  1  0.70534997  0.83174729  0.62087243  1  0.190448  0  0.123247  0.133354  0  1.039065  0
H  H13  1  0.21986403  0.32524781  0.97731614  1  0.14582  0  0.13202  0.129564  0  0.98618  0
H  H14  1  0.53338810  0.06437135  0.99063214  1  0.1049  0  0.110325  0.123548  0  0.995245  0
H  H15  1  0.34389439  0.08810263  0.29597327  1  0.157843  0  0.135311  0.134302  0  0.975237  0
H  H16  1  0.21086633  0.08446561  0.37911774  1  0.166658  0  0.123274  0.133387  0  1.039046  0
H  H17  1  0.34793338  0.24254592  0.02268017  1  0.15104  0  0.132018  0.129543  0  0.986199  0
H  H18  1  0.93563698  0.92626222  0.46902051  1  0.100959  0  0.110319  0.123568  0  0.995107  0
H  H19  1  0.91189661  0.20786619  0.25578819  1  0.148298  0  0.135285  0.134276  0  0.975219  0
H  H20  1  0.91553090  0.29464822  0.12639718  1  0.171888  0  0.123278  0.133415  0  1.03903  0
H  H21  1  0.75745497  0.78013292  0.10538244  1  0.153461  0  0.132013  0.129525  0  0.986282  0
H  H22  1  0.45723994  0.46662065  0.53098852  1  0.093658  0  0.110337  0.123603  0  0.995125  0
H  H23  1  0.95208387  0.65610052  0.74420840  1  0.116011  0  0.135274  0.134345  0  0.975101  0
H  H24  1  0.16825540  0.78913147  0.87360521  1  0.177367  0  0.123271  0.133386  0  1.039085  0
H  H25  1  0.67475009  0.65206891  0.89461135  1  0.183682  0  0.132018  0.12955  0  0.986292  0
H  H26  1  0.71661914  0.20724368  0.03098285  1  0.093715  0  0.110308  0.123558  0  0.995167  0
H  H27  1  0.90609536  0.70207279  0.24421067  1  0.115926  0  0.135311  0.134332  0  0.975218  0
H  H28  1  0.03912052  0.91824426  0.37360054  1  0.177646  0  0.123255  0.133374  0  1.039097  0
H  H29  1  0.90207106  0.42474787  0.39461227  1  0.183672  0  0.132011  0.129537  0  0.986282  0
H  H30  1  0.17626329  0.68563631  0.96902456  1  0.100815  0  0.110325  0.123587  0  0.99512  0
H  H31  1  0.45786198  0.66189755  0.75579283  1  0.148286  0  0.135273  0.13423  0  0.975207  0
H  H32  1  0.54464526  0.66553132  0.62640124  1  0.171462  0  0.123272  0.133423  0  1.038981  0
H  H33  1  0.03013571  0.50745436  0.60538469  1  0.153327  0  0.132008  0.129534  0  0.986259  0
H  H34  1  0.79276003  0.82374208  0.50937869  1  0.094769  0  0.110296  0.123518  0  0.995149  0
H  H35  1  0.29792673  0.54213686  0.20402514  1  0.13073  0  0.135317  0.134311  0  0.97519  0
H  H36  1  0.08175113  0.45534913  0.12087642  1  0.19048  0  0.123254  0.133368  0  1.039052  0
H  H37  1  0.57525028  0.96986583  0.47732345  1  0.146095  0  0.132022  0.129555  0  0.986226  0
H  H38  1  0.31436656  0.28338354  0.49062616  1  0.104832  0  0.110313  0.123546  0  0.995191  0
H  H39  1  0.33810941  0.09389955  0.79598131  1  0.157722  0  0.135272  0.134311  0  0.97518  0
H  H40  1  0.33447498  0.96087386  0.87912482  1  0.166427  0  0.123265  0.133347  0  1.039065  0
H  H41  1  0.49254240  0.09792759  0.52268147  1  0.151092  0  0.13203  0.12956  0  0.986279  0
C  C42  1  0.02515018  0.33114307  0.88880898  1  1.561796  0  0.18323  0.558343  0  4.26235  0
C  C43  1  0.07675567  0.43020052  0.88975521  1  -0.212584  0  -0.028173  -0.125079  0  4.004105  0
C  C44  1  0.09775102  0.52810848  0.95169807  1  0.026523  0  -0.095881  -0.105037  0  3.998863  0
C  C45  1  0.80690372  0.00194268  0.73827911  1  0.411312  0  0.022615  -0.034503  0  3.961174  0
C  C46  1  0.76504929  0.89533352  0.69766418  1  0.403298  0  0.016327  -0.044842  0  3.956015  0
C  C47  1  0.20712177  0.25913823  0.98966586  1  0.414676  0  0.02197  -0.037596  0  3.961423  0
C  C48  1  0.44233974  0.13634741  0.11119629  1  1.574676  0  0.183092  0.558145  0  4.262454  0
C  C49  1  0.54045138  0.18700738  0.11024793  1  -0.228182  0  -0.028115  -0.124932  0  4.004113  0
C  C50  1  0.57641577  0.14606223  0.04830278  1  -0.034083  0  -0.095928  -0.105298  0  3.999243  0
C  C51  1  0.26365928  0.06861579  0.26171637  1  0.391269  0  0.022589  -0.0345  0  3.96121  0
C  C52  1  0.19766184  0.06737575  0.30232999  1  0.425547  0  0.016362  -0.04476  0  3.955997  0
C  C53  1  0.26947240  0.21745151  0.01032860  1  0.397448  0  0.021956  -0.037614  0  3.961534  0
C  C54  1  0.86365645  0.97484676  0.30599011  1  1.543392  0  0.183168  0.55828  0  4.262358  0
C  C55  1  0.81299709  0.92323849  0.35344322  1  -0.197843  0  -0.02811  -0.12502  0  4.004065  0
C  C56  1  0.85394313  0.90224126  0.43035473  1  -0.031939  0  -0.095998  -0.105376  0  3.999105  0
C  C57  1  0.93138356  0.19309902  0.19503867  1  0.39489  0  0.022603  -0.034525  0  3.961265  0
C  C58  1  0.93261933  0.23494804  0.13027853  1  0.42166  0  0.016373  -0.044816  0  3.955974  0
C  C59  1  0.78254637  0.79287536  0.05201622  1  0.403955  0  0.021963  -0.03759  0  3.961534  0
C  C60  1  0.66885677  0.55766825  0.69401334  1  1.528024  0  0.183249  0.558526  0  4.26235  0
C  C61  1  0.56979991  0.45956056  0.64656794  1  -0.200084  0  -0.028118  -0.125015  0  4.00424  0
C  C62  1  0.47189255  0.42359306  0.56965248  1  0.0473  0  -0.096015  -0.105427  0  3.999151  0
C  C63  1  0.99805849  0.73633840  0.80495687  1  0.436734  0  0.022603  -0.034577  0  3.961138  0
C  C64  1  0.10466951  0.80233288  0.86971332  1  0.411738  0  0.01632  -0.044758  0  3.956023  0
C  C65  1  0.74085888  0.73052609  0.94797713  1  0.37242  0  0.022008  -0.037543  0  3.961613  0
C  C66  1  0.80766868  0.41886007  0.19401026  1  1.527987  0  0.183175  0.558372  0  4.262377  0
C  C67  1  0.70955974  0.31980267  0.14656448  1  -0.200061  0  -0.028091  -0.124985  0  4.004101  0
C  C68  1  0.67359330  0.22189456  0.06964820  1  0.047196  0  -0.096018  -0.105344  0  3.99906  0
C  C69  1  0.98633447  0.74805139  0.30495677  1  0.436905  0  0.022557  -0.034591  0  3.961194  0
C  C70  1  0.05232683  0.85466234  0.36971675  1  0.4111  0  0.01629  -0.044865  0  3.956049  0
C  C71  1  0.98052805  0.49085763  0.44797806  1  0.372526  0  0.021976  -0.037561  0  3.96156  0
C  C72  1  0.22484750  0.61365485  0.80599135  1  1.543375  0  0.183208  0.558366  0  4.262231  0
C  C73  1  0.17323766  0.56299718  0.85344463  1  -0.197728  0  -0.02809  -0.124942  0  4.004  0
C  C74  1  0.15224411  0.60394399  0.93035829  1  -0.031898  0  -0.096043  -0.105528  0  3.999176  0
C  C75  1  0.44309586  0.68138618  0.69504539  1  0.394736  0  0.022555  -0.034487  0  3.961121  0
C  C76  1  0.48494663  0.68262098  0.63028510  1  0.422054  0  0.016447  -0.044754  0  3.955866  0
C  C77  1  0.04287651  0.53254471  0.55201683  1  0.404054  0  0.021995  -0.037578  0  3.961534  0
C  C78  1  0.58114227  0.77514963  0.38880613  1  1.561715  0  0.183104  0.558178  0  4.262381  0
C  C79  1  0.68020140  0.82675871  0.38975590  1  -0.212223  0  -0.028149  -0.125018  0  4.004083  0
C  C80  1  0.77811154  0.84775840  0.45170290  1  0.025937  0  -0.09591  -0.105179  0  3.999001  0
C  C81  1  0.25194644  0.55690387  0.23828367  1  0.410949  0  0.022484  -0.034659  0  3.961258  0
C  C82  1  0.14533628  0.51504929  0.19766707  1  0.403382  0  0.016376  -0.044751  0  3.955984  0
C  C83  1  0.50914035  0.95711933  0.48967037  1  0.414296  0  0.021999  -0.037587  0  3.961445  0
C  C84  1  0.38634530  0.19233499  0.61119144  1  1.574481  0  0.18315  0.558314  0  4.26235  0
C  C85  1  0.43700501  0.29044738  0.61024437  1  -0.228472  0  -0.028108  -0.124984  0  4.004077  0
C  C86  1  0.39605778  0.32641376  0.54830370  1  -0.033857  0  -0.095947  -0.105238  0  3.999081  0
C  C87  1  0.31861648  0.01366241  0.76171921  1  0.391632  0  0.022571  -0.034634  0  3.961166  0
C  C88  1  0.31738053  0.94766773  0.80233558  1  0.425444  0  0.016396  -0.044593  0  3.95588  0
C  C89  1  0.46745336  0.01947141  0.51033388  1  0.39723  0  0.021988  -0.037589  0  3.961453  0
S  S90  1  0.12499504  0.43171170  0.80671013  1  0.29572  0  0.100871  0.165444  0  2.863052  0
S  S91  1  0.62500165  0.31829231  0.19329086  1  0.30387  0  0.100773  0.165317  0  2.863159  0
S  S92  1  0.68171214  0.87499716  0.30670973  1  0.295833  0  0.100864  0.165453  0  2.863075  0
S  S93  1  0.56828954  0.37500094  0.69329088  1  0.303956  0  0.100777  0.165347  0  2.863091  0
N  N94  1  0.88264212  0.97295756  0.85808834  1  -0.20719  0  -0.122667  -0.042099  0  3.436113  0
N  N95  1  0.87878775  0.04726218  0.83732700  1  -0.729318  0  -0.237626  -0.14841  0  3.580173  0
N  N96  1  0.81393321  0.88039342  0.77388922  1  -0.747641  0  -0.237231  -0.15796  0  3.553104  0
N  N97  1  0.11713668  0.19862753  0.98424978  1  -0.730322  0  -0.236423  -0.145295  0  3.558168  0
N  N98  1  0.11486642  0.02454847  0.14190696  1  -0.206617  0  -0.122641  -0.042053  0  3.435932  0
N  N99  1  0.20993181  0.04145465  0.16266805  1  -0.729173  0  -0.237658  -0.148519  0  3.580229  0
N  N100  1  0.10649762  0.04003374  0.22610324  1  -0.750234  0  -0.237251  -0.157973  0  3.553166  0
N  N101  1  0.21437880  0.13288078  0.01574346  1  -0.728421  0  -0.236477  -0.14539  0  3.558325  0
N  N102  1  0.97544923  0.11735464  0.09031261  1  -0.211247  0  -0.122653  -0.042127  0  3.435971  0
N  N103  1  0.95854330  0.12121089  0.16847201  1  -0.72547  0  -0.237635  -0.148326  0  3.580102  0
N  N104  1  0.95996361  0.18606509  0.06645743  1  -0.745953  0  -0.23726  -0.157991  0  3.553112  0
N  N105  1  0.86711804  0.88286228  0.08149271  1  -0.745294  0  -0.236429  -0.145264  0  3.558165  0
N  N106  1  0.02704499  0.88513284  0.90967936  1  -0.212211  0  -0.122672  -0.042105  0  3.436055  0
N  N107  1  0.95273925  0.79006717  0.83152025  1  -0.723418  0  -0.237611  -0.14842  0  3.580208  0
N  N108  1  0.11961020  0.89349864  0.93353692  1  -0.755961  0  -0.237192  -0.158007  0  3.553117  0
N  N109  1  0.80137017  0.78562253  0.91850303  1  -0.738451  0  -0.236542  -0.145436  0  3.558267  0
N  N110  1  0.13513103  0.77704290  0.40968339  1  -0.212155  0  -0.122679  -0.042141  0  3.436186  0
N  N111  1  0.04006553  0.70273599  0.33152432  1  -0.723234  0  -0.237592  -0.148335  0  3.580162  0
N  N112  1  0.14349419  0.86960504  0.43353753  1  -0.755957  0  -0.23716  -0.157883  0  3.553218  0
N  N113  1  0.03562366  0.55137004  0.41850500  1  -0.738406  0  -0.236489  -0.145388  0  3.558263  0
N  N114  1  0.36735478  0.72545332  0.59031855  1  -0.211578  0  -0.122718  -0.042207  0  3.436174  0
N  N115  1  0.37120887  0.70854666  0.66847694  1  -0.725092  0  -0.23757  -0.148302  0  3.580347  0
N  N116  1  0.43606453  0.70996473  0.56646399  1  -0.745854  0  -0.237268  -0.158005  0  3.553276  0
N  N117  1  0.13286312  0.61712065  0.58149733  1  -0.745169  0  -0.236501  -0.14536  0  3.558213  0
N  N118  1  0.22296031  0.63264395  0.35809081  1  -0.207336  0  -0.122689  -0.042159  0  3.436081  0
N  N119  1  0.29726567  0.62879034  0.33733007  1  -0.72892  0  -0.237603  -0.14833  0  3.580188  0
N  N120  1  0.13039584  0.56393279  0.27389124  1  -0.747569  0  -0.237174  -0.157901  0  3.553133  0
N  N121  1  0.44862811  0.86713560  0.48425564  1  -0.730257  0  -0.236407  -0.145203  0  3.558151  0
N  N122  1  0.27454575  0.86486723  0.64191026  1  -0.207908  0  -0.122716  -0.042167  0  3.436233  0
N  N123  1  0.29145302  0.95993261  0.66267056  1  -0.72779  0  -0.237594  -0.148355  0  3.580161  0
N  N124  1  0.29003665  0.85650250  0.72610957  1  -0.750381  0  -0.237217  -0.158062  0  3.553222  0
N  N125  1  0.38287981  0.96437749  0.51574628  1  -0.728281  0  -0.236539  -0.145396  0  3.558206  0
N  N126  1  0.12259175  0.12258815  0.99999637  1  -0.205584  0  -0.120619  -0.039223  0  3.453451  0
N  N127  1  0.87741001  0.87740777  0.99999748  1  -0.189596  0  -0.120617  -0.039287  0  3.453455  0
N  N128  1  0.12740964  0.62741215  0.50000179  1  -0.189758  0  -0.120582  -0.039216  0  3.45342  0
N  N129  1  0.37258763  0.87259183  0.50000105  1  -0.20552  0  -0.120628  -0.039325  0  3.453409  0
O  O130  1  0.00670844  0.24848203  0.82106514  1  -1.172712  0  -0.334685  -0.544138  0  2.097554  0
O  O131  1  0.00480652  0.33404084  0.96333010  1  -1.152469  0  -0.340803  -0.533465  0  2.236177  0
O  O132  1  0.42741675  0.18564686  0.17893705  1  -1.169478  0  -0.334631  -0.544035  0  2.097558  0
O  O133  1  0.37071653  0.04148257  0.03667324  1  -1.165052  0  -0.340741  -0.533381  0  2.236223  0
O  O134  1  0.81435453  0.99328690  0.24176921  1  -1.166845  0  -0.334661  -0.544116  0  2.097597  0
O  O135  1  0.95852221  0.99519147  0.32923456  1  -1.153914  0  -0.340778  -0.533424  0  2.236184  0
O  O136  1  0.75151946  0.57258512  0.75822944  1  -1.168454  0  -0.334701  -0.544211  0  2.097552  0
O  O137  1  0.66595658  0.62928659  0.67076561  1  -1.157098  0  -0.340768  -0.533509  0  2.236134  0
O  O138  1  0.82259031  0.50152349  0.25823322  1  -1.168428  0  -0.334684  -0.544179  0  2.097482  0
O  O139  1  0.87928802  0.41595757  0.17076481  1  -1.15714  0  -0.340726  -0.53336  0  2.236154  0
O  O140  1  0.24329138  0.56435366  0.74177459  1  -1.166864  0  -0.334692  -0.544166  0  2.097526  0
O  O141  1  0.24519023  0.70852036  0.82923548  1  -1.153909  0  -0.340777  -0.533445  0  2.236164  0
O  O142  1  0.49847949  0.75670863  0.32106156  1  -1.172731  0  -0.334633  -0.544049  0  2.097481  0
O  O143  1  0.58404117  0.75481128  0.46333101  1  -1.152383  0  -0.340736  -0.533412  0  2.236219  0
O  O144  1  0.43564402  0.17741359  0.67893360  1  -1.169435  0  -0.334672  -0.544155  0  2.09758  0
O  O145  1  0.29147884  0.12071145  0.53666783  1  -1.164898  0  -0.340771  -0.533455  0  2.23619  0
