# generated using pymatgen
data_TlH4(C2N)3
_symmetry_space_group_name_H-M   'P 1'
_cell_length_a   4.02394072
_cell_length_b   12.21551109
_cell_length_c   13.49083302
_cell_angle_alpha   93.82438212
_cell_angle_beta   98.54565156
_cell_angle_gamma   89.97062213
_symmetry_Int_Tables_number   1
_chemical_formula_structural   TlH4(C2N)3
_chemical_formula_sum   'Tl4 H16 C24 N12'
_cell_volume   654.28280429
_cell_formula_units_Z   4
loop_
 _symmetry_equiv_pos_site_id
 _symmetry_equiv_pos_as_xyz
  1  'x, y, z'
loop_
 _atom_site_type_symbol
 _atom_site_label
 _atom_site_symmetry_multiplicity
 _atom_site_fract_x
 _atom_site_fract_y
 _atom_site_fract_z
 _atom_site_occupancy
 _atom_site_hle17_bader_spin_density
 _atom_site_hle17_ddec_charge
 _atom_site_hle17_ddec_spin_density
 _atom_site_hle17_ddec_sum_bond_order
 _atom_site_hle17_magmom
 _atom_site_hse06_10hf_bader_spin_density
 _atom_site_hse06_10hf_ddec_charge
 _atom_site_hse06_10hf_ddec_spin_density
 _atom_site_hse06_10hf_ddec_sum_bond_order
 _atom_site_hse06_10hf_magmom
 _atom_site_hse06_bader_spin_density
 _atom_site_hse06_ddec_charge
 _atom_site_hse06_ddec_spin_density
 _atom_site_hse06_ddec_sum_bond_order
 _atom_site_hse06_magmom
 _atom_site_pbe_bader_spin_density
 _atom_site_pbe_cm5_charge
 _atom_site_pbe_ddec_charge
 _atom_site_pbe_ddec_spin_density
 _atom_site_pbe_ddec_sum_bond_order
 _atom_site_pbe_magmom
Tl  Tl0  1  0.06252619  0.62694277  0.07768683  1  0  0.669112  0  1.029992  0  0  0.516047  0  1.369147  0  0  0.546821  0  1.351205  0  0  0.368443  0.493539  0  1.381985  0
Tl  Tl1  1  0.98566872  0.87286756  0.92245667  1  0  0.669612  0  1.029784  0  0  0.516545  0  1.368961  0  0  0.547407  0  1.350801  0  0  0.368919  0.494042  0  1.381815  0
Tl  Tl2  1  0.93749037  0.37305675  0.92231108  1  0  0.669118  0  1.029982  0  0  0.516063  0  1.369135  0  0  0.546834  0  1.351193  0  0  0.368453  0.493549  0  1.381983  0
Tl  Tl3  1  0.01433278  0.12713279  0.07754210  1  0  0.669632  0  1.029753  0  0  0.516547  0  1.368961  0  0  0.547415  0  1.350782  0  0  0.368917  0.494042  0  1.381819  0
H  H4  1  0.26460452  0.55353027  0.34779653  1  0  0.09465  0  0.966077  0  0  0.107617  0  1.027454  0  0  0.10989  0  1.02674  0  0  0.101066  0.105979  0  1.028046  0
H  H5  1  0.91759928  0.94657852  0.65280448  1  0  0.095024  0  0.965149  0  0  0.107993  0  1.02663  0  0  0.110283  0  1.025914  0  0  0.100954  0.106352  0  1.027206  0
H  H6  1  0.73539698  0.44647007  0.65220224  1  0  0.094632  0  0.966086  0  0  0.107602  0  1.027456  0  0  0.109873  0  1.02675  0  0  0.101054  0.105965  0  1.028047  0
H  H7  1  0.08239714  0.05342019  0.34719545  1  0  0.095094  0  0.965127  0  0  0.10804  0  1.026624  0  0  0.110331  0  1.025908  0  0  0.100968  0.1064  0  1.027199  0
H  H8  1  0.19073590  0.42155271  0.47602804  1  0  0.080941  0  0.960274  0  0  0.095081  0  1.018711  0  0  0.09722  0  1.018816  0  0  0.095762  0.093542  0  1.018719  0
H  H9  1  0.71625514  0.07843813  0.52437105  1  0  0.081686  0  0.960804  0  0  0.09592  0  1.018838  0  0  0.098071  0  1.018928  0  0  0.095967  0.09438  0  1.01884  0
H  H10  1  0.80926810  0.57844681  0.52397005  1  0  0.080957  0  0.960283  0  0  0.095097  0  1.018718  0  0  0.09724  0  1.018811  0  0  0.095767  0.093557  0  1.01873  0
H  H11  1  0.28372632  0.92156550  0.47563220  1  0  0.081713  0  0.960718  0  0  0.095953  0  1.018751  0  0  0.098096  0  1.018862  0  0  0.095977  0.094413  0  1.018753  0
H  H12  1  0.32923159  0.22619202  0.45163824  1  0  0.079482  0  0.979635  0  0  0.091511  0  1.042852  0  0  0.093677  0  1.042619  0  0  0.094243  0.089953  0  1.043095  0
H  H13  1  0.87898032  0.27378502  0.54855626  1  0  0.079748  0  0.978882  0  0  0.091353  0  1.042542  0  0  0.093513  0  1.042333  0  0  0.09425  0.0898  0  1.042775  0
H  H14  1  0.67076735  0.77380668  0.54835957  1  0  0.079473  0  0.979668  0  0  0.091506  0  1.042879  0  0  0.093677  0  1.042647  0  0  0.094254  0.089948  0  1.043123  0
H  H15  1  0.12101609  0.72621450  0.45144816  1  0  0.079798  0  0.978845  0  0  0.091423  0  1.042485  0  0  0.09358  0  1.042274  0  0  0.094275  0.089872  0  1.042715  0
H  H16  1  0.56017996  0.15309496  0.29841898  1  0  0.098445  0  0.975836  0  0  0.10735  0  1.041927  0  0  0.110102  0  1.040815  0  0  0.100721  0.10536  0  1.042777  0
H  H17  1  0.26343122  0.34692839  0.70155753  1  0  0.097932  0  0.976585  0  0  0.107227  0  1.042289  0  0  0.110042  0  1.041111  0  0  0.100337  0.105207  0  1.043167  0
H  H18  1  0.43981903  0.84690538  0.70157967  1  0  0.098429  0  0.975837  0  0  0.10733  0  1.04193  0  0  0.110083  0  1.040817  0  0  0.10072  0.105339  0  1.04278  0
H  H19  1  0.73657776  0.65307031  0.29844221  1  0  0.098039  0  0.976549  0  0  0.107303  0  1.042256  0  0  0.110116  0  1.04108  0  0  0.100368  0.105277  0  1.04314  0
C  C20  1  0.45213195  0.42607844  0.24947449  1  0  0.130614  0  3.827537  0  0  0.127854  0  4.073608  0  0  0.130593  0  4.096217  0  0  0.08412  0.125856  0  4.058426  0
C  C21  1  0.20388077  0.07403938  0.75083216  1  0  0.133063  0  3.82588  0  0  0.129917  0  4.071949  0  0  0.132671  0  4.094567  0  0  0.08577  0.127912  0  4.056768  0
C  C22  1  0.54786706  0.57392273  0.75052347  1  0  0.130813  0  3.82731  0  0  0.128062  0  4.073393  0  0  0.130803  0  4.096  0  0  0.084204  0.126063  0  4.058214  0
C  C23  1  0.79611314  0.92596014  0.24916918  1  0  0.13322  0  3.825797  0  0  0.130061  0  4.071878  0  0  0.132815  0  4.094495  0  0  0.085784  0.128055  0  4.056695  0
C  C24  1  0.32831087  0.46726568  0.33668956  1  0  -0.132991  0  3.733183  0  0  -0.150885  0  3.983614  0  0  -0.152518  0  4.00287  0  0  -0.091841  -0.14968  0  3.970557  0
C  C25  1  0.99236053  0.03283847  0.66379600  1  0  -0.135227  0  3.733941  0  0  -0.153086  0  3.98447  0  0  -0.154747  0  4.003762  0  0  -0.092681  -0.151861  0  3.97139  0
C  C26  1  0.67168560  0.53273466  0.66330824  1  0  -0.13307  0  3.733359  0  0  -0.150951  0  3.983785  0  0  -0.152587  0  4.003041  0  0  -0.091874  -0.149745  0  3.970727  0
C  C27  1  0.00763080  0.96715859  0.33620508  1  0  -0.135448  0  3.734173  0  0  -0.153278  0  3.984701  0  0  -0.15494  0  4.003995  0  0  -0.09274  -0.152052  0  3.971619  0
C  C28  1  0.28882175  0.39320982  0.40777358  1  0  -0.072798  0  3.784843  0  0  -0.090314  0  4.04172  0  0  -0.092753  0  4.064449  0  0  -0.097899  -0.088561  0  4.026138  0
C  C29  1  0.88218984  0.10683240  0.59262456  1  0  -0.07387  0  3.788038  0  0  -0.091357  0  4.044573  0  0  -0.093793  0  4.067288  0  0  -0.098551  -0.08961  0  4.029012  0
C  C30  1  0.71117976  0.60679052  0.59222445  1  0  -0.072763  0  3.784989  0  0  -0.090289  0  4.041861  0  0  -0.092727  0  4.064594  0  0  -0.097866  -0.088537  0  4.026281  0
C  C31  1  0.11780159  0.89316795  0.40737672  1  0  -0.073877  0  3.788089  0  0  -0.09137  0  4.044631  0  0  -0.09381  0  4.067344  0  0  -0.098549  -0.089623  0  4.02907  0
C  C32  1  0.37012168  0.28087000  0.39387213  1  0  -0.079431  0  3.800602  0  0  -0.095104  0  4.053055  0  0  -0.097064  0  4.075531  0  0  -0.100285  -0.093668  0  4.037637  0
C  C33  1  0.97764648  0.21912467  0.60632950  1  0  -0.08009  0  3.798901  0  0  -0.095456  0  4.051865  0  0  -0.097417  0  4.074322  0  0  -0.100762  -0.094024  0  4.036474  0
C  C34  1  0.62988231  0.71912952  0.60612670  1  0  -0.079378  0  3.800657  0  0  -0.095058  0  4.053098  0  0  -0.097024  0  4.075578  0  0  -0.100231  -0.093623  0  4.037685  0
C  C35  1  0.02234741  0.78087486  0.39367480  1  0  -0.079911  0  3.798555  0  0  -0.095294  0  4.051508  0  0  -0.097251  0  4.07396  0  0  -0.100677  -0.093864  0  4.036118  0
C  C36  1  0.49626980  0.23939411  0.30893623  1  0  -0.157772  0  3.766673  0  0  -0.169813  0  4.011054  0  0  -0.173162  0  4.032315  0  0  -0.097144  -0.167367  0  3.99657  0
C  C37  1  0.18914990  0.26062142  0.69110907  1  0  -0.156548  0  3.765313  0  0  -0.169196  0  4.009104  0  0  -0.172566  0  4.030373  0  0  -0.096126  -0.166734  0  3.994641  0
C  C38  1  0.50373170  0.76060623  0.69106179  1  0  -0.157783  0  3.766605  0  0  -0.169802  0  4.011026  0  0  -0.173151  0  4.032288  0  0  -0.097167  -0.167355  0  3.996545  0
C  C39  1  0.81084401  0.73937811  0.30889376  1  0  -0.156799  0  3.765309  0  0  -0.169419  0  4.009141  0  0  -0.172791  0  4.030409  0  0  -0.096191  -0.166952  0  3.994685  0
C  C40  1  0.69814453  0.81362713  0.23616963  1  0  0.124752  0  3.85142  0  0  0.125885  0  4.085871  0  0  0.127801  0  4.110441  0  0  0.084806  0.124449  0  4.069297  0
C  C41  1  0.46371293  0.68633335  0.76375324  1  0  0.124951  0  3.850375  0  0  0.12528  0  4.085838  0  0  0.127215  0  4.110363  0  0  0.084302  0.123826  0  4.069314  0
C  C42  1  0.30185690  0.18637157  0.76383274  1  0  0.124842  0  3.85137  0  0  0.125967  0  4.085833  0  0  0.12788  0  4.11041  0  0  0.084863  0.12453  0  4.069257  0
C  C43  1  0.53628608  0.31366781  0.23624547  1  0  0.124895  0  3.850523  0  0  0.1253  0  4.085871  0  0  0.127235  0  4.1104  0  0  0.084322  0.123847  0  4.069344  0
N  N44  1  0.51116659  0.47511817  0.16510144  1  0  -0.356039  0  3.092093  0  0  -0.297113  0  3.355482  0  0  -0.313187  0  3.376602  0  0  -0.224821  -0.28573  0  3.340631  0
N  N45  1  0.34712866  0.02503944  0.83520633  1  0  -0.355811  0  3.09188  0  0  -0.296889  0  3.35522  0  0  -0.312918  0  3.376253  0  0  -0.225104  -0.285543  0  3.340444  0
N  N46  1  0.48883745  0.52488299  0.83489748  1  0  -0.356167  0  3.091992  0  0  -0.297249  0  3.355411  0  0  -0.313319  0  3.376521  0  0  -0.224872  -0.285865  0  3.340565  0
N  N47  1  0.65287280  0.97496008  0.16479387  1  0  -0.355868  0  3.091886  0  0  -0.296938  0  3.355228  0  0  -0.312969  0  3.376261  0  0  -0.225141  -0.285597  0  3.340468  0
N  N48  1  0.37900403  0.60369706  0.89604766  1  0  -0.128056  0  3.172103  0  0  -0.080934  0  3.434432  0  0  -0.083953  0  3.456984  0  0  -0.095927  -0.078063  0  3.418283  0
N  N49  1  0.48146347  0.89620062  0.10382750  1  0  -0.128242  0  3.173844  0  0  -0.081095  0  3.436265  0  0  -0.084159  0  3.458878  0  0  -0.096029  -0.07822  0  3.420095  0
N  N50  1  0.62099747  0.39630328  0.10395185  1  0  -0.128052  0  3.172121  0  0  -0.080939  0  3.434469  0  0  -0.083957  0  3.457022  0  0  -0.095943  -0.078067  0  3.418319  0
N  N51  1  0.51854300  0.10379808  0.89617287  1  0  -0.128309  0  3.173781  0  0  -0.081169  0  3.436214  0  0  -0.084233  0  3.458827  0  0  -0.096083  -0.078291  0  3.420045  0
N  N52  1  0.50149233  0.79879755  0.14418839  1  0  -0.351735  0  3.12224  0  0  -0.287504  0  3.377614  0  0  -0.303851  0  3.400211  0  0  -0.221538  -0.275912  0  3.36179  0
N  N53  1  0.35917003  0.70117000  0.85580714  1  0  -0.35151  0  3.122031  0  0  -0.286965  0  3.377552  0  0  -0.303346  0  3.400169  0  0  -0.221046  -0.275351  0  3.361687  0
N  N54  1  0.49851414  0.20120115  0.85581198  1  0  -0.351694  0  3.122246  0  0  -0.287463  0  3.377622  0  0  -0.30381  0  3.400222  0  0  -0.221518  -0.275871  0  3.361796  0
N  N55  1  0.64082897  0.29883116  0.14419156  1  0  -0.351424  0  3.122065  0  0  -0.286903  0  3.377564  0  0  -0.30328  0  3.400166  0  0  -0.22098  -0.275288  0  3.361696  0
