# generated using pymatgen
data_Zr3H17C45O16
_symmetry_space_group_name_H-M   'P 1'
_cell_length_a   17.45731280
_cell_length_b   17.46777458
_cell_length_c   17.46177343
_cell_angle_alpha   93.58180846
_cell_angle_beta   93.58728806
_cell_angle_gamma   93.52561089
_symmetry_Int_Tables_number   1
_chemical_formula_structural   Zr3H17C45O16
_chemical_formula_sum   'Zr6 H34 C90 O32'
_cell_volume   5292.54020861
_cell_formula_units_Z   2
loop_
 _symmetry_equiv_pos_site_id
 _symmetry_equiv_pos_as_xyz
  1  'x, y, z'
loop_
 _atom_site_type_symbol
 _atom_site_label
 _atom_site_symmetry_multiplicity
 _atom_site_fract_x
 _atom_site_fract_y
 _atom_site_fract_z
 _atom_site_occupancy
 _atom_site_pbe_bader_charge
 _atom_site_pbe_bader_spin_density
 _atom_site_pbe_cm5_charge
 _atom_site_pbe_ddec_charge
 _atom_site_pbe_ddec_spin_density
 _atom_site_pbe_ddec_sum_bond_order
 _atom_site_pbe_magmom
Zr  Zr0  1  0.98246083  0.85547520  0.80408451  1  2.635377  0  1.622886  2.376847  0  2.737102  0
Zr  Zr1  1  0.86794887  0.01042797  0.76338641  1  2.635543  0  1.622983  2.376272  0  2.741121  0
Zr  Zr2  1  0.01962331  0.93333586  0.99609204  1  2.638435  0  1.624034  2.376776  0  2.741613  0
Zr  Zr3  1  0.82751682  0.89643854  0.91854142  1  2.637004  0  1.623048  2.376411  0  2.738698  0
Zr  Zr4  1  0.06014734  0.04734725  0.84081389  1  2.637646  0  1.624277  2.376199  0  2.74314  0
Zr  Zr5  1  0.90538135  0.08836357  0.95526197  1  2.638287  0  1.625153  2.376511  0  2.744246  0
H  H6  1  0.28866433  0.61080188  0.92038946  1  0.099861  0  0.110624  0.115735  0  0.993323  0
H  H7  1  0.25935654  0.36345112  0.91417281  1  0.086922  0  0.113069  0.120219  0  0.98981  0
H  H8  1  0.06723436  0.50022120  0.95664342  1  0.106245  0  0.115361  0.12536  0  0.979776  0
H  H9  1  0.82047478  0.43959825  0.81322011  1  0.120399  0  0.114809  0.124729  0  0.981363  0
H  H10  1  0.63386530  0.58233101  0.86036649  1  0.09128  0  0.112752  0.119761  0  0.989732  0
H  H11  1  0.59597445  0.33533709  0.84796280  1  0.087823  0  0.111065  0.116651  0  0.992716  0
H  H12  1  0.58284956  0.01302904  0.22503025  1  0.085867  0  0.110576  0.115534  0  0.993601  0
H  H13  1  0.33534874  0.00685927  0.19482656  1  0.088432  0  0.112335  0.119204  0  0.990633  0
H  H14  1  0.47272937  0.04917372  0.00325900  1  0.110654  0  0.115797  0.126306  0  0.979604  0
H  H15  1  0.41109443  0.90490653  0.75586406  1  0.085008  0  0.115322  0.125695  0  0.980654  0
H  H16  1  0.55402499  0.95286658  0.56982224  1  0.089496  0  0.112377  0.119703  0  0.99026  0
H  H17  1  0.30687924  0.94018909  0.53136413  1  0.081171  0  0.111122  0.116383  0  0.992648  0
H  H18  1  0.98024177  0.31709456  0.51783020  1  0.103506  0  0.110363  0.115509  0  0.993963  0
H  H19  1  0.96970198  0.28496725  0.27038119  1  0.08477  0  0.112994  0.119826  0  0.988746  0
H  H20  1  0.01973027  0.09590290  0.40858372  1  0.102132  0  0.115996  0.126256  0  0.979289  0
H  H21  1  0.90244861  0.62269949  0.24193316  1  0.055167  0  0.110974  0.116497  0  0.993169  0
H  H22  1  0.91884791  0.65965665  0.48909262  1  0.097432  0  0.112797  0.1202  0  0.988669  0
H  H23  1  0.87564683  0.84837116  0.34797722  1  0.089468  0  0.115233  0.125532  0  0.980023  0
H  H24  1  0.82285318  0.85111367  0.75930589  1  0.594182  0  0.332952  0.425826  0  0.855914  0
H  H25  1  0.12478106  0.90797062  0.88200706  1  0.600478  0  0.332307  0.424142  0  0.858288  0
H  H26  1  0.88034606  0.97464396  0.06066001  1  0.61695  0  0.332504  0.424347  0  0.857475  0
H  H27  1  0.94623459  0.15263984  0.81574424  1  0.606425  0  0.332173  0.423405  0  0.859004  0
H  H28  1  0.02591953  0.40769817  0.28919070  1  0.071442  0  0.105424  0.105196  0  0.996718  0
H  H29  1  0.88435174  0.39856176  0.48247419  1  0.048737  0  0.104382  0.103933  0  0.997264  0
H  H30  1  0.85792402  0.53452591  0.47080735  1  0.04548  0  0.105042  0.10485  0  0.996781  0
H  H31  1  0.99932401  0.54343991  0.27740576  1  0.086556  0  0.104829  0.10431  0  0.996972  0
H  H32  1  0.34068891  0.88741349  0.41596654  1  0.060117  0  0.104768  0.104613  0  0.996894  0
H  H33  1  0.53931037  0.04249571  0.48024585  1  0.039901  0  0.105785  0.105886  0  0.995559  0
H  H34  1  0.55099144  0.06803203  0.34422541  1  0.048203  0  0.104673  0.104721  0  0.997275  0
H  H35  1  0.35226339  0.91323485  0.28010373  1  0.074725  0  0.105784  0.106122  0  0.995019  0
H  H36  1  0.40812018  0.57920750  0.97538741  1  0.089782  0  0.104566  0.104066  0  0.997402  0
H  H37  1  0.34453539  0.38031781  0.82059529  1  0.077649  0  0.106256  0.106714  0  0.994592  0
H  H38  1  0.48051272  0.36895916  0.79494732  1  0.062759  0  0.104811  0.104226  0  0.998101  0
H  H39  1  0.54425383  0.56771144  0.94999040  1  0.042768  0  0.10641  0.106883  0  0.994935  0
C  C40  1  0.17519224  0.56364604  0.94071226  1  0.164863  0  0.003907  0.132422  0  4.136568  0
C  C41  1  0.25317969  0.55821232  0.92620387  1  -0.115306  0  -0.070826  -0.160087  0  3.87614  0
C  C42  1  0.28444458  0.48650312  0.91613099  1  0.041427  0  -0.002414  0.076706  0  4.037605  0
C  C43  1  0.23648545  0.41994975  0.92094056  1  -0.00218  0  -0.070925  -0.160353  0  3.873731  0
C  C44  1  0.15847510  0.42435914  0.93592478  1  0.127442  0  0.002672  0.131839  0  4.143285  0
C  C45  1  0.12773875  0.49644568  0.94608315  1  -0.055863  0  -0.067832  -0.162365  0  3.857494  0
C  C46  1  0.71065977  0.37922967  0.82828394  1  0.048411  0  0.003496  0.132899  0  4.136587  0
C  C47  1  0.76036595  0.44515108  0.82449411  1  7.7e-05  0  -0.068246  -0.16357  0  3.859363  0
C  C48  1  0.73226186  0.51825262  0.83667579  1  0.028985  0  0.003129  0.133151  0  4.139819  0
C  C49  1  0.65459010  0.52501019  0.85208078  1  0.020776  0  -0.070609  -0.159748  0  3.870638  0
C  C50  1  0.60438319  0.45975219  0.85518755  1  -0.021818  0  -0.001389  0.077866  0  4.03645  0
C  C51  1  0.63318436  0.38703812  0.84341973  1  0.007976  0  -0.071086  -0.160673  0  3.874879  0
C  C52  1  0.53591833  0.03323529  0.11140604  1  0.099243  0  0.004389  0.133754  0  4.134075  0
C  C53  1  0.53030404  0.01881623  0.18936383  1  -0.017308  0  -0.071255  -0.160584  0  3.876687  0
C  C54  1  0.45845124  0.00880424  0.22035519  1  -0.036001  0  -0.002278  0.076569  0  4.039749  0
C  C55  1  0.39195737  0.01361391  0.17218477  1  0.006878  0  -0.070381  -0.159713  0  3.874825  0
C  C56  1  0.39658287  0.02852098  0.09419524  1  0.084919  0  0.003341  0.133161  0  4.142961  0
C  C57  1  0.46879377  0.03860303  0.06371807  1  0.005437  0  -0.067546  -0.163033  0  3.856157  0
C  C58  1  0.35071443  0.92029209  0.64604530  1  0.062359  0  0.005013  0.134748  0  4.133102  0
C  C59  1  0.41665345  0.91638093  0.69583288  1  -0.037548  0  -0.067771  -0.163344  0  3.856397  0
C  C60  1  0.48983174  0.92878777  0.66795791  1  0.089465  0  0.00255  0.131844  0  4.138817  0
C  C61  1  0.49664992  0.94450336  0.59039122  1  0.017622  0  -0.07008  -0.159658  0  3.871348  0
C  C62  1  0.43138764  0.94760520  0.54006144  1  -0.030139  0  -0.002438  0.076523  0  4.036078  0
C  C63  1  0.35859833  0.93558405  0.56864957  1  0.005256  0  -0.071321  -0.160788  0  3.874463  0
C  C64  1  0.00024335  0.20328503  0.47125191  1  0.051655  0  0.004275  0.133905  0  4.134621  0
C  C65  1  0.98408939  0.28077858  0.46533985  1  0.000786  0  -0.070693  -0.160362  0  3.874778  0
C  C66  1  0.97393060  0.31155199  0.39338819  1  -0.014186  0  -0.002002  0.077208  0  4.037669  0
C  C67  1  0.97983339  0.26342900  0.32711329  1  0.001938  0  -0.070791  -0.159665  0  3.873347  0
C  C68  1  0.99686327  0.18603878  0.33206553  1  0.074794  0  0.002561  0.132488  0  4.144314  0
C  C69  1  0.00734390  0.15587605  0.40435621  1  0.002444  0  -0.067436  -0.162319  0  3.856412  0
C  C70  1  0.88841893  0.73848728  0.28669188  1  0.082272  0  0.004831  0.133877  0  4.136838  0
C  C71  1  0.90109914  0.66039526  0.29388014  1  0.001909  0  -0.071193  -0.160697  0  3.877036  0
C  C72  1  0.91147481  0.63082051  0.36635242  1  0.03047  0  -0.002103  0.076948  0  4.039504  0
C  C73  1  0.90865276  0.68052194  0.43206513  1  -0.04959  0  -0.070705  -0.160228  0  3.873482  0
C  C74  1  0.89522235  0.75873425  0.42592889  1  0.139611  0  0.002832  0.13125  0  4.140458  0
C  C75  1  0.88495818  0.78777457  0.35302249  1  -0.029088  0  -0.068141  -0.163167  0  3.85669  0
C  C76  1  0.08068788  0.76983655  0.93170180  1  1.673323  0  0.24459  0.719397  0  4.16398  0
C  C77  1  0.90404714  0.87480126  0.63523218  1  1.662574  0  0.241497  0.716684  0  4.166076  0
C  C78  1  0.84742108  0.72739118  0.84107317  1  1.635017  0  0.242278  0.71783  0  4.163924  0
C  C79  1  0.14197766  0.92219559  0.73570606  1  1.650741  0  0.243643  0.717554  0  4.166406  0
C  C80  1  0.80012378  0.17036430  0.83029574  1  1.66375  0  0.242815  0.71629  0  4.170927  0
C  C81  1  0.99191185  0.07304553  0.12181954  1  1.651281  0  0.241581  0.716161  0  4.164302  0
C  C82  1  0.69898414  0.93318026  0.78349818  1  1.665315  0  0.241479  0.717199  0  4.16439  0
C  C83  1  0.99488459  0.10854682  0.67739127  1  1.648866  0  0.24481  0.719409  0  4.163987  0
C  C84  1  0.18615571  0.01983521  0.98056769  1  1.607256  0  0.241503  0.716322  0  4.167792  0
C  C85  1  0.89426517  0.82869631  0.07828285  1  1.671445  0  0.242262  0.715807  0  4.168424  0
C  C86  1  0.74201142  0.02406478  0.01670545  1  1.679666  0  0.244063  0.718658  0  4.162555  0
C  C87  1  0.04517987  0.21397585  0.92731434  1  1.621375  0  0.241618  0.715907  0  4.169101  0
C  C88  1  0.88233874  0.76745523  0.21255797  1  -0.231722  0  -0.013981  -0.01446  0  4.058579  0
C  C89  1  0.88173951  0.79229101  0.14888412  1  -0.024755  0  -0.041185  -0.192366  0  3.924654  0
C  C90  1  0.89659916  0.84174429  0.55729845  1  -0.107203  0  -0.043056  -0.195449  0  3.942077  0
C  C91  1  0.89453528  0.80639836  0.49469865  1  -0.180321  0  -0.016799  -0.019589  0  4.066356  0
C  C92  1  0.00102632  0.10669557  0.19939680  1  -0.031024  0  -0.043023  -0.195038  0  3.947495  0
C  C93  1  0.00082661  0.14031120  0.26263555  1  -0.256079  0  -0.017244  -0.02154  0  4.072601  0
C  C94  1  0.00767317  0.14486906  0.60686122  1  -0.179629  0  -0.039372  -0.189701  0  3.925251  0
C  C95  1  0.00661164  0.17239603  0.54444400  1  -0.065811  0  -0.013658  -0.015305  0  4.059611  0
C  C96  1  0.98799404  0.43492289  0.32846963  1  -0.086522  0  -0.087761  -0.123165  0  3.991526  0
C  C97  1  0.95728367  0.39294599  0.38679411  1  0.01271  0  -0.007845  0.063091  0  4.006998  0
C  C98  1  0.91073127  0.43044789  0.43807901  1  -0.032875  0  -0.088169  -0.123931  0  3.991397  0
C  C99  1  0.89571227  0.50717406  0.43144258  1  -0.073295  0  -0.088361  -0.124619  0  3.990752  0
C  C100  1  0.92662890  0.54912427  0.37321976  1  0.034113  0  -0.007598  0.064784  0  4.007904  0
C  C101  1  0.97294175  0.51153832  0.32178085  1  -0.060577  0  -0.087855  -0.12353  0  3.992888  0
C  C102  1  0.27630644  0.91259445  0.67421242  1  -0.377225  0  -0.014022  -0.013825  0  4.057309  0
C  C103  1  0.21250560  0.91032270  0.69886404  1  0.129197  0  -0.040372  -0.192658  0  3.923493  0
C  C104  1  0.55835033  0.92651006  0.71569606  1  -0.27081  0  -0.017036  -0.020749  0  4.067029  0
C  C105  1  0.62087000  0.92711789  0.75099098  1  0.007189  0  -0.042999  -0.195032  0  3.943893  0
C  C106  1  0.32694267  0.03113726  0.04833688  1  -0.424961  0  -0.01742  -0.021308  0  4.070331  0
C  C107  1  0.26366628  0.02990167  0.01446862  1  0.194982  0  -0.043112  -0.194889  0  3.946753  0
C  C108  1  0.67145336  0.03772811  0.05266908  1  0.340796  0  -0.0386  -0.188283  0  3.923936  0
C  C109  1  0.60904869  0.03808299  0.08015730  1  -0.647204  0  -0.013764  -0.015414  0  4.058053  0
C  C110  1  0.38623045  0.92814960  0.40070595  1  -0.043525  0  -0.088689  -0.125129  0  3.992699  0
C  C111  1  0.43887727  0.96321080  0.45850554  1  0.011391  0  -0.007484  0.064558  0  4.004871  0
C  C112  1  0.49869233  0.01305688  0.43645873  1  -0.02084  0  -0.087888  -0.123633  0  3.988124  0
C  C113  1  0.50534899  0.02747813  0.35960295  1  -0.090057  0  -0.08912  -0.126463  0  3.993563  0
C  C114  1  0.45239024  0.99277744  0.30194037  1  0.066159  0  -0.00716  0.065533  0  4.008402  0
C  C115  1  0.39283809  0.94264609  0.32393146  1  -0.070247  0  -0.088156  -0.124396  0  3.991255  0
C  C116  1  0.73899050  0.30487923  0.82069109  1  -0.245353  0  -0.014518  -0.014807  0  4.059767  0
C  C117  1  0.76350494  0.24102623  0.81846603  1  -0.005447  0  -0.041389  -0.193321  0  3.925261  0
C  C118  1  0.81495764  0.64932046  0.83500846  1  0.067536  0  -0.042812  -0.194305  0  3.944519  0
C  C119  1  0.77986278  0.58676752  0.83441019  1  -0.282661  0  -0.01794  -0.022558  0  4.069935  0
C  C120  1  0.07917782  0.29138379  0.93732992  1  0.203947  0  -0.043366  -0.194939  0  3.945948  0
C  C121  1  0.11284357  0.35467924  0.93859150  1  -0.436946  0  -0.017687  -0.02176  0  4.070304  0
C  C122  1  0.14384686  0.63671063  0.94562008  1  -0.136869  0  -0.013404  -0.014436  0  4.058497  0
C  C123  1  0.11647177  0.69917048  0.94533844  1  -0.166465  0  -0.039838  -0.189976  0  3.925014  0
C  C124  1  0.42363174  0.53359289  0.93482865  1  -0.125386  0  -0.088747  -0.125059  0  3.993115  0
C  C125  1  0.36607917  0.48056512  0.90009476  1  0.031055  0  -0.007397  0.065222  0  4.006967  0
C  C126  1  0.38825181  0.42099220  0.85002213  1  -0.072472  0  -0.087927  -0.124251  0  3.991116  0
C  C127  1  0.46508209  0.41451062  0.83560061  1  -0.047765  0  -0.088866  -0.12498  0  3.99449  0
C  C128  1  0.52277228  0.46722477  0.87068558  1  0.003828  0  -0.007317  0.064558  0  4.005067  0
C  C129  1  0.50055954  0.52704644  0.92047915  1  -0.037548  0  -0.088091  -0.124525  0  3.988042  0
O  O130  1  0.07876073  0.82065591  0.98691110  1  -1.160701  0  -0.338638  -0.603333  0  2.199894  0
O  O131  1  0.87041575  0.93570187  0.65204414  1  -1.163111  0  -0.340681  -0.604767  0  2.20331  0
O  O132  1  0.90812453  0.74412735  0.80713334  1  -1.164159  0  -0.341083  -0.60577  0  2.203318  0
O  O133  1  0.09249341  0.86619819  0.73919979  1  -1.152357  0  -0.335804  -0.599687  0  2.191938  0
O  O134  1  0.13775309  0.99116218  0.76390784  1  -1.155486  0  -0.354297  -0.610388  0  2.237183  0
O  O135  1  0.80938971  0.77413338  0.88104639  1  -1.160873  0  -0.35913  -0.617153  0  2.226254  0
O  O136  1  0.94466335  0.83716744  0.68179958  1  -1.160226  0  -0.358301  -0.616257  0  2.225952  0
O  O137  1  0.05410192  0.77405343  0.86220116  1  -1.160383  0  -0.352748  -0.609463  0  2.23469  0
O  O138  1  0.97656341  0.97070826  0.78408044  1  -1.199152  0  -0.788539  -1.154471  0  2.125584  0
O  O139  1  0.94288969  0.87638280  0.91268938  1  -1.2  0  -0.788101  -1.154587  0  2.124589  0
O  O140  1  0.85723548  0.88541298  0.79342419  1  -1.221362  0  -0.691745  -1.075012  0  2.355121  0
O  O141  1  0.07364949  0.92682095  0.88088214  1  -1.228777  0  -0.692377  -1.07674  0  2.363638  0
O  O142  1  0.80325085  0.12079148  0.77425593  1  -1.166362  0  -0.33554  -0.600014  0  2.194215  0
O  O143  1  0.02375393  0.01096656  0.10527070  1  -1.161778  0  -0.342727  -0.605062  0  2.204681  0
O  O144  1  0.71586654  0.89923343  0.84416218  1  -1.159964  0  -0.339782  -0.60398  0  2.201132  0
O  O145  1  0.05035195  0.10654827  0.72789670  1  -1.155678  0  -0.337819  -0.602124  0  2.198378  0
O  O146  1  0.16946586  0.05140633  0.91837337  1  -1.160504  0  -0.342732  -0.605332  0  2.208248  0
O  O147  1  0.83834919  0.83193148  0.02852431  1  -1.166077  0  -0.336323  -0.599994  0  2.195994  0
O  O148  1  0.79282325  0.07920973  0.01470165  1  -1.161808  0  -0.337792  -0.601643  0  2.199177  0
O  O149  1  0.98307014  0.19746341  0.95907859  1  -1.165083  0  -0.342239  -0.604684  0  2.209097  0
O  O150  1  0.74616555  0.95459138  0.99005561  1  -1.159801  0  -0.353301  -0.610364  0  2.234847  0
O  O151  1  0.08170687  0.16821569  0.88473764  1  -1.158198  0  -0.356298  -0.614421  0  2.223647  0
O  O152  1  0.74570650  0.97317306  0.74550563  1  -1.151065  0  -0.359653  -0.617977  0  2.227816  0
O  O153  1  0.96330706  0.85671469  0.07417374  1  -1.156608  0  -0.352876  -0.609452  0  2.234604  0
O  O154  1  0.14047714  0.97741052  0.01726066  1  -1.155921  0  -0.356704  -0.615316  0  2.224246  0
O  O155  1  0.92554407  0.08152390  0.68175929  1  -1.153219  0  -0.354294  -0.61077  0  2.23797  0
O  O156  1  0.82849087  0.16616282  0.89922207  1  -1.157515  0  -0.353929  -0.609207  0  2.237679  0
O  O157  1  0.94981844  0.10984990  0.07586605  1  -1.149544  0  -0.356637  -0.614224  0  2.224703  0
O  O158  1  0.00722753  0.03507376  0.94277623  1  -1.196331  0  -0.789473  -1.152627  0  2.128353  0
O  O159  1  0.84826959  0.00486938  0.87877855  1  -1.198889  0  -0.788476  -1.154787  0  2.125985  0
O  O160  1  0.89911031  0.97339073  0.00952006  1  -1.247241  0  -0.692772  -1.077907  0  2.365154  0
O  O161  1  0.94507320  0.10154894  0.83457522  1  -1.235813  0  -0.692447  -1.076219  0  2.365723  0
