# generated using pymatgen
data_ZnH13C17S3(NO)5
_symmetry_space_group_name_H-M   'P 1'
_cell_length_a   9.46538699
_cell_length_b   10.42726824
_cell_length_c   11.09301609
_cell_angle_alpha   102.90399241
_cell_angle_beta   96.16230379
_cell_angle_gamma   105.86391359
_symmetry_Int_Tables_number   1
_chemical_formula_structural   ZnH13C17S3(NO)5
_chemical_formula_sum   'Zn2 H26 C34 S6 N10 O10'
_cell_volume   1009.87296312
_cell_formula_units_Z   2
loop_
 _symmetry_equiv_pos_site_id
 _symmetry_equiv_pos_as_xyz
  1  'x, y, z'
loop_
 _atom_site_type_symbol
 _atom_site_label
 _atom_site_symmetry_multiplicity
 _atom_site_fract_x
 _atom_site_fract_y
 _atom_site_fract_z
 _atom_site_occupancy
 _atom_site_hle17_bader_spin_density
 _atom_site_hle17_ddec_charge
 _atom_site_hle17_ddec_spin_density
 _atom_site_hle17_ddec_sum_bond_order
 _atom_site_hle17_magmom
 _atom_site_hse06_10hf_bader_spin_density
 _atom_site_hse06_10hf_ddec_charge
 _atom_site_hse06_10hf_ddec_spin_density
 _atom_site_hse06_10hf_ddec_sum_bond_order
 _atom_site_hse06_10hf_magmom
 _atom_site_hse06_bader_spin_density
 _atom_site_hse06_ddec_charge
 _atom_site_hse06_ddec_spin_density
 _atom_site_hse06_ddec_sum_bond_order
 _atom_site_hse06_magmom
 _atom_site_pbe_bader_spin_density
 _atom_site_pbe_cm5_charge
 _atom_site_pbe_ddec_charge
 _atom_site_pbe_ddec_spin_density
 _atom_site_pbe_ddec_sum_bond_order
 _atom_site_pbe_magmom
Zn  Zn0  1  0.41533891  0.09592245  0.14085165  1  0  1.049059  0  1.806659  0  0  0.863478  0  2.265526  0  0  0.914351  0  2.208352  0  0  0.685279  0.827747  0  2.305058  0
Zn  Zn1  1  0.58465873  0.90408097  0.85914926  1  0  1.049009  0  1.806649  0  0  0.863445  0  2.265535  0  0  0.914323  0  2.208365  0  0  0.685269  0.82771  0  2.305049  0
H  H2  1  0.38817417  0.22093399  0.91355894  1  0  0.090465  0  0.967262  0  0  0.093917  0  1.038375  0  0  0.09691  0  1.035008  0  0  0.118457  0.091671  0  1.040796  0
H  H3  1  0.61182626  0.77906523  0.08644226  1  0  0.09047  0  0.967324  0  0  0.093921  0  1.038429  0  0  0.096914  0  1.035062  0  0  0.118468  0.091677  0  1.040849  0
H  H4  1  0.54188066  0.40564356  0.83100913  1  0  0.111499  0  0.942794  0  0  0.119625  0  1.003562  0  0  0.122373  0  1.004014  0  0  0.107965  0.11786  0  1.00308  0
H  H5  1  0.45812363  0.59435144  0.16898886  1  0  0.111496  0  0.942789  0  0  0.119618  0  1.003538  0  0  0.122364  0  1.003993  0  0  0.107957  0.117854  0  1.003051  0
H  H6  1  0.92245166  0.69671974  0.13718384  1  0  0.30644  0  0.873567  0  0  0.292375  0  0.932108  0  0  0.299126  0  0.926634  0  0  0.327434  0.287647  0  0.935927  0
H  H7  1  0.07754842  0.30327531  0.86280925  1  0  0.306491  0  0.873452  0  0  0.292425  0  0.932004  0  0  0.299171  0  0.926536  0  0  0.327444  0.2877  0  0.935819  0
H  H8  1  0.79579324  0.54926580  0.95221482  1  0  0.10716  0  0.92103  0  0  0.121298  0  0.974094  0  0  0.124425  0  0.971655  0  0  0.114662  0.118833  0  0.976144  0
H  H9  1  0.20421350  0.45072709  0.04778387  1  0  0.107143  0  0.920992  0  0  0.121271  0  0.974077  0  0  0.124404  0  0.97163  0  0  0.114658  0.118807  0  0.976125  0
H  H10  1  0.70830977  0.32403403  0.23398774  1  0  0.093769  0  0.943482  0  0  0.098715  0  1.011895  0  0  0.101509  0  1.00949  0  0  0.121093  0.096802  0  1.013335  0
H  H11  1  0.29168925  0.67596729  0.76601466  1  0  0.093796  0  0.943502  0  0  0.098711  0  1.011939  0  0  0.101503  0  1.009539  0  0  0.121083  0.0968  0  1.013378  0
H  H12  1  0.17670002  0.63079924  0.37528436  1  0  0.12449  0  0.953112  0  0  0.133927  0  1.009912  0  0  0.137585  0  1.006952  0  0  0.112475  0.131257  0  1.01205  0
H  H13  1  0.82329972  0.36919790  0.62470913  1  0  0.124476  0  0.953156  0  0  0.133915  0  1.00994  0  0  0.137568  0  1.006998  0  0  0.112474  0.131237  0  1.012105  0
H  H14  1  0.43436793  0.79379131  0.45977219  1  0  0.120062  0  0.978918  0  0  0.124132  0  1.048853  0  0  0.127755  0  1.047244  0  0  0.101491  0.121363  0  1.050451  0
H  H15  1  0.56562689  0.20621318  0.54022867  1  0  0.120013  0  0.978973  0  0  0.124106  0  1.048856  0  0  0.127731  0  1.047246  0  0  0.101474  0.121332  0  1.050463  0
H  H16  1  0.52965841  0.98870189  0.35813591  1  0  0.085881  0  0.960497  0  0  0.090002  0  1.033065  0  0  0.092376  0  1.031334  0  0  0.110587  0.088359  0  1.034044  0
H  H17  1  0.47033571  0.01130365  0.64186691  1  0  0.085938  0  0.960419  0  0  0.090009  0  1.033023  0  0  0.092384  0  1.03129  0  0  0.110591  0.088363  0  1.034005  0
H  H18  1  0.13026555  0.87141727  0.11113252  1  0  0.1074  0  0.931608  0  0  0.117283  0  0.989932  0  0  0.120932  0  0.986546  0  0  0.123129  0.114311  0  0.992881  0
H  H19  1  0.86973420  0.12858298  0.88886252  1  0  0.107373  0  0.931601  0  0  0.117259  0  0.989925  0  0  0.120905  0  0.986542  0  0  0.123131  0.114284  0  0.992872  0
H  H20  1  0.03146532  0.91778639  0.81497893  1  0  0.145133  0  0.915528  0  0  0.153032  0  0.977755  0  0  0.156817  0  0.975023  0  0  0.108535  0.150249  0  0.980065  0
H  H21  1  0.96853336  0.08221389  0.18502233  1  0  0.145124  0  0.915548  0  0  0.153014  0  0.977792  0  0  0.156799  0  0.975055  0  0  0.108542  0.150232  0  0.980107  0
H  H22  1  0.07730669  0.76045653  0.78948921  1  0  0.147628  0  0.954475  0  0  0.157508  0  1.016448  0  0  0.161887  0  1.013099  0  0  0.10969  0.154719  0  1.018284  0
H  H23  1  0.92269233  0.23954479  0.21051409  1  0  0.147671  0  0.954316  0  0  0.157545  0  1.016306  0  0  0.161923  0  1.012958  0  0  0.109707  0.154758  0  1.018145  0
H  H24  1  0.16279494  0.33606771  0.37385573  1  0  0.127287  0  0.952209  0  0  0.136683  0  1.018618  0  0  0.139256  0  1.017228  0  0  0.099687  0.135152  0  1.018964  0
H  H25  1  0.83720267  0.66393259  0.62614723  1  0  0.127365  0  0.952113  0  0  0.136772  0  1.0185  0  0  0.139348  0  1.017111  0  0  0.099723  0.135245  0  1.018844  0
H  H26  1  0.32358121  0.47482415  0.37978969  1  0  0.133048  0  0.925624  0  0  0.148341  0  0.983694  0  0  0.151071  0  0.982202  0  0  0.109344  0.146659  0  0.984281  0
H  H27  1  0.67641501  0.52517825  0.62021358  1  0  0.133085  0  0.925566  0  0  0.148381  0  0.983636  0  0  0.151115  0  0.982139  0  0  0.109333  0.1467  0  0.98423  0
C  C28  1  0.49723520  0.28769117  0.96611149  1  0  0.150683  0  3.639182  0  0  0.115453  0  3.891602  0  0  0.124268  0  3.907905  0  0  0.05528  0.109888  0  3.880676  0
C  C29  1  0.50276700  0.71231010  0.03389121  1  0  0.150689  0  3.639442  0  0  0.115423  0  3.891874  0  0  0.124241  0  3.90818  0  0  0.055264  0.109848  0  3.880955  0
C  C30  1  0.58441822  0.39062903  0.92028019  1  0  -0.10598  0  3.719117  0  0  -0.116994  0  3.9751  0  0  -0.125284  0  3.998028  0  0  -0.078861  -0.111923  0  3.959773  0
C  C31  1  0.41558609  0.60936909  0.07971934  1  0  -0.106036  0  3.719272  0  0  -0.117009  0  3.975218  0  0  -0.125299  0  3.99815  0  0  -0.078891  -0.111935  0  3.959888  0
C  C32  1  0.72481293  0.47103134  0.98912253  1  0  -0.021191  0  3.689019  0  0  -0.053728  0  3.942294  0  0  -0.048168  0  3.959012  0  0  -0.061592  -0.057103  0  3.931434  0
C  C33  1  0.27518996  0.52896576  0.01087666  1  0  -0.021081  0  3.688983  0  0  -0.053638  0  3.942224  0  0  -0.048084  0  3.958944  0  0  -0.061529  -0.057014  0  3.931364  0
C  C34  1  0.77312905  0.44709897  0.10365527  1  0  -0.111624  0  3.769819  0  0  -0.090613  0  4.017067  0  0  -0.101812  0  4.040657  0  0  -0.010406  -0.083854  0  4.002082  0
C  C35  1  0.22687384  0.55289814  0.89634572  1  0  -0.111748  0  3.769891  0  0  -0.090683  0  4.017047  0  0  -0.101879  0  4.040638  0  0  -0.010429  -0.083929  0  4.002074  0
C  C36  1  0.67707656  0.34367154  0.14399902  1  0  0.128439  0  3.665173  0  0  0.087926  0  3.911795  0  0  0.095759  0  3.930243  0  0  0.057866  0.082657  0  3.900079  0
C  C37  1  0.32292317  0.65632874  0.85600414  1  0  0.128405  0  3.665269  0  0  0.087897  0  3.911855  0  0  0.095731  0  3.930307  0  0  0.057894  0.082629  0  3.900139  0
C  C38  1  0.92519162  0.51817272  0.18198765  1  0  0.552078  0  3.837277  0  0  0.50157  0  4.131812  0  0  0.531085  0  4.131381  0  0  0.24635  0.48176  0  4.131701  0
C  C39  1  0.07481058  0.48182542  0.81800989  1  0  0.552308  0  3.837097  0  0  0.501805  0  4.131587  0  0  0.531319  0  4.131152  0  0  0.246424  0.481996  0  4.131485  0
C  C40  1  0.13402206  0.73673166  0.23515810  1  0  0.205616  0  3.792888  0  0  0.203988  0  4.045424  0  0  0.20709  0  4.068803  0  0  0.097887  0.201158  0  4.029949  0
C  C41  1  0.86597840  0.26326755  0.76483589  1  0  0.20571  0  3.79288  0  0  0.204154  0  4.04532  0  0  0.207256  0  4.068695  0  0  0.097976  0.201326  0  4.029837  0
C  C42  1  0.22129502  0.71616903  0.33525872  1  0  -0.107943  0  3.689156  0  0  -0.134024  0  3.939755  0  0  -0.133497  0  3.957439  0  0  -0.076577  -0.13425  0  3.928587  0
C  C43  1  0.77870509  0.28383226  0.66473747  1  0  -0.108037  0  3.689311  0  0  -0.134138  0  3.939905  0  0  -0.133614  0  3.957584  0  0  -0.076669  -0.13437  0  3.928741  0
C  C44  1  0.36502041  0.80762899  0.38142259  1  0  -0.123823  0  3.752915  0  0  -0.136329  0  4.012948  0  0  -0.143517  0  4.036297  0  0  -0.089996  -0.132352  0  3.998623  0
C  C45  1  0.63497901  0.19237647  0.61857711  1  0  -0.123763  0  3.752908  0  0  -0.136266  0  4.012924  0  0  -0.143455  0  4.03627  0  0  -0.089984  -0.132283  0  3.998599  0
C  C46  1  0.41770285  0.91572453  0.32726863  1  0  0.113204  0  3.692438  0  0  0.077404  0  3.950112  0  0  0.082567  0  3.97064  0  0  0.035307  0.074208  0  3.936318  0
C  C47  1  0.58229408  0.08427994  0.67273333  1  0  0.113131  0  3.692467  0  0  0.07742  0  3.950089  0  0  0.082581  0  3.97062  0  0  0.035319  0.074221  0  3.936292  0
C  C48  1  0.19396697  0.85042625  0.18842073  1  0  0.02894  0  3.660818  0  0  -0.011623  0  3.918105  0  0  -0.007595  0  3.935531  0  0  0.042151  -0.013873  0  3.906648  0
C  C49  1  0.80603172  0.14957402  0.81157511  1  0  0.028935  0  3.660808  0  0  -0.01166  0  3.918111  0  0  -0.00763  0  3.935533  0  0  0.042113  -0.013907  0  3.906642  0
C  C50  1  0.26624663  0.94196592  0.87187790  1  0  0.72978  0  3.866529  0  0  0.670787  0  4.180233  0  0  0.705904  0  4.171966  0  0  0.215232  0.646927  0  4.185129  0
C  C51  1  0.73375312  0.05803746  0.12812410  1  0  0.729558  0  3.86697  0  0  0.670627  0  4.180589  0  0  0.705741  0  4.172329  0  0  0.215166  0.646763  0  4.185491  0
C  C52  1  0.11523608  0.86894865  0.78487529  1  0  -0.319803  0  3.620294  0  0  -0.349378  0  3.876942  0  0  -0.355245  0  3.881166  0  0  -0.15244  -0.345381  0  3.873828  0
C  C53  1  0.88476293  0.13104955  0.21512647  1  0  -0.319799  0  3.620283  0  0  -0.349389  0  3.876953  0  0  -0.35525  0  3.881172  0  0  -0.152465  -0.345392  0  3.873848  0
C  C54  1  0.17734235  0.03086889  0.63045783  1  0  0.062574  0  3.814544  0  0  0.058242  0  4.127861  0  0  0.068755  0  4.142005  0  0  0.108565  0.051831  0  4.116782  0
C  C55  1  0.82266020  0.96913030  0.36954176  1  0  0.062514  0  3.814738  0  0  0.058206  0  4.128026  0  0  0.068722  0  4.142174  0  0  0.108564  0.051789  0  4.116957  0
C  C56  1  0.26571307  0.25955262  0.60309312  1  0  0.061145  0  3.791806  0  0  0.05974  0  4.104981  0  0  0.070056  0  4.118516  0  0  0.108345  0.0529  0  4.096094  0
C  C57  1  0.73428982  0.74044449  0.39690698  1  0  0.061103  0  3.791827  0  0  0.059724  0  4.104958  0  0  0.070042  0  4.118493  0  0  0.108367  0.052884  0  4.096066  0
C  C58  1  0.28459394  0.37421990  0.40120923  1  0  -0.308172  0  3.648472  0  0  -0.339818  0  3.903922  0  0  -0.34441  0  3.908948  0  0  -0.154393  -0.33691  0  3.89965  0
C  C59  1  0.71540298  0.62578145  0.59879208  1  0  -0.308356  0  3.648569  0  0  -0.340002  0  3.904008  0  0  -0.344603  0  3.909037  0  0  -0.15446  -0.337106  0  3.899758  0
C  C60  1  0.35600002  0.27635159  0.32395279  1  0  0.662601  0  3.938315  0  0  0.618277  0  4.238932  0  0  0.650487  0  4.234266  0  0  0.176687  0.596463  0  4.241136  0
C  C61  1  0.64399232  0.72364877  0.67604518  1  0  0.662661  0  3.938476  0  0  0.618334  0  4.239081  0  0  0.650547  0  4.234411  0  0  0.176641  0.596513  0  4.241298  0
S  S62  1  0.33774201  0.41713879  0.56983731  1  0  0.094275  0  2.47469  0  0  0.083983  0  2.823626  0  0  0.081437  0  2.821628  0  0  0.046137  0.086006  0  2.82276  0
S  S63  1  0.66225947  0.58286041  0.43016489  1  0  0.094277  0  2.474806  0  0  0.083974  0  2.823739  0  0  0.081433  0  2.821744  0  0  0.046117  0.086001  0  2.822876  0
S  S64  1  0.22149605  0.09367311  0.50213897  1  0  0.106843  0  2.543974  0  0  0.107899  0  2.87545  0  0  0.10829  0  2.87949  0  0  0.113053  0.107531  0  2.872316  0
S  S65  1  0.77850297  0.90632508  0.49786009  1  0  0.106892  0  2.543999  0  0  0.107947  0  2.875436  0  0  0.108336  0  2.879476  0  0  0.11306  0.107581  0  2.872295  0
S  S66  1  0.12122598  0.85559882  0.62086086  1  0  0.084258  0  2.450343  0  0  0.076342  0  2.788121  0  0  0.073424  0  2.787445  0  0  0.042559  0.078535  0  2.786415  0
S  S67  1  0.87877267  0.14439835  0.37913975  1  0  0.084275  0  2.450499  0  0  0.076359  0  2.788272  0  0  0.073442  0  2.787593  0  0  0.042567  0.078556  0  2.78657  0
N  N68  1  0.33251638  0.93653881  0.23250325  1  0  -0.304481  0  3.318707  0  0  -0.222902  0  3.582071  0  0  -0.240833  0  3.601006  0  0  -0.321418  -0.211031  0  3.569442  0
N  N69  1  0.66748090  0.06346356  0.76749560  1  0  -0.304423  0  3.318747  0  0  -0.222867  0  3.582124  0  0  -0.240806  0  3.601083  0  0  -0.321383  -0.210996  0  3.569481  0
N  N70  1  0.54319404  0.26465321  0.07623411  1  0  -0.316997  0  3.254788  0  0  -0.232594  0  3.514531  0  0  -0.252203  0  3.530554  0  0  -0.313331  -0.22001  0  3.504321  0
N  N71  1  0.45680604  0.73534809  0.92376930  1  0  -0.316974  0  3.254835  0  0  -0.232542  0  3.514547  0  0  -0.25216  0  3.530578  0  0  -0.313333  -0.219951  0  3.50433  0
N  N72  1  0.99005005  0.65068845  0.17693644  1  0  -0.444843  0  3.378331  0  0  -0.39545  0  3.621514  0  0  -0.417103  0  3.631787  0  0  -0.395266  -0.380217  0  3.614142  0
N  N73  1  0.00995356  0.34930759  0.82305629  1  0  -0.444971  0  3.378287  0  0  -0.39561  0  3.621432  0  0  -0.417257  0  3.631713  0  0  -0.395259  -0.380378  0  3.614062  0
N  N74  1  0.19729365  0.12886760  0.73505499  1  0  -0.22841  0  3.06404  0  0  -0.203453  0  3.353895  0  0  -0.212512  0  3.368214  0  0  -0.228396  -0.197611  0  3.343827  0
N  N75  1  0.80271171  0.87113050  0.26494555  1  0  -0.228356  0  3.063889  0  0  -0.203419  0  3.35375  0  0  -0.212483  0  3.368076  0  0  -0.228393  -0.197581  0  3.343693  0
N  N76  1  0.24786186  0.25843330  0.71894378  1  0  -0.239268  0  3.097558  0  0  -0.218935  0  3.392682  0  0  -0.227557  0  3.408074  0  0  -0.229728  -0.213629  0  3.382925  0
N  N77  1  0.75214384  0.74156272  0.28105635  1  0  -0.239282  0  3.097391  0  0  -0.218957  0  3.392505  0  0  -0.227579  0  3.4079  0  0  -0.22975  -0.213646  0  3.382745  0
O  O78  1  0.25693285  0.98728342  0.98607528  1  0  -0.630486  0  2.067585  0  0  -0.558089  0  2.337463  0  0  -0.585723  0  2.321616  0  0  -0.31512  -0.538548  0  2.347748  0
O  O79  1  0.74306516  0.01272414  0.01392562  1  0  -0.630304  0  2.067571  0  0  -0.557985  0  2.337454  0  0  -0.585615  0  2.321611  0  0  -0.315089  -0.538439  0  2.347737  0
O  O80  1  0.38480100  0.94916911  0.82773026  1  0  -0.669717  0  2.1493  0  0  -0.608719  0  2.444326  0  0  -0.636092  0  2.430218  0  0  -0.321076  -0.589313  0  2.453107  0
O  O81  1  0.61519734  0.05083325  0.17227139  1  0  -0.669663  0  2.149494  0  0  -0.608648  0  2.44446  0  0  -0.636023  0  2.430356  0  0  -0.321038  -0.589242  0  2.453243  0
O  O82  1  0.47761900  0.26273925  0.36785803  1  0  -0.636977  0  1.941142  0  0  -0.589043  0  2.179343  0  0  -0.613211  0  2.171362  0  0  -0.327895  -0.571662  0  2.183687  0
O  O83  1  0.52238323  0.73726513  0.63214171  1  0  -0.636917  0  1.941418  0  0  -0.58899  0  2.179645  0  0  -0.613148  0  2.171647  0  0  -0.32781  -0.571609  0  2.183996  0
O  O84  1  0.28209768  0.21380043  0.21258873  1  0  -0.631264  0  1.958398  0  0  -0.568974  0  2.203304  0  0  -0.597781  0  2.192982  0  0  -0.337158  -0.548266  0  2.208971  0
O  O85  1  0.71789677  0.78619992  0.78741305  1  0  -0.631339  0  1.95829  0  0  -0.569049  0  2.203193  0  0  -0.597859  0  2.192868  0  0  -0.33718  -0.548338  0  2.208858  0
O  O86  1  0.98802922  0.45688497  0.24344654  1  0  -0.528763  0  1.924242  0  0  -0.481268  0  2.13516  0  0  -0.502962  0  2.129873  0  0  -0.281579  -0.466559  0  2.13809  0
O  O87  1  0.01197403  0.54311317  0.75655380  1  0  -0.528876  0  1.92415  0  0  -0.481401  0  2.135076  0  0  -0.503093  0  2.129785  0  0  -0.281679  -0.46669  0  2.138011  0
