# generated using pymatgen
data_ZnH13C20(NO2)2
_symmetry_space_group_name_H-M   'P 1'
_cell_length_a   15.29179433
_cell_length_b   15.34495147
_cell_length_c   18.16521745
_cell_angle_alpha   80.99719473
_cell_angle_beta   84.40389491
_cell_angle_gamma   78.20843359
_symmetry_Int_Tables_number   1
_chemical_formula_structural   ZnH13C20(NO2)2
_chemical_formula_sum   'Zn4 H52 C80 N8 O16'
_cell_volume   4111.67019390
_cell_formula_units_Z   4
loop_
 _symmetry_equiv_pos_site_id
 _symmetry_equiv_pos_as_xyz
  1  'x, y, z'
loop_
 _atom_site_type_symbol
 _atom_site_label
 _atom_site_symmetry_multiplicity
 _atom_site_fract_x
 _atom_site_fract_y
 _atom_site_fract_z
 _atom_site_occupancy
 _atom_site_pbe_bader_charge
 _atom_site_pbe_bader_spin_density
 _atom_site_pbe_cm5_charge
 _atom_site_pbe_ddec_charge
 _atom_site_pbe_ddec_spin_density
 _atom_site_pbe_ddec_sum_bond_order
 _atom_site_pbe_magmom
Zn  Zn0  1  0.62488847  0.37935401  0.70393177  1  1.269479  0  0.666149  0.820048  0  2.412655  0
Zn  Zn1  1  0.37511213  0.62064518  0.29606809  1  1.269467  0  0.666125  0.820037  0  2.412676  0
Zn  Zn2  1  0.61178625  0.35280160  0.86121916  1  1.287521  0  0.66772  0.821074  0  2.409494  0
Zn  Zn3  1  0.38821279  0.64719895  0.13878064  1  1.287554  0  0.667721  0.821082  0  2.409509  0
H  H4  1  0.69042884  0.09489537  0.67052544  1  0.072685  0  0.103444  0.105212  0  1.003836  0
H  H5  1  0.30957032  0.90510451  0.32947389  1  0.072689  0  0.103429  0.105177  0  1.003833  0
H  H6  1  0.68706145  0.93411025  0.66782267  1  0.076251  0  0.100301  0.099287  0  1.005272  0
H  H7  1  0.31293771  0.06588963  0.33217720  1  0.076254  0  0.100303  0.099296  0  1.00525  0
H  H8  1  0.56562842  0.91569202  0.89275238  1  0.074137  0  0.097837  0.094753  0  1.013771  0
H  H9  1  0.43437061  0.08430853  0.10724797  1  0.074139  0  0.097834  0.094765  0  1.013777  0
H  H10  1  0.57155246  0.07606361  0.89475804  1  0.074639  0  0.101794  0.103973  0  1.00543  0
H  H11  1  0.42844580  0.92393762  0.10524118  1  0.074638  0  0.101789  0.103976  0  1.005435  0
H  H12  1  0.64779446  0.77599354  0.89479607  1  0.062123  0  0.10172  0.101812  0  1.003321  0
H  H13  1  0.35220536  0.22400634  0.10520431  1  0.062131  0  0.101716  0.101775  0  1.00337  0
H  H14  1  0.63863010  0.61671281  0.89289356  1  0.109766  0  0.103685  0.107537  0  1.003364  0
H  H15  1  0.36136919  0.38328640  0.10710694  1  0.109788  0  0.103693  0.107507  0  1.003377  0
H  H16  1  0.58539069  0.67641867  0.66112276  1  0.063759  0  0.100388  0.103168  0  1.007178  0
H  H17  1  0.41460900  0.32358188  0.33887809  1  0.06374  0  0.100408  0.103165  0  1.007137  0
H  H18  1  0.59253475  0.83674082  0.66202326  1  0.062695  0  0.098865  0.098236  0  1.008416  0
H  H19  1  0.40746519  0.16325838  0.33797719  1  0.062679  0  0.098854  0.098211  0  1.008434  0
H  H20  1  0.89797409  0.41345071  0.66827731  1  0.102024  0  0.103517  0.10883  0  1.000025  0
H  H21  1  0.10202573  0.58654917  0.33172307  1  0.10204  0  0.103532  0.108842  0  1.0001  0
H  H22  1  0.05840857  0.42304138  0.66957470  1  0.068164  0  0.098627  0.09653  0  1.009371  0
H  H23  1  0.94159190  0.57695849  0.33042563  1  0.068154  0  0.098666  0.096603  0  1.009327  0
H  H24  1  0.05771614  0.30086379  0.90007386  1  0.040882  0  0.100228  0.098774  0  1.007103  0
H  H25  1  0.94228393  0.69913474  0.09992613  1  0.040882  0  0.100228  0.098787  0  1.007069  0
H  H26  1  0.89634376  0.29467622  0.89816920  1  0.088243  0  0.104414  0.109733  0  0.997206  0
H  H27  1  0.10365671  0.70532365  0.10183058  1  0.088251  0  0.104403  0.109709  0  0.997203  0
H  H28  1  0.15490946  0.39605172  0.89986988  1  0.0827  0  0.101647  0.101052  0  1.00442  0
H  H29  1  0.84508957  0.60394883  0.10013102  1  0.082716  0  0.101643  0.101055  0  1.004433  0
H  H30  1  0.31647490  0.40111044  0.90089992  1  0.088502  0  0.103073  0.106844  0  1.000063  0
H  H31  1  0.68352544  0.59889010  0.09910088  1  0.08851  0  0.103073  0.106851  0  1.000102  0
H  H32  1  0.35934398  0.34855191  0.67396178  1  0.068192  0  0.097879  0.097476  0  1.01935  0
H  H33  1  0.64065571  0.65144864  0.32603852  1  0.068197  0  0.097881  0.097474  0  1.019323  0
H  H34  1  0.19834886  0.34164352  0.67206586  1  0.082434  0  0.099353  0.098327  0  1.00797  0
H  H35  1  0.80165083  0.65835703  0.32793444  1  0.082438  0  0.099358  0.098328  0  1.007972  0
H  H36  1  0.61947684  0.52991882  0.57714427  1  0.121712  0  0.125063  0.101938  0  0.986782  0
H  H37  1  0.38052297  0.47008106  0.42285611  1  0.12171  0  0.125068  0.101931  0  0.98677  0
H  H38  1  0.61092632  0.55047967  0.43710708  1  0.098533  0  0.11454  0.122907  0  0.997467  0
H  H39  1  0.38907087  0.44952022  0.56289351  1  0.098529  0  0.114564  0.122945  0  0.997484  0
H  H40  1  0.62033667  0.26507783  0.45494114  1  0.112282  0  0.114537  0.121098  0  0.99906  0
H  H41  1  0.37966249  0.73492205  0.54505874  1  0.112283  0  0.114551  0.121132  0  0.999026  0
H  H42  1  0.62731860  0.25694353  0.59476064  1  0.155423  0  0.124785  0.103596  0  0.999184  0
H  H43  1  0.37268331  0.74305566  0.40523856  1  0.15542  0  0.124778  0.103587  0  0.99918  0
H  H44  1  0.59857829  0.48694354  0.32333835  1  0.149255  0  0.120135  0.094977  0  1.027055  0
H  H45  1  0.40142022  0.51305634  0.67666158  1  0.14925  0  0.120125  0.094965  0  1.027094  0
H  H46  1  0.61154188  0.23798893  0.24304030  1  0.100684  0  0.117519  0.078414  0  0.983139  0
H  H47  1  0.38845991  0.76201093  0.75695938  1  0.100709  0  0.117529  0.078418  0  0.983141  0
H  H48  1  0.59073335  0.46308563  0.11502883  1  0.157503  0  0.114648  0.130348  0  1.026706  0
H  H49  1  0.40926622  0.53691558  0.88497084  1  0.157505  0  0.114625  0.130335  0  1.026736  0
H  H50  1  0.59194902  0.47439187  0.97485208  1  0.125571  0  0.122022  0.095921  0  1.004967  0
H  H51  1  0.40805002  0.52560868  0.02514772  1  0.125585  0  0.122029  0.095935  0  1.004962  0
H  H52  1  0.62006355  0.19945862  0.98381004  1  0.133145  0  0.125964  0.101451  0  0.984219  0
H  H53  1  0.37993746  0.80054192  0.01619016  1  0.133136  0  0.125987  0.1015  0  0.984166  0
H  H54  1  0.62186936  0.17494133  0.12421488  1  0.080843  0  0.115383  0.121449  0  0.982038  0
H  H55  1  0.37813086  0.82505989  0.87578529  1  0.080827  0  0.115365  0.121405  0  0.982049  0
C  C56  1  0.63005821  0.19331278  0.78328611  1  1.56668  0  0.214612  0.592802  0  4.175931  0
C  C57  1  0.36994095  0.80668710  0.21671266  1  1.566406  0  0.214617  0.592851  0  4.175876  0
C  C58  1  0.63051146  0.09565069  0.78257167  1  0.028591  0  -0.01843  -0.032928  0  3.966658  0
C  C59  1  0.36948758  0.90434986  0.21742703  1  0.028975  0  -0.018424  -0.032916  0  3.966729  0
C  C60  1  0.66263514  0.05503248  0.71872686  1  -0.04528  0  -0.086084  -0.088488  0  3.996451  0
C  C61  1  0.33736480  0.94496673  0.28127249  1  -0.045688  0  -0.086064  -0.088425  0  3.996386  0
C  C62  1  0.66004065  0.96520694  0.71738571  1  -0.062206  0  -0.093195  -0.136998  0  3.993404  0
C  C63  1  0.33995917  0.03479294  0.28261412  1  -0.062195  0  -0.093183  -0.137  0  3.993364  0
C  C64  1  0.62502444  0.91328834  0.77983782  1  -0.040337  0  -0.007482  0.069438  0  4.007963  0
C  C65  1  0.37497485  0.08671087  0.22016159  1  -0.040326  0  -0.007505  0.069424  0  4.008039  0
C  C66  1  0.59394555  0.95440409  0.84398168  1  -0.05155  0  -0.094437  -0.138869  0  4.001749  0
C  C67  1  0.40605493  0.04559578  0.15601810  1  -0.051554  0  -0.094438  -0.138879  0  4.001802  0
C  C68  1  0.59675827  0.04409314  0.84538722  1  -0.070864  0  -0.086914  -0.088006  0  3.998428  0
C  C69  1  0.40324023  0.95590675  0.15461271  1  -0.070859  0  -0.086927  -0.088059  0  3.998567  0
C  C70  1  0.62064777  0.81831466  0.77853029  1  -0.039828  0  -0.006226  0.07083  0  4.00687  0
C  C71  1  0.37935270  0.18168521  0.22147004  1  -0.039929  0  -0.006192  0.070843  0  4.006853  0
C  C72  1  0.63281272  0.75500427  0.84349764  1  -0.040558  0  -0.093184  -0.137983  0  3.992791  0
C  C73  1  0.36718776  0.24499560  0.15650269  1  -0.040425  0  -0.093215  -0.13799  0  3.992842  0
C  C74  1  0.62836714  0.66563200  0.84266657  1  -0.021694  0  -0.08511  -0.085667  0  3.992987  0
C  C75  1  0.37163201  0.33436787  0.15733496  1  -0.021697  0  -0.085072  -0.085578  0  3.992992  0
C  C76  1  0.61159203  0.63654777  0.77691747  1  -0.052391  0  -0.021415  -0.039765  0  3.967952  0
C  C77  1  0.38840857  0.36345143  0.22308239  1  -0.052417  0  -0.021413  -0.039691  0  3.967881  0
C  C78  1  0.59942913  0.69902766  0.71190826  1  -0.034236  0  -0.087274  -0.088514  0  4.000406  0
C  C79  1  0.40057056  0.30097289  0.28809204  1  -0.034228  0  -0.087311  -0.088568  0  4.000297  0
C  C80  1  0.60384712  0.78853512  0.71269962  1  -0.042125  0  -0.095343  -0.143391  0  3.996627  0
C  C81  1  0.39615204  0.21146476  0.28730081  1  -0.042131  0  -0.095357  -0.14338  0  3.996566  0
C  C82  1  0.60736650  0.53991673  0.77655894  1  1.569676  0  0.212936  0.589425  0  4.175598  0
C  C83  1  0.39263463  0.46008313  0.22344134  1  1.569852  0  0.213026  0.589499  0  4.175405  0
C  C84  1  0.78979694  0.35278758  0.78248058  1  1.570865  0  0.213843  0.593684  0  4.171347  0
C  C85  1  0.21020394  0.64721363  0.21751954  1  1.570901  0  0.213802  0.593601  0  4.171392  0
C  C86  1  0.88742518  0.35392224  0.78313687  1  -0.009994  0  -0.019992  -0.03526  0  3.96532  0
C  C87  1  0.11257385  0.64607831  0.21686348  1  -0.010024  0  -0.019953  -0.035172  0  3.965173  0
C  C88  1  0.93394013  0.38894616  0.71863102  1  -0.029143  0  -0.084555  -0.08472  0  3.991982  0
C  C89  1  0.06605903  0.61105371  0.28137051  1  -0.029224  0  -0.08457  -0.084745  0  3.991958  0
C  C90  1  0.02365365  0.39349423  0.71963861  1  -0.132235  0  -0.094109  -0.139555  0  3.998519  0
C  C91  1  0.97634538  0.60650632  0.28036174  1  -0.132262  0  -0.094132  -0.139588  0  3.998489  0
C  C92  1  0.06962069  0.36295965  0.78507710  1  0.071272  0  -0.006469  0.069588  0  4.006291  0
C  C93  1  0.93037846  0.63704023  0.21492333  1  0.071326  0  -0.006513  0.069462  0  4.006373  0
C  C94  1  0.02261788  0.32699192  0.84934816  1  -0.068839  0  -0.093744  -0.139789  0  3.994164  0
C  C95  1  0.97738128  0.67300795  0.15065227  1  -0.068837  0  -0.093708  -0.139746  0  3.994058  0
C  C96  1  0.93274339  0.32259718  0.84845661  1  -0.027726  0  -0.083874  -0.085156  0  3.986863  0
C  C97  1  0.06725577  0.67740270  0.15154382  1  -0.027655  0  -0.083874  -0.085149  0  3.986831  0
C  C98  1  0.16482373  0.36824545  0.78590989  1  -0.047632  0  -0.002778  0.080336  0  3.992841  0
C  C99  1  0.83517609  0.63175442  0.21409104  1  -0.047698  0  -0.002786  0.080337  0  3.992831  0
C  C100  1  0.19962042  0.38466758  0.85028978  1  -0.035469  0  -0.090463  -0.134844  0  3.979661  0
C  C101  1  0.80038058  0.61533296  0.14971041  1  -0.035471  0  -0.090441  -0.134807  0  3.979562  0
C  C102  1  0.28964847  0.38841417  0.85101551  1  -0.074963  0  -0.08407  -0.083674  0  3.986887  0
C  C103  1  0.71035135  0.61158571  0.14898432  1  -0.07495  0  -0.084074  -0.083706  0  3.986878  0
C  C104  1  0.34758821  0.37603432  0.78724429  1  0.009274  0  -0.022873  -0.042353  0  3.981503  0
C  C105  1  0.65241161  0.62396556  0.21275609  1  0.009263  0  -0.022856  -0.042334  0  3.981454  0
C  C106  1  0.31341865  0.35997538  0.72279247  1  -0.038203  0  -0.089829  -0.093658  0  4.009524  0
C  C107  1  0.68658183  0.64002449  0.27720675  1  -0.038181  0  -0.089836  -0.093642  0  4.009561  0
C  C108  1  0.22350525  0.35625558  0.72204864  1  -0.086899  0  -0.095067  -0.139798  0  3.992854  0
C  C109  1  0.77649379  0.64374497  0.27795116  1  -0.08688  0  -0.095089  -0.139821  0  3.992895  0
C  C110  1  0.44484802  0.37842600  0.78762728  1  1.550342  0  0.210928  0.58215  0  4.191043  0
C  C111  1  0.55515270  0.62157252  0.21237210  1  1.550312  0  0.210956  0.582216  0  4.190902  0
C  C112  1  0.61996032  0.47358635  0.54706590  1  0.50244  0  0.05587  0.096741  0  3.930341  0
C  C113  1  0.38003950  0.52641353  0.45293448  1  0.502421  0  0.055878  0.096837  0  3.930425  0
C  C114  1  0.61526132  0.48417228  0.47007213  1  -0.082314  0  -0.073984  -0.168338  0  3.936436  0
C  C115  1  0.38473784  0.51582760  0.52992720  1  -0.08226  0  -0.074045  -0.168492  0  3.936634  0
C  C116  1  0.61595462  0.40859691  0.43517644  1  0.002288  0  0.01433  0.113322  0  4.005285  0
C  C117  1  0.38404454  0.59140297  0.56482399  1  0.002328  0  0.014357  0.113395  0  4.005227  0
C  C118  1  0.62027517  0.32482001  0.48035414  1  -0.048198  0  -0.07175  -0.157508  0  3.924606  0
C  C119  1  0.37972452  0.67518054  0.51964561  1  -0.04819  0  -0.071756  -0.157516  0  3.924538  0
C  C120  1  0.62410917  0.31990599  0.55680759  1  0.495749  0  0.054781  0.096226  0  3.920366  0
C  C121  1  0.37589196  0.68009388  0.44319158  1  0.495661  0  0.054809  0.096241  0  3.92029  0
C  C122  1  0.61222948  0.41887879  0.35437583  1  0.612129  0  0.083479  0.061921  0  3.875499  0
C  C123  1  0.38776967  0.58112109  0.64562515  1  0.612135  0  0.083454  0.061825  0  3.875476  0
C  C124  1  0.61348411  0.30478472  0.21122426  1  0.603279  0  0.083782  0.053801  0  3.908876  0
C  C125  1  0.38651558  0.69521583  0.78877549  1  0.603223  0  0.083766  0.053786  0  3.908916  0
C  C126  1  0.60892042  0.31729254  0.13043530  1  0.030228  0  0.016277  0.112686  0  4.006784  0
C  C127  1  0.39108059  0.68270800  0.86956379  1  0.030237  0  0.016285  0.1127  0  4.006728  0
C  C128  1  0.59890243  0.40312000  0.08787977  1  0.019622  0  -0.065392  -0.142655  0  3.886209  0
C  C129  1  0.40109726  0.59688054  0.91211998  1  0.019737  0  -0.065377  -0.142674  0  3.886309  0
C  C130  1  0.59845309  0.40988406  0.01095548  1  0.415266  0  0.055377  0.09379  0  3.913476  0
C  C131  1  0.40154661  0.59011649  0.98904427  1  0.415182  0  0.055383  0.093828  0  3.913434  0
C  C132  1  0.61425402  0.25517011  0.01578497  1  0.467461  0  0.057613  0.098891  0  3.924956  0
C  C133  1  0.38574645  0.74482976  0.98421591  1  0.46766  0  0.057604  0.098853  0  3.924921  0
C  C134  1  0.61533838  0.24249612  0.09315087  1  -0.039368  0  -0.072851  -0.167168  0  3.940795  0
C  C135  1  0.38466263  0.75750442  0.90684932  1  -0.039543  0  -0.072849  -0.167132  0  3.94075  0
N  N136  1  0.62420438  0.39299469  0.58965373  1  -1.241344  0  -0.319116  -0.198563  0  3.513563  0
N  N137  1  0.37579688  0.60700450  0.41034497  1  -1.241247  0  -0.319116  -0.198595  0  3.51353  0
N  N138  1  0.62467476  0.34857482  0.32062024  1  -0.742065  0  -0.208012  -0.174507  0  3.307413  0
N  N139  1  0.37532427  0.65142573  0.67938066  1  -0.742071  0  -0.207972  -0.174394  0  3.307451  0
N  N140  1  0.62034827  0.37154360  0.24431138  1  -0.74463  0  -0.196072  -0.134667  0  3.302221  0
N  N141  1  0.37965076  0.62845695  0.75568842  1  -0.744629  0  -0.196062  -0.134674  0  3.302384  0
N  N142  1  0.60646500  0.33739822  0.97543625  1  -1.219493  0  -0.318834  -0.195669  0  3.517334  0
N  N143  1  0.39353481  0.66260165  0.02456467  1  -1.219521  0  -0.31887  -0.195731  0  3.517352  0
O  O144  1  0.60673075  0.22373208  0.84517582  1  -1.162259  0  -0.316939  -0.550333  0  2.330641  0
O  O145  1  0.39326948  0.77626914  0.15482215  1  -1.162077  0  -0.316958  -0.550378  0  2.33065  0
O  O146  1  0.65157762  0.23899237  0.72186144  1  -1.165964  0  -0.316853  -0.552636  0  2.325902  0
O  O147  1  0.34842233  0.76100684  0.27813681  1  -1.16591  0  -0.316831  -0.552649  0  2.32589  0
O  O148  1  0.61682872  0.48838942  0.83869222  1  -1.178936  0  -0.314766  -0.554485  0  2.349844  0
O  O149  1  0.38317451  0.51160976  0.16130798  1  -1.179019  0  -0.314805  -0.554542  0  2.349794  0
O  O150  1  0.59536671  0.51605515  0.71475432  1  -1.167631  0  -0.31841  -0.553899  0  2.322276  0
O  O151  1  0.40463479  0.48394270  0.28524674  1  -1.167719  0  -0.318463  -0.553953  0  2.322248  0
O  O152  1  0.74940596  0.32510503  0.84363141  1  -1.17316  0  -0.322982  -0.551582  0  2.308543  0
O  O153  1  0.25059320  0.67489485  0.15636847  1  -1.173169  0  -0.32294  -0.551525  0  2.308529  0
O  O154  1  0.75395727  0.38130498  0.72044715  1  -1.162945  0  -0.321869  -0.547436  0  2.327611  0
O  O155  1  0.24604308  0.61869556  0.27955420  1  -1.162965  0  -0.321879  -0.547432  0  2.327643  0
O  O156  1  0.47456489  0.38600604  0.84892895  1  -1.164387  0  -0.317292  -0.548361  0  2.323142  0
O  O157  1  0.52543493  0.61399383  0.15107033  1  -1.164375  0  -0.317302  -0.548373  0  2.323107  0
O  O158  1  0.49126489  0.37226795  0.72557702  1  -1.17948  0  -0.32103  -0.563168  0  2.358587  0
O  O159  1  0.50873609  0.62772923  0.27442362  1  -1.179479  0  -0.321051  -0.56324  0  2.358516  0
