# generated using pymatgen
data_ZnH15C19N3O4
_symmetry_space_group_name_H-M   'P 1'
_cell_length_a   9.14557396
_cell_length_b   10.27971058
_cell_length_c   10.20827247
_cell_angle_alpha   64.98267049
_cell_angle_beta   76.75360580
_cell_angle_gamma   73.07145692
_symmetry_Int_Tables_number   1
_chemical_formula_structural   ZnH15C19N3O4
_chemical_formula_sum   'Zn2 H30 C38 N6 O8'
_cell_volume   825.75072870
_cell_formula_units_Z   2
loop_
 _symmetry_equiv_pos_site_id
 _symmetry_equiv_pos_as_xyz
  1  'x, y, z'
loop_
 _atom_site_type_symbol
 _atom_site_label
 _atom_site_symmetry_multiplicity
 _atom_site_fract_x
 _atom_site_fract_y
 _atom_site_fract_z
 _atom_site_occupancy
 _atom_site_pbe_bader_spin_density
 _atom_site_pbe_cm5_charge
 _atom_site_pbe_ddec_charge
 _atom_site_pbe_ddec_spin_density
 _atom_site_pbe_ddec_sum_bond_order
 _atom_site_pbe_magmom
Zn  Zn0  1  0.11467610  0.87534251  0.39220875  1  0  0.698904  0.859414  0  2.296973  0
Zn  Zn1  1  0.88532262  0.12465799  0.60779112  1  0  0.698899  0.859413  0  2.296926  0
H  H2  1  0.54639880  0.07927961  0.05575578  1  0  0.285928  0.222888  0  1.073831  0
H  H3  1  0.45360016  0.92071978  0.94424548  1  0  0.285936  0.222919  0  1.073845  0
H  H4  1  0.13328776  0.14274821  0.11664778  1  0  0.109014  0.083534  0  1.023062  0
H  H5  1  0.86671208  0.85725227  0.88335285  1  0  0.109006  0.083522  0  1.023091  0
H  H6  1  0.97210391  0.29172883  0.90966161  1  0  0.104138  0.109353  0  1.03077  0
H  H7  1  0.02789569  0.70827277  0.09033763  1  0  0.104142  0.109351  0  1.030777  0
H  H8  1  0.72490996  0.22924888  0.92135090  1  0  0.107908  0.115668  0  1.013921  0
H  H9  1  0.27509013  0.77075050  0.07865014  1  0  0.107921  0.115665  0  1.013941  0
H  H10  1  0.83457013  0.86051413  0.32315474  1  0  0.113145  0.091895  0  1.056973  0
H  H11  1  0.16543057  0.13948744  0.67684625  1  0  0.113163  0.091892  0  1.056946  0
H  H12  1  0.45091523  0.88708606  0.24769140  1  0  0.114179  0.111188  0  0.992882  0
H  H13  1  0.54908673  0.11291002  0.75231064  1  0  0.114168  0.111163  0  0.99288  0
H  H14  1  0.60888349  0.83652442  0.34241845  1  0  0.104171  0.085217  0  1.019279  0
H  H15  1  0.39111936  0.16347278  0.65758099  1  0  0.104141  0.085192  0  1.019275  0
H  H16  1  0.80626944  0.61724155  0.33751468  1  0  0.106231  0.123688  0  1.030346  0
H  H17  1  0.19373580  0.38276005  0.66248149  1  0  0.106221  0.123717  0  1.030178  0
H  H18  1  0.90415928  0.41763602  0.23894932  1  0  0.105949  0.110129  0  1.009017  0
H  H19  1  0.09584219  0.58236228  0.76104994  1  0  0.105943  0.110134  0  1.00907  0
H  H20  1  0.79517436  0.44548211  0.02120020  1  0  0.09844  0.101104  0  1.049475  0
H  H21  1  0.20482662  0.55451839  0.97879824  1  0  0.098416  0.101064  0  1.049548  0
H  H22  1  0.59179799  0.66934028  0.91438367  1  0  0.106555  0.074886  0  1.025194  0
H  H23  1  0.40820461  0.33065802  0.08561536  1  0  0.106552  0.074879  0  1.025171  0
H  H24  1  0.51056761  0.49864868  0.35782076  1  0  0.102696  0.104699  0  1.033261  0
H  H25  1  0.48942975  0.50135294  0.64217793  1  0  0.102707  0.104733  0  1.033235  0
H  H26  1  0.64242485  0.25031000  0.35425297  1  0  0.103484  0.110603  0  0.994614  0
H  H27  1  0.35757520  0.74968935  0.64575103  1  0  0.103453  0.110601  0  0.99462  0
H  H28  1  0.48670951  0.08009696  0.37017156  1  0  0.104838  0.108166  0  1.031059  0
H  H29  1  0.51328966  0.91990128  0.62983405  1  0  0.104838  0.108182  0  1.031061  0
H  H30  1  0.07251289  0.40826695  0.38587973  1  0  0.107764  0.115592  0  1.038259  0
H  H31  1  0.92748608  0.59173246  0.61411956  1  0  0.107749  0.115588  0  1.03827  0
C  C32  1  0.02545278  0.11814956  0.11618520  1  0  0.016968  0.035027  0  3.981464  0
C  C33  1  0.97454732  0.88184984  0.88381485  1  0  0.016987  0.035037  0  3.981489  0
C  C34  1  0.93385146  0.20153097  0.00358739  1  0  -0.088791  -0.103882  0  4.029781  0
C  C35  1  0.06614949  0.79846951  0.99641302  1  0  -0.088815  -0.103909  0  4.029855  0
C  C36  1  0.79711592  0.16609894  0.00902111  1  0  -0.082447  -0.147129  0  3.914159  0
C  C37  1  0.20288278  0.83390154  0.99098072  1  0  -0.082467  -0.147135  0  3.914196  0
C  C38  1  0.75230277  0.04296241  0.12692141  1  0  0.10748  0.205213  0  4.087223  0
C  C39  1  0.24769479  0.95703805  0.87308262  1  0  0.107472  0.205229  0  4.087141  0
C  C40  1  0.85412579  0.96171806  0.23349358  1  0  0.023372  -0.036431  0  3.904197  0
C  C41  1  0.14587266  0.03828351  0.76650786  1  0  0.023346  -0.036447  0  3.904257  0
C  C42  1  0.57669082  0.86921340  0.23381920  1  0  -0.056832  -0.097756  0  3.94162  0
C  C43  1  0.42331039  0.13078599  0.76618064  1  0  -0.056798  -0.097682  0  3.941618  0
C  C44  1  0.64532426  0.74554036  0.17920755  1  0  0.118967  0.227294  0  3.952212  0
C  C45  1  0.35467760  0.25446125  0.82078928  1  0  0.118974  0.22724  0  3.952303  0
C  C46  1  0.76012630  0.62448399  0.24476879  1  0  -0.084582  -0.177423  0  3.920556  0
C  C47  1  0.23987780  0.37551761  0.75522858  1  0  -0.084607  -0.177506  0  3.920482  0
C  C48  1  0.81629720  0.51442480  0.18834217  1  0  -0.067317  -0.020219  0  3.951321  0
C  C49  1  0.18370401  0.48557459  0.81165766  1  0  -0.067291  -0.020205  0  3.951435  0
C  C50  1  0.75614456  0.52908948  0.06789799  1  0  -0.090618  -0.14034  0  3.995973  0
C  C51  1  0.24385603  0.47090771  0.93210386  1  0  -0.090621  -0.140303  0  3.99609  0
C  C52  1  0.64235548  0.65354303  0.00863315  1  0  0.038476  0.084576  0  3.991569  0
C  C53  1  0.35764663  0.34645748  0.99136409  1  0  0.038473  0.084562  0  3.991568  0
C  C54  1  0.19763070  0.61748244  0.37071797  1  0  0.195203  0.549233  0  4.226476  0
C  C55  1  0.80236827  0.38251696  0.62928230  1  0  0.195263  0.549274  0  4.226555  0
C  C56  1  0.28347211  0.47032216  0.36719996  1  0  -0.01941  -0.042312  0  3.980015  0
C  C57  1  0.71652547  0.52967832  0.63280210  1  0  -0.019386  -0.042249  0  3.980006  0
C  C58  1  0.44419738  0.42495592  0.36051865  1  0  -0.072976  -0.071742  0  3.930687  0
C  C59  1  0.55580299  0.57504241  0.63947885  1  0  -0.072994  -0.071769  0  3.930739  0
C  C60  1  0.51744494  0.28542716  0.35961123  1  0  -0.087245  -0.082276  0  3.985656  0
C  C61  1  0.48255403  0.71457224  0.64038904  1  0  -0.087232  -0.082284  0  3.985554  0
C  C62  1  0.43090067  0.18937863  0.36941186  1  0  -0.078787  -0.08917  0  3.957413  0
C  C63  1  0.56909990  0.81061854  0.63059098  1  0  -0.078785  -0.089224  0  3.957437  0
C  C64  1  0.26940674  0.23291001  0.37956500  1  0  -0.027107  -0.069848  0  4.015016  0
C  C65  1  0.73059111  0.76708939  0.62043549  1  0  -0.027079  -0.069746  0  4.015026  0
C  C66  1  0.19721983  0.37400179  0.37617702  1  0  -0.076558  -0.099517  0  3.932757  0
C  C67  1  0.80278027  0.62599762  0.62382204  1  0  -0.076579  -0.099602  0  3.932766  0
C  C68  1  0.17278008  0.13016384  0.39801307  1  0  0.218511  0.583103  0  4.176674  0
C  C69  1  0.82722088  0.86983666  0.60198636  1  0  0.218524  0.583078  0  4.176751  0
N  N70  1  0.98423647  0.00046053  0.22795058  1  0  -0.340729  -0.229632  0  3.701526  0
N  N71  1  0.01576311  0.99954104  0.77205063  1  0  -0.340722  -0.2296  0  3.70147  0
N  N72  1  0.61835429  0.00681026  0.13375580  1  0  -0.434422  -0.315262  0  3.620903  0
N  N73  1  0.38164553  0.99319020  0.86624680  1  0  -0.434385  -0.315241  0  3.62085  0
N  N74  1  0.58837072  0.75963305  0.06207816  1  0  -0.310113  -0.292969  0  3.367012  0
N  N75  1  0.41163139  0.24036745  0.93792007  1  0  -0.31009  -0.292888  0  3.366905  0
O  O76  1  0.05630033  0.65835014  0.35893425  1  0  -0.30923  -0.545984  0  2.216163  0
O  O77  1  0.94369724  0.34165033  0.64106880  1  0  -0.309286  -0.546025  0  2.216188  0
O  O78  1  0.27415030  0.69702385  0.38769836  1  0  -0.331135  -0.549025  0  2.246149  0
O  O79  1  0.72584866  0.30297554  0.61230290  1  0  -0.331145  -0.549052  0  2.246225  0
O  O80  1  0.02615005  0.17127460  0.41896299  1  0  -0.328818  -0.579294  0  2.390299  0
O  O81  1  0.97384868  0.82872592  0.58103491  1  0  -0.328837  -0.5793  0  2.390397  0
O  O82  1  0.24238143  0.00566394  0.39033080  1  0  -0.30519  -0.522268  0  2.322443  0
O  O83  1  0.75761729  0.99433656  0.60966906  1  0  -0.305193  -0.52226  0  2.322456  0
