# generated using pymatgen
data_AlH9C15NO7
_symmetry_space_group_name_H-M   'P 1'
_cell_length_a   6.76693194
_cell_length_b   17.03481641
_cell_length_c   17.72869347
_cell_angle_alpha   85.80601021
_cell_angle_beta   79.66270845
_cell_angle_gamma   81.71812971
_symmetry_Int_Tables_number   1
_chemical_formula_structural   AlH9C15NO7
_chemical_formula_sum   'Al2 H18 C30 N2 O14'
_cell_volume   1987.16123316
_cell_formula_units_Z   2
loop_
 _symmetry_equiv_pos_site_id
 _symmetry_equiv_pos_as_xyz
  1  'x, y, z'
loop_
 _atom_site_type_symbol
 _atom_site_label
 _atom_site_symmetry_multiplicity
 _atom_site_fract_x
 _atom_site_fract_y
 _atom_site_fract_z
 _atom_site_occupancy
 _atom_site_pbe_bader_charge
 _atom_site_pbe_bader_spin_density
 _atom_site_pbe_cm5_charge
 _atom_site_pbe_ddec_charge
 _atom_site_pbe_ddec_spin_density
 _atom_site_pbe_ddec_sum_bond_order
 _atom_site_pbe_magmom
Al  Al0  1  0.50000655  0.49999932  0.50000055  1  2.507617  0  0.403603  1.651216  0  2.573237  0
Al  Al1  1  0.00001031  0.50000009  0.49999754  1  2.501656  0  0.409145  1.638739  0  2.565898  0
H  H2  1  0.77056916  0.55882440  0.41444119  1  0.600224  0  0.352897  0.427967  0  0.856008  0
H  H3  1  0.22942806  0.44118131  0.58556401  1  0.600238  0  0.352889  0.427963  0  0.856067  0
H  H4  1  0.15440718  0.25912724  0.49579169  1  0.141611  0  0.105174  0.116301  0  1.046135  0
H  H5  1  0.21269756  0.11131805  0.49845030  1  0.102577  0  0.102317  0.106261  0  1.040054  0
H  H6  1  0.57619601  0.10829348  0.49977840  1  0.114103  0  0.114571  0.136819  0  0.997206  0
H  H7  1  0.42381495  0.89171119  0.50021630  1  0.113967  0  0.114526  0.136701  0  0.997364  0
H  H8  1  0.78731015  0.88868303  0.50154653  1  0.102549  0  0.102353  0.106347  0  1.040013  0
H  H9  1  0.84560771  0.74087452  0.50419839  1  0.141605  0  0.105175  0.116278  0  1.04619  0
H  H10  1  0.68218254  0.49636170  0.27416996  1  0.093282  0  0.108002  0.111794  0  1.013503  0
H  H11  1  0.76969213  0.49789842  0.13186810  1  0.11649  0  0.100572  0.110724  0  1.046339  0
H  H12  1  0.05268724  0.49601504  0.26188513  1  0.114481  0  0.114365  0.134456  0  0.996561  0
H  H13  1  0.94731714  0.50405311  0.73811088  1  0.114403  0  0.114371  0.134529  0  0.99657  0
H  H14  1  0.31785172  0.50359710  0.72583534  1  0.093583  0  0.108039  0.111798  0  1.013461  0
H  H15  1  0.23034445  0.50206689  0.86813835  1  0.116576  0  0.100666  0.110876  0  1.046369  0
H  H16  1  0.48532746  0.31959571  0.49424884  1  0.652991  0  0.315095  0.357304  0  0.964381  0
H  H17  1  0.51469054  0.68041020  0.50574191  1  0.652802  0  0.315191  0.357532  0  0.964159  0
H  H18  1  0.16826441  0.49962076  0.05730644  1  0.594052  0  0.318651  0.346452  0  0.920202  0
H  H19  1  0.83168759  0.50054404  0.94269728  1  0.59279  0  0.318381  0.346212  0  0.920771  0
C  C20  1  0.31475121  0.49753354  0.36161299  1  1.530843  0  0.274358  0.652769  0  4.068543  0
C  C21  1  0.19462696  0.64466892  0.50424095  1  1.520868  0  0.260702  0.649184  0  4.08546  0
C  C22  1  0.68527927  0.50246269  0.63838929  1  1.529809  0  0.274425  0.653029  0  4.068553  0
C  C23  1  0.80539231  0.35533338  0.49575274  1  1.520699  0  0.260646  0.649028  0  4.085541  0
C  C24  1  0.83389168  0.26811024  0.49561216  1  -0.084855  0  -0.03413  -0.199993  0  3.979275  0
C  C25  1  0.02882074  0.22575267  0.49637769  1  0.067905  0  -0.082157  -0.051346  0  3.997138  0
C  C26  1  0.06238291  0.14390731  0.49792714  1  -0.054946  0  -0.0972  -0.175234  0  3.9738  0
C  C27  1  0.89678752  0.10171331  0.49907121  1  0.296851  0  0.091004  0.196299  0  4.057932  0
C  C28  1  0.70206257  0.14194136  0.49858485  1  0.010207  0  -0.090553  -0.260925  0  3.889884  0
C  C29  1  0.66830670  0.22512976  0.49646606  1  0.525726  0  0.095813  0.32381  0  4.055904  0
C  C30  1  0.29794864  0.85806268  0.50141212  1  0.009824  0  -0.090534  -0.26079  0  3.889905  0
C  C31  1  0.10322128  0.89828896  0.50092547  1  0.297291  0  0.090952  0.196233  0  4.057857  0
C  C32  1  0.93762393  0.85609619  0.50206679  1  -0.054954  0  -0.097293  -0.175365  0  3.973732  0
C  C33  1  0.97119532  0.77425023  0.50361619  1  0.067801  0  -0.082146  -0.051314  0  3.997158  0
C  C34  1  0.16612627  0.73189148  0.50438053  1  -0.08462  0  -0.034088  -0.199997  0  3.979259  0
C  C35  1  0.33170575  0.77487492  0.50352797  1  0.525807  0  0.09582  0.323732  0  4.055946  0
C  C36  1  0.36304335  0.49670927  0.27626342  1  0.046631  0  -0.0116  -0.025531  0  3.999956  0
C  C37  1  0.56488137  0.49692676  0.23939736  1  0.00903  0  -0.090356  -0.111999  0  4.004684  0
C  C38  1  0.61303597  0.49768464  0.16008402  1  -0.0266  0  -0.081261  -0.098329  0  3.966662  0
C  C39  1  0.45960010  0.49835089  0.11575325  1  0.110117  0  -0.0182  0.009137  0  4.134643  0
C  C40  1  0.25598189  0.49783391  0.15348474  1  0.420208  0  0.092076  0.275665  0  4.040566  0
C  C41  1  0.20874968  0.49675125  0.23320141  1  0.066748  0  -0.08642  -0.20269  0  3.934745  0
C  C42  1  0.49651262  0.49955757  0.03487392  1  -0.37706  0  -0.039306  -0.107346  0  4.151003  0
C  C43  1  0.50347847  0.50049264  0.96513197  1  -0.155515  0  -0.039321  -0.107393  0  4.150928  0
C  C44  1  0.54040606  0.50168153  0.88425147  1  0.114107  0  -0.018189  0.009215  0  4.134314  0
C  C45  1  0.74402099  0.50223001  0.84651614  1  0.419048  0  0.092197  0.275471  0  4.040337  0
C  C46  1  0.79126276  0.50329783  0.76679909  1  0.066975  0  -0.086427  -0.202622  0  3.934787  0
C  C47  1  0.63698791  0.50329349  0.72373899  1  0.04585  0  -0.011649  -0.025721  0  3.999605  0
C  C48  1  0.43514862  0.50305340  0.76060813  1  0.009274  0  -0.090388  -0.111862  0  4.004298  0
C  C49  1  0.38698376  0.50230800  0.83992147  1  -0.029885  0  -0.081423  -0.098613  0  3.966825  0
N  N50  1  0.91088939  0.01790580  0.50084734  1  -0.435362  0  -0.143309  -0.127283  0  3.25728  0
N  N51  1  0.08911729  0.98209825  0.49914938  1  -0.481703  0  -0.143132  -0.127101  0  3.257166  0
O  O52  1  0.46366754  0.50005231  0.39614433  1  -1.267332  0  -0.23674  -0.602128  0  2.356136  0
O  O53  1  0.04390823  0.60886920  0.50155509  1  -1.263764  0  -0.233708  -0.582153  0  2.346951  0
O  O54  1  0.86923330  0.50336494  0.60600624  1  -1.2576  0  -0.234864  -0.592776  0  2.322995  0
O  O55  1  0.62285382  0.39107087  0.49439461  1  -1.262523  0  -0.242096  -0.617692  0  2.394524  0
O  O56  1  0.53636288  0.49993975  0.60385931  1  -1.267003  0  -0.236809  -0.602184  0  2.355887  0
O  O57  1  0.95611401  0.39113313  0.49843613  1  -1.263798  0  -0.233692  -0.58209  0  2.346981  0
O  O58  1  0.13079354  0.49663309  0.39399449  1  -1.258363  0  -0.234884  -0.59267  0  2.322818  0
O  O59  1  0.37716253  0.60893136  0.50560380  1  -1.262628  0  -0.242114  -0.61779  0  2.394395  0
O  O60  1  0.75241049  0.53600634  0.46655167  1  -1.405771  0  -0.448938  -0.986203  0  2.165846  0
O  O61  1  0.24760416  0.46399227  0.53345158  1  -1.405762  0  -0.44892  -0.986191  0  2.165825  0
O  O62  1  0.47758564  0.26116704  0.49575492  1  -1.164669  0  -0.341642  -0.431414  0  2.305939  0
O  O63  1  0.52242811  0.73883779  0.50422885  1  -1.164569  0  -0.341735  -0.431547  0  2.305931  0
O  O64  1  0.10511921  0.49852453  0.11167103  1  -1.125794  0  -0.339493  -0.426917  0  2.305804  0
O  O65  1  0.89485520  0.50160106  0.88833450  1  -1.124135  0  -0.339262  -0.426632  0  2.306144  0
