# generated using pymatgen
data_AlH7C12NO5F
_symmetry_space_group_name_H-M   'P 1'
_cell_length_a   6.65988200
_cell_length_b   11.13414669
_cell_length_c   17.71073147
_cell_angle_alpha   84.43827740
_cell_angle_beta   78.86093721
_cell_angle_gamma   73.39416144
_symmetry_Int_Tables_number   1
_chemical_formula_structural   AlH7C12NO5F
_chemical_formula_sum   'Al2 H14 C24 N2 O10 F2'
_cell_volume   1233.59094603
_cell_formula_units_Z   2
loop_
 _symmetry_equiv_pos_site_id
 _symmetry_equiv_pos_as_xyz
  1  'x, y, z'
loop_
 _atom_site_type_symbol
 _atom_site_label
 _atom_site_symmetry_multiplicity
 _atom_site_fract_x
 _atom_site_fract_y
 _atom_site_fract_z
 _atom_site_occupancy
 _atom_site_pbe_bader_charge
 _atom_site_pbe_bader_spin_density
 _atom_site_pbe_cm5_charge
 _atom_site_pbe_ddec_charge
 _atom_site_pbe_ddec_spin_density
 _atom_site_pbe_ddec_sum_bond_order
 _atom_site_pbe_magmom
Al  Al0  1  0.49879153  0.51648125  0.49977143  1  2.502853  0  0.400902  1.647119  0  2.575518  0
Al  Al1  1  0.99841297  0.51866068  0.49944057  1  2.505056  0  0.397963  1.64605  0  2.580289  0
H  H2  1  0.20844700  0.65997426  0.44572006  1  0.608292  0  0.353566  0.433735  0  0.852277  0
H  H3  1  0.78982790  0.37804769  0.55686714  1  0.622594  0  0.354214  0.434537  0  0.849754  0
H  H4  1  0.75406776  0.14399074  0.45633164  1  0.136054  0  0.122549  0.152079  0  0.979769  0
H  H5  1  0.23996366  0.89117863  0.54097848  1  0.155113  0  0.121725  0.150379  0  0.9803  0
H  H6  1  0.59276529  0.41858436  0.28079204  1  0.085692  0  0.107107  0.118896  0  1.000975  0
H  H7  1  0.66546729  0.38792290  0.13864042  1  0.078882  0  0.098797  0.102508  0  1.024437  0
H  H8  1  0.17575802  0.52249587  0.26007340  1  0.119077  0  0.110324  0.127548  0  0.997839  0
H  H9  1  0.79171137  0.56248263  0.73427833  1  0.099463  0  0.110788  0.129814  0  0.994568  0
H  H10  1  0.46719302  0.43859640  0.72965103  1  0.105122  0  0.106103  0.118506  0  1.003594  0
H  H11  1  0.40515458  0.40295970  0.87305151  1  0.082763  0  0.099096  0.103341  0  1.018625  0
H  H12  1  0.28243691  0.51625564  0.04943670  1  0.458403  0  0.296804  0.290404  0  0.97647  0
H  H13  1  0.36069147  0.55597230  0.12846995  1  0.443096  0  0.310275  0.304377  0  0.94173  0
H  H14  1  0.66629138  0.54563091  0.94517184  1  0.426736  0  0.298462  0.292174  0  0.971188  0
H  H15  1  0.56174921  0.59093029  0.86210440  1  0.435022  0  0.311796  0.307067  0  0.937864  0
C  C16  1  0.83365161  0.49694643  0.36157559  1  1.583867  0  0.265014  0.639505  0  4.099639  0
C  C17  1  0.63522601  0.74412492  0.49974277  1  1.646752  0  0.273235  0.661438  0  4.087325  0
C  C18  1  0.16916711  0.51799876  0.63881768  1  1.533495  0  0.262165  0.633373  0  4.103184  0
C  C19  1  0.36070215  0.29079517  0.49873509  1  1.551977  0  0.272963  0.661151  0  4.08789  0
C  C20  1  0.56861197  0.88437702  0.49833831  1  0.048808  0  -0.010924  -0.118878  0  3.957793  0
C  C21  1  0.42564425  0.15066165  0.49902635  1  0.149928  0  -0.010445  -0.116966  0  3.958679  0
C  C22  1  0.70930797  0.95919594  0.47441664  1  0.463935  0  0.107134  0.270373  0  4.037355  0
C  C23  1  0.28474260  0.07595631  0.52261802  1  0.380306  0  0.106985  0.269464  0  4.037631  0
C  C24  1  0.64066778  0.08884853  0.47478817  1  -0.042931  0  -0.08484  -0.200524  0  3.976025  0
C  C25  1  0.35344583  0.94623905  0.52234873  1  0.059503  0  -0.084939  -0.199779  0  3.975084  0
C  C26  1  0.87967491  0.47413365  0.27755488  1  -0.01278  0  -0.016485  -0.020465  0  4.019046  0
C  C27  1  0.73430753  0.43554486  0.24420841  1  -0.028219  0  -0.103516  -0.138472  0  4.031986  0
C  C28  1  0.77447497  0.41952685  0.16549465  1  -0.078268  0  -0.094052  -0.123767  0  4.01358  0
C  C29  1  0.95442436  0.44585620  0.11809755  1  0.116753  0  -0.016998  0.024383  0  4.098532  0
C  C30  1  0.10395158  0.48256543  0.15236556  1  0.420402  0  0.103046  0.266961  0  4.067492  0
C  C31  1  0.06451844  0.49426396  0.23239822  1  -0.048428  0  -0.096416  -0.218315  0  3.938008  0
C  C32  1  0.98663435  0.44352934  0.03704467  1  0.00373  0  -0.051135  -0.110308  0  4.150648  0
C  C33  1  0.02749238  0.45143629  0.96649682  1  -0.395147  0  -0.051309  -0.110936  0  4.154701  0
C  C34  1  0.06319938  0.46606068  0.88537692  1  0.037933  0  -0.017587  0.02332  0  4.098557  0
C  C35  1  0.88578402  0.51242034  0.84628670  1  0.410273  0  0.103982  0.267903  0  4.067589  0
C  C36  1  0.92426561  0.52894046  0.76577129  1  -0.002431  0  -0.09697  -0.21968  0  3.934272  0
C  C37  1  0.13195715  0.50326445  0.72458234  1  0.010316  0  -0.018582  -0.023873  0  4.01862  0
C  C38  1  0.30684887  0.45885990  0.76305284  1  -0.026445  0  -0.10466  -0.139178  0  4.035206  0
C  C39  1  0.27148980  0.43931611  0.84242489  1  -0.026556  0  -0.093087  -0.122299  0  4.016582  0
N  N40  1  0.28401729  0.50417445  0.10690210  1  -1.260869  0  -0.590178  -0.612142  0  3.355249  0
N  N41  1  0.68188199  0.53618277  0.88774208  1  -1.224617  0  -0.590369  -0.615234  0  3.353503  0
O  O42  1  0.63970732  0.51734829  0.39454954  1  -1.264844  0  -0.24022  -0.600851  0  2.352419  0
O  O43  1  0.83276051  0.68956404  0.49271561  1  -1.243361  0  -0.227783  -0.586676  0  2.370986  0
O  O44  1  0.00821134  0.53806075  0.60559988  1  -1.260828  0  -0.240107  -0.592625  0  2.338296  0
O  O45  1  0.51052985  0.34320898  0.49050832  1  -1.238217  0  -0.229703  -0.578647  0  2.331252  0
O  O46  1  0.36098552  0.50605856  0.60507518  1  -1.259596  0  -0.239182  -0.600956  0  2.354668  0
O  O47  1  0.16350227  0.34678925  0.50679461  1  -1.251289  0  -0.228953  -0.588077  0  2.366782  0
O  O48  1  0.98949715  0.49686328  0.39360854  1  -1.262827  0  -0.239408  -0.593155  0  2.336088  0
O  O49  1  0.48704358  0.69022553  0.50809675  1  -1.255859  0  -0.228949  -0.578669  0  2.318347  0
O  O50  1  0.24024588  0.57347061  0.46533040  1  -1.411144  0  -0.448891  -0.994475  0  2.194348  0
O  O51  1  0.75776211  0.46248584  0.53391135  1  -1.423753  0  -0.448848  -0.996283  0  2.201035  0
F  F52  1  0.91979859  0.90696944  0.44871201  1  -0.633395  0  -0.095348  -0.137933  0  1.354092  0
F  F53  1  0.07416379  0.12844718  0.54804377  1  -0.630388  0  -0.095113  -0.137245  0  1.353437  0
