# generated using pymatgen
data_ZnH6C19N(ClO4)2
_symmetry_space_group_name_H-M   'P 1'
_cell_length_a   11.81874812
_cell_length_b   16.97927066
_cell_length_c   17.80215165
_cell_angle_alpha   89.99923817
_cell_angle_beta   91.16904870
_cell_angle_gamma   89.99897637
_symmetry_Int_Tables_number   1
_chemical_formula_structural   ZnH6C19N(ClO4)2
_chemical_formula_sum   'Zn2 H12 C38 N2 Cl4 O16'
_cell_volume   3571.68045321
_cell_formula_units_Z   2
loop_
 _symmetry_equiv_pos_site_id
 _symmetry_equiv_pos_as_xyz
  1  'x, y, z'
loop_
 _atom_site_type_symbol
 _atom_site_label
 _atom_site_symmetry_multiplicity
 _atom_site_fract_x
 _atom_site_fract_y
 _atom_site_fract_z
 _atom_site_occupancy
 _atom_site_pbe_bader_charge
 _atom_site_pbe_bader_spin_density
 _atom_site_pbe_cm5_charge
 _atom_site_pbe_ddec_charge
 _atom_site_pbe_ddec_spin_density
 _atom_site_pbe_ddec_sum_bond_order
 _atom_site_pbe_magmom
Zn  Zn0  1  0.49999697  0.41290191  0.49999930  1  1.304842  0  0.66848  0.875572  0  2.316854  0
Zn  Zn1  1  0.49999363  0.58706310  0.49999927  1  1.294276  0  0.667394  0.875055  0  2.31197  0
H  H2  1  0.64672315  0.13162582  0.57491490  1  0.127341  0  0.122938  0.148348  0  0.973548  0
H  H3  1  0.36680739  0.69452933  0.96049435  1  0.624252  0  0.347518  0.386297  0  0.844119  0
H  H4  1  0.63390113  0.30657182  0.96099963  1  0.600583  0  0.348192  0.385323  0  0.844998  0
H  H5  1  0.63323182  0.69453248  0.03951080  1  0.624094  0  0.347519  0.38615  0  0.844351  0
H  H6  1  0.38344374  0.86813715  0.40447496  1  0.116445  0  0.123247  0.149455  0  0.972699  0
H  H7  1  0.35327797  0.13162792  0.42508679  1  0.127279  0  0.12293  0.14836  0  0.973581  0
H  H8  1  0.61655495  0.86813628  0.59551511  1  0.116525  0  0.123194  0.149403  0  0.972708  0
H  H9  1  0.46388243  0.37876683  0.26407840  1  0.115921  0  0.111958  0.121356  0  1.001216  0
H  H10  1  0.46534046  0.62676534  0.73727532  1  0.136785  0  0.111953  0.121603  0  0.999827  0
H  H11  1  0.53614549  0.37877197  0.73592275  1  0.115896  0  0.111983  0.121437  0  1.001218  0
H  H12  1  0.53467360  0.62676237  0.26272755  1  0.136833  0  0.112006  0.121688  0  0.999735  0
H  H13  1  0.36615254  0.30658623  0.03899435  1  0.601055  0  0.348087  0.385277  0  0.844974  0
C  C14  1  0.50134669  0.50346015  0.64368386  1  1.534591  0  0.216628  0.60192  0  4.158225  0
C  C15  1  0.50055239  0.50111678  0.88681832  1  0.136983  0  0.02197  0.112692  0  4.028776  0
C  C16  1  0.49973706  0.50058501  0.03418467  1  -0.038158  0  -0.031249  -0.06601  0  4.084854  0
C  C17  1  0.50033731  0.50058264  0.96581835  1  -0.268668  0  -0.031048  -0.065069  0  4.084264  0
C  C18  1  0.71708089  0.49599674  0.49663603  1  1.6844  0  0.216685  0.662135  0  4.246237  0
C  C19  1  0.28290898  0.49599324  0.50336539  1  1.684299  0  0.216532  0.661811  0  4.246907  0
C  C20  1  0.58162246  0.16145808  0.54165770  1  0.045225  0  -0.077449  -0.241881  0  3.885389  0
C  C21  1  0.43503172  0.83832492  0.44693981  1  0.057958  0  -0.078014  -0.243423  0  3.886979  0
C  C22  1  0.41837358  0.16145781  0.45834411  1  0.045262  0  -0.077368  -0.241802  0  3.885277  0
C  C23  1  0.56496614  0.83832345  0.55305230  1  0.058165  0  -0.077919  -0.243207  0  3.886992  0
C  C24  1  0.57812923  0.24342218  0.53979658  1  0.609382  0  0.157127  0.308808  0  4.046322  0
C  C25  1  0.49865566  0.50346216  0.35631537  1  1.534628  0  0.216541  0.601647  0  4.158001  0
C  C26  1  0.43768347  0.75635317  0.44932471  1  0.588264  0  0.156909  0.30856  0  4.04882  0
C  C27  1  0.42186616  0.24342420  0.46020137  1  0.609109  0  0.157049  0.308718  0  4.046047  0
C  C28  1  0.56231419  0.75635117  0.55067182  1  0.588372  0  0.156858  0.308365  0  4.048962  0
C  C29  1  0.50000151  0.03575614  0.49999838  1  -0.30978  0  -0.018269  -0.074938  0  4.039826  0
C  C30  1  0.50000009  0.96400626  0.49999415  1  -0.070887  0  -0.017011  -0.073646  0  4.038785  0
C  C31  1  0.83931941  0.49507905  0.49712416  1  0.100588  0  -0.019325  -0.143306  0  3.868208  0
C  C32  1  0.16067048  0.49507752  0.50287839  1  0.100806  0  -0.019364  -0.143147  0  3.868187  0
C  C33  1  0.94290072  0.49441294  0.49900589  1  -0.142506  0  -0.023597  0.011616  0  4.265758  0
C  C34  1  0.05708835  0.49441083  0.50099216  1  -0.318704  0  -0.023419  0.011655  0  4.265651  0
C  C35  1  0.49999947  0.11908186  0.50000119  1  0.140513  0  0.026756  0.21859  0  4.103949  0
C  C36  1  0.47917315  0.43276398  0.23284348  1  0.029545  0  -0.060785  -0.082058  0  3.914275  0
C  C37  1  0.49999959  0.88067759  0.49999524  1  0.142918  0  0.026079  0.21743  0  4.102978  0
C  C38  1  0.47636103  0.43147003  0.15455045  1  0.00754  0  -0.001897  -0.070061  0  3.905681  0
C  C39  1  0.47758600  0.57161727  0.84612372  1  -0.029619  0  -0.002057  -0.067869  0  3.906081  0
C  C40  1  0.52370007  0.43147555  0.84545103  1  0.007084  0  -0.001742  -0.069743  0  3.905696  0
C  C41  1  0.52245757  0.57161183  0.15387855  1  -0.017711  0  -0.002  -0.068151  0  3.906482  0
C  C42  1  0.45068127  0.35414143  0.11797925  1  1.50967  0  0.231365  0.585346  0  4.126107  0
C  C43  1  0.45319633  0.64812985  0.88399483  1  1.513393  0  0.231444  0.586268  0  4.124695  0
C  C44  1  0.54937442  0.35414556  0.88201752  1  1.509916  0  0.231002  0.584685  0  4.126983  0
C  C45  1  0.54684759  0.64812644  0.11600929  1  1.513169  0  0.231604  0.586512  0  4.1244  0
C  C46  1  0.48045159  0.57209839  0.76788859  1  0.002764  0  -0.062371  -0.088324  0  3.921019  0
C  C47  1  0.52086677  0.43276650  0.76715826  1  0.029359  0  -0.060844  -0.082179  0  3.914109  0
C  C48  1  0.51957249  0.57209542  0.23211230  1  0.002452  0  -0.062455  -0.088477  0  3.920923  0
C  C49  1  0.49935341  0.50280547  0.27209421  1  0.04019  0  -0.009035  -0.017689  0  3.947927  0
C  C50  1  0.50066588  0.50281112  0.72790638  1  0.040378  0  -0.009054  -0.017953  0  3.948258  0
C  C51  1  0.49950842  0.50111452  0.11318114  1  0.125293  0  0.022042  0.113128  0  4.028934  0
N  N52  1  0.49999794  0.28516791  0.49999843  1  -1.132601  0  -0.300118  -0.307769  0  3.366895  0
N  N53  1  0.49999773  0.71463925  0.49999851  1  -1.119441  0  -0.301925  -0.311214  0  3.371778  0
Cl  Cl54  1  0.67864132  0.29316780  0.59112181  1  -0.117679  0  0.063225  -0.005687  0  1.530087  0
Cl  Cl55  1  0.35683859  0.70669764  0.38442504  1  -0.108909  0  0.066339  -0.000969  0  1.534577  0
Cl  Cl56  1  0.32135603  0.29316872  0.40887105  1  -0.117469  0  0.063279  -0.005627  0  1.530046  0
Cl  Cl57  1  0.64316388  0.70669560  0.61557106  1  -0.10893  0  0.066358  -0.000902  0  1.534612  0
O  O58  1  0.52962683  0.43969599  0.61159429  1  -1.167862  0  -0.319458  -0.561582  0  2.37339  0
O  O59  1  0.37673973  0.36006182  0.05874967  1  -1.088274  0  -0.32916  -0.477848  0  2.232699  0
O  O60  1  0.49630525  0.71078378  0.86639821  1  -1.131535  0  -0.306011  -0.501102  0  2.031388  0
O  O61  1  0.37560391  0.64175861  0.93893249  1  -1.105649  0  -0.327731  -0.476689  0  2.229886  0
O  O62  1  0.51079509  0.29124806  0.85995397  1  -1.131903  0  -0.305816  -0.499231  0  2.032714  0
O  O63  1  0.62330480  0.36005429  0.94125643  1  -1.08758  0  -0.329076  -0.477662  0  2.233044  0
O  O64  1  0.50373773  0.71078178  0.13361240  1  -1.132109  0  -0.306142  -0.501297  0  2.030799  0
O  O65  1  0.62443173  0.64175980  0.06106767  1  -1.105142  0  -0.327763  -0.476487  0  2.230337  0
O  O66  1  0.52579065  0.56793688  0.38846407  1  -1.158586  0  -0.318564  -0.552868  0  2.359757  0
O  O67  1  0.47036549  0.43969375  0.38840674  1  -1.167758  0  -0.319412  -0.561514  0  2.373063  0
O  O68  1  0.47420478  0.56793915  0.61153538  1  -1.158563  0  -0.318606  -0.55302  0  2.359685  0
O  O69  1  0.66813004  0.43182772  0.47810897  1  -1.140001  0  -0.315941  -0.548665  0  2.298939  0
O  O70  1  0.32902177  0.56055419  0.48461827  1  -1.143424  0  -0.314657  -0.554029  0  2.309638  0
O  O71  1  0.33186166  0.43182518  0.52188767  1  -1.139775  0  -0.315882  -0.548526  0  2.299316  0
O  O72  1  0.67096541  0.56055382  0.51538397  1  -1.143614  0  -0.314688  -0.554072  0  2.309591  0
O  O73  1  0.48926324  0.29124024  0.14003297  1  -1.131504  0  -0.305968  -0.499519  0  2.032393  0
