# generated using pymatgen
data_CuH20C22(NO3)4
_symmetry_space_group_name_H-M   'P 1'
_cell_length_a   7.46537087
_cell_length_b   8.71665464
_cell_length_c   11.18047106
_cell_angle_alpha   70.35049373
_cell_angle_beta   78.97772907
_cell_angle_gamma   80.00522471
_symmetry_Int_Tables_number   1
_chemical_formula_structural   CuH20C22(NO3)4
_chemical_formula_sum   'Cu1 H20 C22 N4 O12'
_cell_volume   667.82580894
_cell_formula_units_Z   1
loop_
 _symmetry_equiv_pos_site_id
 _symmetry_equiv_pos_as_xyz
  1  'x, y, z'
loop_
 _atom_site_type_symbol
 _atom_site_label
 _atom_site_symmetry_multiplicity
 _atom_site_fract_x
 _atom_site_fract_y
 _atom_site_fract_z
 _atom_site_occupancy
 _atom_site_pbe_cm5_charge
 _atom_site_pbe_ddec_charge
 _atom_site_pbe_ddec_spin_density
 _atom_site_pbe_ddec_sum_bond_order
 _atom_site_pbe_magmom
Cu  Cu0  1  0.99999849  0.00000058  0.49999875  1  0.728701  0.777027  0.725004  2.200046  0.563
H  H1  1  0.75518327  0.16500041  0.67474338  1  0.1234  0.105019  0.000855  1.018051  0.002
H  H2  1  0.24481875  0.83499688  0.32525611  1  0.123405  0.105054  0.000855  1.018005  0.002
H  H3  1  0.95368158  0.23243461  0.80383716  1  0.111109  0.109152  0.000102  1.036994  0.0
H  H4  1  0.04631387  0.76756996  0.19615947  1  0.111134  0.10917  0.000102  1.036843  0.0
H  H5  1  0.86285003  0.60704967  0.26888386  1  0.110774  0.118754  0.000557  1.02117  0.001
H  H6  1  0.13715534  0.39295259  0.73111836  1  0.110762  0.118743  0.000557  1.021188  0.001
H  H7  1  0.67632682  0.67842662  0.45633591  1  0.114716  0.117877  0.000111  1.000123  0.0
H  H8  1  0.32368029  0.32157321  0.54366940  1  0.114729  0.117898  0.000111  1.000097  0.0
H  H9  1  0.00642505  0.31787369  0.29673004  1  0.119732  0.098003  0.000755  1.013053  0.001
H  H10  1  0.99357542  0.68212481  0.70326754  1  0.119752  0.097987  0.000755  1.013096  0.001
H  H11  1  0.43460136  0.62005209  0.77609938  1  0.298044  0.32099  5.7e-05  0.990435  0.0
H  H12  1  0.56540451  0.37993788  0.22390689  1  0.298036  0.320944  5.7e-05  0.990504  0.0
H  H13  1  0.59533812  0.70132676  0.64205084  1  0.287012  0.310777  1.1e-05  1.008697  0.0
H  H14  1  0.40466466  0.29866562  0.35795519  1  0.287033  0.310855  1.1e-05  1.00876  0.0
H  H15  1  0.41345806  0.02858736  0.39379714  1  0.309928  0.404811  1.7e-05  0.893461  0.0
H  H16  1  0.58653040  0.97141833  0.60619921  1  0.310021  0.404925  1.8e-05  0.89337  0.0
H  H17  1  0.31971885  0.04605473  0.53069870  1  0.275408  0.349054  -0.000196  1.020477  0.0
H  H18  1  0.68026496  0.95395457  0.46929729  1  0.275362  0.34898  -0.000196  1.020537  0.0
H  H19  1  0.23141937  0.46382821  0.08118766  1  0.354739  0.393377  -1.1e-05  0.831558  0.0
H  H20  1  0.76861505  0.53618065  0.91881713  1  0.354744  0.393392  -1.1e-05  0.831567  0.0
C  C21  1  0.08409854  0.84715182  0.99045160  1  1.6e-05  -0.043937  0.001797  3.936347  0.002
C  C22  1  0.91589047  0.15285018  0.00954295  1  2.4e-05  -0.043954  0.001797  3.936167  0.002
C  C23  1  0.06329467  0.97949657  0.87738954  1  0.011347  -0.006034  0.008639  3.881223  0.009
C  C24  1  0.93670251  0.02050556  0.12260571  1  0.011316  -0.006153  0.008641  3.881263  0.009
C  C25  1  0.57969794  0.44680395  0.70030324  1  0.223261  0.528486  0.000519  4.211637  0.0
C  C26  1  0.42030482  0.55318843  0.29969833  1  0.223156  0.52829  0.000519  4.211705  0.0
C  C27  1  0.78251128  0.26666340  0.58735670  1  0.049789  0.062174  -0.001171  3.908813  0.0
C  C28  1  0.21748821  0.73333262  0.41264612  1  0.049774  0.062164  -0.001172  3.908744  0.0
C  C29  1  0.70531037  0.42597441  0.58273061  1  -0.008416  -0.070703  0.004114  3.9519  0.005
C  C30  1  0.29469866  0.57402176  0.41727453  1  -0.008411  -0.070711  0.004114  3.9518  0.005
C  C31  1  0.97679094  0.12978959  0.88955495  1  -0.065857  -0.094515  0.002185  3.89791  0.002
C  C32  1  0.02320370  0.87021127  0.11043918  1  -0.065826  -0.094374  0.002184  3.897711  0.002
C  C33  1  0.84472601  0.51430844  0.36228192  1  -0.078761  -0.112299  0.003773  3.956527  0.004
C  C34  1  0.15528091  0.48569261  0.63772130  1  -0.078786  -0.112368  0.003772  3.956777  0.004
C  C35  1  0.16403567  0.68274231  0.98195963  1  0.243058  0.579076  0.000298  4.108861  0.0
C  C36  1  0.83597074  0.31727103  0.01803508  1  0.242932  0.578915  0.000298  4.108681  0.0
C  C37  1  0.12629985  0.97332656  0.74162978  1  0.217422  0.587715  -0.000287  4.210193  -0.002
C  C38  1  0.87368625  0.02667663  0.25836752  1  0.217346  0.587595  -0.000287  4.210096  -0.002
C  C39  1  0.73779020  0.55245845  0.46718311  1  -0.058642  -0.044161  -0.004249  3.905822  -0.002
C  C40  1  0.26220521  0.44753750  0.53282383  1  -0.058619  -0.04407  -0.004249  3.905816  -0.002
C  C41  1  0.92186119  0.35352385  0.37577056  1  0.051636  0.107195  -0.001129  3.899565  0.0
C  C42  1  0.07813730  0.64646970  0.62423035  1  0.051607  0.107245  -0.001128  3.89956  0.0
N  N43  1  0.89101553  0.23153051  0.48701170  1  -0.348325  -0.22959  0.055264  3.615061  0.072
N  N44  1  0.10897987  0.76846545  0.51299077  1  -0.3483  -0.229645  0.055262  3.615021  0.072
N  N45  1  0.53728649  0.60109736  0.70605518  1  -0.582268  -0.648825  0.000457  3.344542  0.001
N  N46  1  0.46272074  0.39889263  0.29395002  1  -0.582278  -0.648798  0.000457  3.344673  0.001
O  O47  1  0.17111975  0.56569059  0.09730131  1  -0.314189  -0.463506  0.000107  2.312131  0.0
O  O48  1  0.82889755  0.43432292  0.90269105  1  -0.314109  -0.463405  0.000107  2.312094  0.0
O  O49  1  0.99695797  0.95384391  0.68913011  1  -0.314867  -0.541826  0.063822  2.377479  0.091
O  O50  1  0.00303000  0.04614701  0.31087017  1  -0.314863  -0.541871  0.063819  2.377696  0.091
O  O51  1  0.51778248  0.32507922  0.78356347  1  -0.332016  -0.527082  0.000806  2.03942  0.001
O  O52  1  0.48223527  0.67491339  0.21644057  1  -0.331954  -0.527027  0.000806  2.039438  0.001
O  O53  1  0.31932007  0.09434253  0.43535453  1  -0.58321  -0.777922  -0.000949  2.061497  0.0
O  O54  1  0.68067271  0.90567060  0.56463930  1  -0.583258  -0.777965  -0.000949  2.061591  0.0
O  O55  1  0.21535487  0.65182456  0.88053020  1  -0.268021  -0.485516  0.000158  2.223254  0.0
O  O56  1  0.78464115  0.34817632  0.11947359  1  -0.267942  -0.485433  0.000158  2.223215  0.0
O  O57  1  0.28697966  0.00155051  0.68922364  1  -0.311207  -0.535084  0.001088  2.162343  0.003
O  O58  1  0.71300198  0.99845507  0.31077092  1  -0.311101  -0.534872  0.001088  2.161997  0.003
