# generated using pymatgen
data_AlH3C12(SO3)3
_symmetry_space_group_name_H-M   'P 1'
_cell_length_a   3.96884150
_cell_length_b   20.15959630
_cell_length_c   20.15961930
_cell_angle_alpha   120.00031367
_cell_angle_beta   90.00006993
_cell_angle_gamma   90.00013775
_symmetry_Int_Tables_number   1
_chemical_formula_structural   AlH3C12(SO3)3
_chemical_formula_sum   'Al2 H6 C24 S6 O18'
_cell_volume   1396.87380117
_cell_formula_units_Z   2
loop_
 _symmetry_equiv_pos_site_id
 _symmetry_equiv_pos_as_xyz
  1  'x, y, z'
loop_
 _atom_site_type_symbol
 _atom_site_label
 _atom_site_symmetry_multiplicity
 _atom_site_fract_x
 _atom_site_fract_y
 _atom_site_fract_z
 _atom_site_occupancy
 _atom_site_pbe_bader_charge
 _atom_site_pbe_bader_spin_density
 _atom_site_pbe_cm5_charge
 _atom_site_pbe_ddec_charge
 _atom_site_pbe_ddec_spin_density
 _atom_site_pbe_ddec_sum_bond_order
 _atom_site_pbe_magmom
Al  Al0  1  0.00368575  0.50000046  0.49999894  1  2.50386  0  0.425978  1.592705  0  2.571469  0
Al  Al1  1  0.00367978  0.16666734  0.83333229  1  2.503992  0  0.426043  1.592747  0  2.571279  0
H  H2  1  0.49609743  0.51373266  0.78398728  1  0.617657  0  0.335613  0.360473  0  0.880108  0
H  H3  1  0.49609957  0.15293255  0.54933038  1  0.618025  0  0.335683  0.360568  0  0.879937  0
H  H4  1  0.49609801  0.77025609  0.48626805  1  0.598477  0  0.335629  0.360486  0  0.880029  0
H  H5  1  0.49609991  0.89640008  0.84706712  1  0.598856  0  0.335705  0.360633  0  0.879854  0
H  H6  1  0.49609893  0.21601443  0.22974372  1  0.605436  0  0.335605  0.360441  0  0.880287  0
H  H7  1  0.49609993  0.45066885  0.10359928  1  0.605959  0  0.335663  0.360527  0  0.880135  0
C  C8  1  0.50266689  0.43896513  0.38257303  1  1.671193  0  0.274668  0.695261  0  4.067667  0
C  C9  1  0.50266749  0.44361064  0.56103493  1  1.59095  0  0.274635  0.695233  0  4.067531  0
C  C10  1  0.50266851  0.61742622  0.55638932  1  1.576371  0  0.274647  0.695223  0  4.067809  0
C  C11  1  0.50267440  0.22305177  0.77228852  1  1.590473  0  0.274687  0.695361  0  4.067194  0
C  C12  1  0.50267086  0.04923860  0.77694857  1  1.57594  0  0.274629  0.695141  0  4.067353  0
C  C13  1  0.50267500  0.22771196  0.95076053  1  1.671121  0  0.274644  0.695238  0  4.067198  0
C  C14  1  0.48866118  0.42943242  0.68096356  1  0.560413  0  0.074862  0.260362  0  4.105734  0
C  C15  1  0.48872041  0.23722984  0.65235803  1  0.560485  0  0.074761  0.259936  0  4.105869  0
C  C16  1  0.49722497  0.40053130  0.60254866  1  -0.055656  0  -0.029188  -0.217124  0  3.879678  0
C  C17  1  0.49722709  0.26613118  0.73077372  1  -0.055235  0  -0.029152  -0.216923  0  3.879397  0
C  C18  1  0.50705603  0.29680356  0.63415644  1  -0.126829  0  -0.043582  -0.140762  0  4.158262  0
C  C19  1  0.50701384  0.36985950  0.69916537  1  -0.176458  0  -0.043597  -0.140849  0  4.158624  0
C  C20  1  0.48867031  0.75153335  0.57056864  1  0.626368  0  0.074867  0.260396  0  4.10577  0
C  C21  1  0.48871725  0.91513126  0.76277097  1  0.626228  0  0.074773  0.260015  0  4.106023  0
C  C22  1  0.49723180  0.70201947  0.59946984  1  -0.118677  0  -0.029117  -0.21704  0  3.879658  0
C  C23  1  0.49723127  0.96464537  0.73387056  1  -0.118661  0  -0.029197  -0.217003  0  3.879532  0
C  C24  1  0.50705192  0.83735629  0.70319837  1  -0.147766  0  -0.043621  -0.140681  0  4.158274  0
C  C25  1  0.50701889  0.82930884  0.63014175  1  -0.230472  0  -0.043595  -0.140943  0  4.158655  0
C  C26  1  0.48866418  0.31903698  0.24846528  1  0.555003  0  0.074823  0.260311  0  4.105795  0
C  C27  1  0.48871675  0.34764008  0.08486806  1  0.555021  0  0.074858  0.260193  0  4.105961  0
C  C28  1  0.49722398  0.39745064  0.29797935  1  -0.148447  0  -0.029083  -0.216925  0  3.879515  0
C  C29  1  0.49722994  0.26922721  0.03535420  1  -0.148767  0  -0.029169  -0.216989  0  3.879591  0
C  C30  1  0.50705495  0.36584449  0.16264310  1  -0.105887  0  -0.043666  -0.140862  0  4.158399  0
C  C31  1  0.50701931  0.30083415  0.17069067  1  -0.183646  0  -0.043555  -0.140861  0  4.158477  0
S  S32  1  0.52088855  0.30096445  0.55088561  1  0.224542  0  0.059718  0.100848  0  2.836405  0
S  S33  1  0.52079896  0.36569713  0.78243472  1  0.224583  0  0.059753  0.100906  0  2.836606  0
S  S34  1  0.52088666  0.74992472  0.69903735  1  0.277365  0  0.059692  0.100762  0  2.836414  0
S  S35  1  0.52080934  0.91674005  0.63430413  1  0.2773  0  0.059713  0.100883  0  2.836624  0
S  S36  1  0.52088344  0.44911390  0.25007425  1  0.23634  0  0.059682  0.100748  0  2.836437  0
S  S37  1  0.52080845  0.21756590  0.08325838  1  0.236585  0  0.059729  0.100915  0  2.836589  0
O  O38  1  0.73873726  0.58484726  0.57257613  1  -1.249027  0  -0.23718  -0.596893  0  2.347161  0
O  O39  1  0.73873618  0.48773015  0.41515243  1  -1.252448  0  -0.237195  -0.596944  0  2.347199  0
O  O40  1  0.73873361  0.42742428  0.51226952  1  -1.248419  0  -0.237189  -0.596937  0  2.347224  0
O  O41  1  0.27043917  0.58301653  0.50727303  1  -1.246166  0  -0.232816  -0.581214  0  2.32665  0
O  O42  1  0.27043381  0.49272817  0.57574223  1  -1.243942  0  -0.232817  -0.581229  0  2.326394  0
O  O43  1  0.27043542  0.42425771  0.41698308  1  -1.244455  0  -0.232833  -0.581259  0  2.326596  0
O  O44  1  0.73872333  0.17894677  0.91818264  1  -1.252725  0  -0.237176  -0.596896  0  2.347256  0
O  O45  1  0.73872086  0.23923818  0.82105223  1  -1.248108  0  -0.237211  -0.596936  0  2.347296  0
O  O46  1  0.73871721  0.08181725  0.76076142  1  -1.248874  0  -0.237119  -0.596791  0  2.34712  0
O  O47  1  0.27043088  0.24241466  0.91634693  1  -1.244213  0  -0.232824  -0.581283  0  2.326074  0
O  O48  1  0.27042965  0.08365209  0.82606470  1  -1.245886  0  -0.232856  -0.581272  0  2.32625  0
O  O49  1  0.27042745  0.17393410  0.75758399  1  -1.24401  0  -0.232796  -0.581315  0  2.326205  0
O  O50  1  0.47702616  0.50606698  0.73251268  1  -1.128417  0  -0.344069  -0.411743  0  2.256014  0
O  O51  1  0.47714714  0.16059464  0.60080656  1  -1.128798  0  -0.344116  -0.411697  0  2.2559  0
O  O52  1  0.47703680  0.72644688  0.49393445  1  -1.110372  0  -0.344085  -0.411766  0  2.255933  0
O  O53  1  0.47713996  0.94021423  0.83940567  1  -1.110897  0  -0.344086  -0.411741  0  2.255782  0
O  O54  1  0.47702832  0.26748752  0.27355071  1  -1.112596  0  -0.344028  -0.41168  0  2.256205  0
O  O55  1  0.47713929  0.39919663  0.05978743  1  -1.112693  0  -0.344142  -0.411755  0  2.255845  0
