# generated using pymatgen
data_Al6H50C101O33
_symmetry_space_group_name_H-M   'P 1'
_cell_length_a   12.82524955
_cell_length_b   12.72800856
_cell_length_c   27.62951624
_cell_angle_alpha   89.10605338
_cell_angle_beta   88.21211409
_cell_angle_gamma   61.40427198
_symmetry_Int_Tables_number   1
_chemical_formula_structural   Al6H50C101O33
_chemical_formula_sum   'Al6 H50 C101 O33'
_cell_volume   3958.14509868
_cell_formula_units_Z   1
loop_
 _symmetry_equiv_pos_site_id
 _symmetry_equiv_pos_as_xyz
  1  'x, y, z'
loop_
 _atom_site_type_symbol
 _atom_site_label
 _atom_site_symmetry_multiplicity
 _atom_site_fract_x
 _atom_site_fract_y
 _atom_site_fract_z
 _atom_site_occupancy
 _atom_site_pbe_bader_charge
 _atom_site_pbe_bader_spin_density
 _atom_site_pbe_cm5_charge
 _atom_site_pbe_ddec_charge
 _atom_site_pbe_ddec_spin_density
 _atom_site_pbe_ddec_sum_bond_order
 _atom_site_pbe_magmom
Al  Al0  1  0.42417221  0.18145239  0.50310863  1  2.493459  0  0.396868  1.691369  0  2.548233  0
Al  Al1  1  0.65947258  0.92393608  0.50131672  1  2.478084  0  0.504269  1.662884  0  2.504503  0
Al  Al2  1  0.42210695  0.93155766  0.50103016  1  2.47877  0  0.505637  1.660337  0  2.510786  0
Al  Al3  1  0.91198716  0.16018867  0.01708087  1  2.491512  0  0.394962  1.686175  0  2.55675  0
Al  Al4  1  0.91220339  0.41198840  0.01783134  1  2.484168  0  0.506474  1.662071  0  2.504437  0
Al  Al5  1  0.67717324  0.41567257  0.01791556  1  2.483126  0  0.502613  1.658141  0  2.516346  0
H  H6  1  0.82119678  0.71015514  0.78718211  1  0.051221  0  0.105807  0.095457  0  0.986012  0
H  H7  1  0.30613143  0.22686182  0.79276488  1  0.062542  0  0.103002  0.091895  0  0.996562  0
H  H8  1  0.13442550  0.35826071  0.72226619  1  0.08712  0  0.10604  0.096011  0  0.984625  0
H  H9  1  0.96202439  0.32717460  0.77868716  1  0.077054  0  0.099404  0.085683  0  1.007842  0
H  H10  1  0.47181065  0.32707664  0.78336323  1  0.087747  0  0.102918  0.091749  0  0.990601  0
H  H11  1  0.62697210  0.34894071  0.71311664  1  0.073658  0  0.104086  0.094186  0  0.989114  0
H  H12  1  0.52019021  0.10650270  0.74073913  1  0.062688  0  0.099319  0.085003  0  1.012825  0
H  H13  1  0.71209954  0.98467701  0.80485269  1  0.071141  0  0.10371  0.09367  0  0.990371  0
H  H14  1  0.86739505  0.00640334  0.73458934  1  0.058322  0  0.102828  0.091245  0  0.99162  0
H  H15  1  0.81891575  0.22736574  0.77724669  1  0.054536  0  0.09883  0.084237  0  1.015004  0
H  H16  1  0.88834072  0.56925593  0.14263782  1  0.097139  0  0.106874  0.109802  0  1.015452  0
H  H17  1  0.84805139  0.53666143  0.71761777  1  0.039671  0  0.105253  0.095509  0  0.989155  0
H  H18  1  0.81461795  0.70663786  0.38202307  1  0.100851  0  0.108751  0.116302  0  0.999102  0
H  H19  1  0.96949286  0.59482478  0.21960992  1  0.086071  0  0.099094  0.100434  0  1.02587  0
H  H20  1  0.94553227  0.63863863  0.30693571  1  0.054484  0  0.102643  0.103726  0  1.002621  0
H  H21  1  0.52624462  0.63862883  0.13831014  1  0.125663  0  0.109919  0.117255  0  1.030499  0
H  H22  1  0.36961913  0.75942399  0.30069749  1  0.067643  0  0.104325  0.121438  0  1.037388  0
H  H23  1  0.45170895  0.77820962  0.37669032  1  0.099041  0  0.108644  0.118193  0  1.002683  0
H  H24  1  0.01268752  0.08873227  0.15395637  1  0.096957  0  0.110815  0.121412  0  1.002358  0
H  H25  1  0.19049444  0.99665177  0.38629662  1  0.098204  0  0.107286  0.113705  0  1.000588  0
H  H26  1  0.02255535  0.99123977  0.23426941  1  0.081037  0  0.099341  0.099889  0  1.032255  0
H  H27  1  0.61184084  0.87929306  0.74133919  1  0.064046  0  0.101059  0.088161  0  1.011377  0
H  H28  1  0.08476749  0.95942097  0.31929886  1  0.051606  0  0.101115  0.100527  0  1.014069  0
H  H29  1  0.10671642  0.36961138  0.14041105  1  0.087245  0  0.109647  0.118102  0  0.996963  0
H  H30  1  0.17402047  0.43473361  0.21270808  1  0.05979  0  0.101612  0.101224  0  1.00493  0
H  H31  1  0.22626011  0.40948829  0.29904260  1  0.053094  0  0.09805  0.094474  0  1.031537  0
H  H32  1  0.26997478  0.28772407  0.37523845  1  0.093563  0  0.110559  0.118231  0  1.005741  0
H  H33  1  0.48986470  0.28152239  0.38154335  1  0.096965  0  0.116038  0.122186  0  0.994691  0
H  H34  1  0.39729631  0.43464784  0.22093089  1  0.065119  0  0.101664  0.095298  0  1.064413  0
H  H35  1  0.40037802  0.40706866  0.30941648  1  0.057614  0  0.105583  0.103996  0  1.00555  0
H  H36  1  0.81964748  0.04064702  0.12447412  1  0.153447  0  0.119783  0.135061  0  1.010813  0
H  H37  1  0.47543420  0.80758173  0.80286447  1  0.085855  0  0.104665  0.094401  0  0.990416  0
H  H38  1  0.88538192  0.85953410  0.28370780  1  0.092149  0  0.107103  0.104813  0  1.033369  0
H  H39  1  0.79739974  0.93627933  0.36623661  1  0.091026  0  0.110766  0.11779  0  0.999993  0
H  H40  1  0.50227001  0.63393644  0.73335314  1  0.099258  0  0.106092  0.096289  0  0.984386  0
H  H41  1  0.71170081  0.46495215  0.77919648  1  0.068765  0  0.101555  0.089604  0  1.007761  0
H  H42  1  0.19501998  0.98169207  0.79725317  1  0.07762  0  0.104256  0.092913  0  0.988043  0
H  H43  1  0.02346612  0.11307799  0.72688096  1  0.065039  0  0.102409  0.091894  0  0.999165  0
H  H44  1  0.36752242  0.01267663  0.74092584  1  0.071173  0  0.099543  0.085563  0  1.008572  0
H  H45  1  0.20177797  0.77458792  0.19912511  1  0.053149  0  0.105492  0.086168  0  0.985033  0
H  H46  1  0.24077398  0.82935307  0.25018553  1  0.0472  0  0.094998  0.058384  0  1.040417  0
H  H47  1  0.23956348  0.59368518  0.23664720  1  0.026804  0  0.089354  0.084914  0  0.989218  0
H  H48  1  0.35225534  0.59150684  0.27270306  1  0.037631  0  0.090356  0.081206  0  1.020577  0
H  H49  1  0.19995141  0.74484057  0.32825187  1  7.3e-05  0  0.083123  0.106577  0  1.017457  0
H  H50  1  0.17086483  0.62292667  0.32268004  1  0.022245  0  0.084629  0.1114  0  1.010927  0
H  H51  1  0.08470027  0.75732256  0.29028903  1  0.055996  0  0.084046  0.116964  0  1.038736  0
H  H52  1  0.37570849  0.55950574  0.12909660  1  0.634311  0  0.350974  0.384891  0  0.839167  0
H  H53  1  0.94441329  0.78007607  0.12871055  1  0.610555  0  0.356098  0.391611  0  0.832627  0
H  H54  1  0.39032661  0.37786030  0.48868788  1  0.567512  0  0.288567  0.377046  0  0.932544  0
H  H55  1  0.04543175  0.96318817  0.99433640  1  0.579317  0  0.290402  0.381291  0  0.926594  0
C  C56  1  0.63007606  0.09166341  0.57028737  1  1.656646  0  0.27714  0.712178  0  4.165905  0
C  C57  1  0.62148349  0.73979173  0.61778801  1  0.146716  0  -0.041979  -0.205447  0  3.96299  0
C  C58  1  0.68945493  0.55714373  0.77015816  1  -0.016375  0  -0.065932  -0.0734  0  3.623765  0
C  C59  1  0.67485598  0.65363677  0.80948688  1  0.112808  0  0.009091  0.116424  0  3.787931  0
C  C60  1  0.57310398  0.65079092  0.74567815  1  -0.046445  0  -0.069412  -0.081125  0  3.632412  0
C  C61  1  0.64850067  0.69063473  0.71101306  1  0.127239  0  0.010204  0.118718  0  3.785422  0
C  C62  1  0.55797868  0.74755614  0.78346487  1  -0.034617  0  -0.067385  -0.076603  0  3.627053  0
C  C63  1  0.63402593  0.78709370  0.75034295  1  -0.027627  0  -0.066585  -0.073613  0  3.620722  0
C  C64  1  0.68896812  0.63000140  0.85976152  1  -0.216089  0  -0.015997  -0.021429  0  4.057444  0
C  C65  1  0.63458277  0.71466446  0.66075390  1  -0.413408  0  -0.017763  -0.024043  0  4.059572  0
C  C66  1  0.08604485  0.13840824  0.74200532  1  -0.020044  0  -0.069108  -0.079701  0  3.631708  0
C  C67  1  0.60094592  0.79055991  0.56996538  1  1.63576  0  0.282169  0.722835  0  4.15067  0
C  C68  1  0.18183763  0.06505413  0.78016660  1  -0.035737  0  -0.069924  -0.07909  0  3.632944  0
C  C69  1  0.10392653  0.21862124  0.90293143  1  0.264663  0  -0.044004  -0.203974  0  3.971043  0
C  C70  1  0.23161966  0.12384995  0.61703591  1  0.27624  0  -0.04027  -0.197873  0  3.975035  0
C  C71  1  0.05222907  0.25721019  0.76961031  1  -0.045231  0  -0.068202  -0.075824  0  3.628759  0
C  C72  1  0.14792803  0.18390750  0.80916802  1  0.117633  0  0.008991  0.120572  0  3.795985  0
C  C73  1  0.14771964  0.27496208  0.73944756  1  -0.026901  0  -0.068832  -0.079188  0  3.629893  0
C  C74  1  0.18179742  0.15606969  0.71046793  1  0.092291  0  0.009478  0.123238  0  3.79578  0
C  C75  1  0.24360156  0.20158669  0.77755129  1  -0.017922  0  -0.068783  -0.077363  0  3.629311  0
C  C76  1  0.27738516  0.08273644  0.75001692  1  -0.027349  0  -0.06835  -0.075478  0  3.627289  0
C  C77  1  0.12648312  0.20173547  0.85964278  1  -0.535386  0  -0.022474  -0.033274  0  4.073963  0
C  C78  1  0.28465831  0.10121584  0.56912710  1  1.661713  0  0.280702  0.708131  0  4.169178  0
C  C79  1  0.20523654  0.13884220  0.66007644  1  -0.530862  0  -0.023855  -0.037227  0  4.076375  0
C  C80  1  0.64585486  0.26855858  0.73412627  1  -0.032635  0  -0.068541  -0.077199  0  3.628613  0
C  C81  1  0.55962793  0.25585923  0.77215482  1  -0.050204  0  -0.07136  -0.0836  0  3.638122  0
C  C82  1  0.68350814  0.22557278  0.89957719  1  -0.429841  0  -0.04323  -0.197364  0  3.984348  0
C  C83  1  0.66288874  0.10889443  0.61758676  1  -0.081066  0  -0.043127  -0.199335  0  3.976681  0
C  C84  1  0.75271697  0.20031929  0.76832294  1  -0.021624  0  -0.069658  -0.078688  0  3.636053  0
C  C85  1  0.66613511  0.18839341  0.80764968  1  0.132248  0  0.008301  0.124311  0  3.806518  0
C  C86  1  0.77970135  0.07770576  0.74586850  1  -0.020188  0  -0.071838  -0.083149  0  3.640385  0
C  C87  1  0.67341784  0.14513916  0.71030010  1  0.107558  0  0.009272  0.123504  0  3.803186  0
C  C88  1  0.69341314  0.06507238  0.78387825  1  -0.022483  0  -0.068704  -0.077905  0  3.62793  0
C  C89  1  0.63217853  0.08960300  0.43131318  1  1.567738  0  0.272602  0.644984  0  4.090605  0
C  C90  1  0.58662287  0.13328855  0.74960391  1  -0.022585  0  -0.069182  -0.077473  0  3.631027  0
C  C91  1  0.67053867  0.20930830  0.85736975  1  0.116755  0  -0.029153  -0.045715  0  4.092664  0
C  C92  1  0.67143339  0.12452971  0.66036094  1  -0.173733  0  -0.0265  -0.040197  0  4.083503  0
C  C93  1  0.74238520  0.70984971  0.36117707  1  -0.098343  0  -0.082226  -0.150328  0  3.932459  0
C  C94  1  0.75946288  0.68153254  0.31165049  1  0.063516  0  -0.006267  0.079611  0  4.042137  0
C  C95  1  0.78844699  0.62831085  0.21039529  1  -0.047904  0  -0.005824  0.075223  0  4.025228  0
C  C96  1  0.88439233  0.62107395  0.23812397  1  -0.02647  0  -0.088869  -0.123236  0  3.998882  0
C  C97  1  0.87082966  0.64603848  0.28649267  1  -0.054282  0  -0.088481  -0.129749  0  4.003261  0
C  C98  1  0.80246893  0.59901809  0.16105910  1  0.000483  0  -0.076925  -0.134777  0  3.926751  0
C  C99  1  0.70844616  0.60199293  0.13547775  1  0.007784  0  -0.016657  -0.049766  0  4.00442  0
C  C100  1  0.60819613  0.78690370  0.43492912  1  1.509841  0  0.278816  0.651584  0  4.066669  0
C  C101  1  0.53707768  0.74994882  0.35806284  1  -0.022117  0  -0.081812  -0.143377  0  3.913968  0
C  C102  1  0.55015793  0.72399011  0.30844069  1  -3e-06  0  -0.005391  0.107083  0  4.073563  0
C  C103  1  0.66239584  0.68951976  0.28477284  1  -0.054038  0  0.000929  -0.009941  0  3.9173  0
C  C104  1  0.45371794  0.73212230  0.28131472  1  0.06889  0  -0.117697  -0.297882  0  4.006793  0
C  C105  1  0.46664396  0.70637794  0.23267289  1  0.430722  0  0.092333  0.228025  0  4.058893  0
C  C106  1  0.57972424  0.66962848  0.20758561  1  0.005275  0  -0.005162  -0.008005  0  3.9824  0
C  C107  1  0.67623772  0.66318567  0.23442680  1  0.0156  0  0.009229  0.02149  0  3.917119  0
C  C108  1  0.59757852  0.63824451  0.15853909  1  -0.010985  0  -0.072088  -0.105875  0  3.909668  0
C  C109  1  0.63171637  0.74398762  0.38411678  1  -0.023297  0  -0.019334  -0.049612  0  4.032076  0
C  C110  1  0.19005131  0.06973349  0.36503043  1  -0.081179  0  -0.07959  -0.142977  0  3.932854  0
C  C111  1  0.29648119  0.10707861  0.43223970  1  1.558198  0  0.269676  0.638802  0  4.085235  0
C  C112  1  0.14424086  0.09333649  0.31828895  1  -0.005232  0  -0.006957  0.074107  0  4.043901  0
C  C113  1  0.07243467  0.12999681  0.22004116  1  0.059358  0  -0.006752  0.075352  0  4.040529  0
C  C114  1  0.05914274  0.04412279  0.25009704  1  -0.04084  0  -0.087609  -0.123938  0  3.998018  0
C  C115  1  0.09378192  0.02638351  0.29708575  1  -0.083627  0  -0.091562  -0.136276  0  4.01246  0
C  C116  1  0.04474243  0.14418610  0.17093775  1  -0.095875  0  -0.075104  -0.135036  0  3.915255  0
C  C117  1  0.05738360  0.22982967  0.14260344  1  0.005512  0  -0.01636  -0.042746  0  4.012889  0
C  C118  1  0.23533058  0.23429107  0.35843669  1  0.053762  0  -0.075816  -0.136439  0  3.91566  0
C  C119  1  0.19359939  0.25870434  0.31112708  1  -0.018036  0  -0.006376  0.07668  0  4.039546  0
C  C120  1  0.15040736  0.18556551  0.29009188  1  -0.019595  0  0.0075  0.008868  0  3.903637  0
C  C121  1  0.19669998  0.35180200  0.28224127  1  -0.042563  0  -0.089312  -0.128793  0  4.010071  0
C  C122  1  0.76547458  0.59667029  0.73701479  1  0.005261  0  -0.06613  -0.076205  0  3.62647  0
C  C123  1  0.16705702  0.36621541  0.23467749  1  -0.039455  0  -0.087508  -0.12642  0  4.006762  0
C  C124  1  0.12697760  0.29171712  0.21209303  1  -0.030667  0  -0.004411  0.076802  0  4.029936  0
C  C125  1  0.11590868  0.20306033  0.24097562  1  -0.01681  0  0.007603  0.00634  0  3.903943  0
C  C126  1  0.09760225  0.30341512  0.16306809  1  0.009029  0  -0.074593  -0.135267  0  3.917712  0
C  C127  1  0.23722005  0.13823054  0.38460416  1  -0.03612  0  -0.017166  -0.040292  0  4.013521  0
C  C128  1  0.55801031  0.21426913  0.35791277  1  0.037306  0  -0.065576  -0.119287  0  3.907143  0
C  C129  1  0.55644996  0.23217575  0.30784258  1  -0.039415  0  -0.003515  0.07735  0  4.046218  0
C  C130  1  0.55609305  0.26646472  0.20589902  1  -0.045201  0  0.003399  0.060743  0  3.982609  0
C  C131  1  0.46562910  0.35336515  0.23702078  1  0.022741  0  -0.088423  -0.124435  0  4.007347  0
C  C132  1  0.46726778  0.33826488  0.28590294  1  -0.063851  0  -0.084218  -0.122717  0  4.008217  0
C  C133  1  0.75034690  0.69340657  0.77480522  1  0.006753  0  -0.068913  -0.079135  0  3.632249  0
C  C134  1  0.56135040  0.28714607  0.15585078  1  0.020474  0  0.008014  -0.063955  0  3.87959  0
C  C135  1  0.66076794  0.20683418  0.12826879  1  -0.031262  0  -0.005655  -0.058226  0  3.985056  0
C  C136  1  0.73211682  0.01886154  0.34947348  1  0.021498  0  -0.069711  -0.124718  0  3.903909  0
C  C137  1  0.73408396  0.03390826  0.29903142  1  0.002354  0  -0.003576  0.073701  0  4.036456  0
C  C138  1  0.64518574  0.14140004  0.27765609  1  0.017947  0  0.012495  0.01277  0  3.902634  0
C  C139  1  0.82033934  0.94373890  0.26792257  1  0.005699  0  -0.065623  -0.11783  0  3.937285  0
C  C140  1  0.82204717  0.95858643  0.21857999  1  -0.037948  0  -0.012092  -0.087488  0  3.964158  0
C  C141  1  0.73748117  0.06965063  0.19651996  1  -0.018563  0  0.002033  0.060184  0  3.995363  0
C  C142  1  0.64619470  0.15842334  0.22670627  1  -0.043721  0  0.01237  0.012508  0  3.909986  0
C  C143  1  0.74548106  0.09906356  0.14802747  1  0.062601  0  -0.071179  -0.124446  0  3.9189  0
C  C144  1  0.70286520  0.60569979  0.90279054  1  -0.05188  0  -0.043047  -0.20747  0  3.963412  0
C  C145  1  0.64446234  0.10855437  0.37859398  1  -0.042475  0  -0.014361  -0.044164  0  4.009135  0
C  C146  1  0.05381589  0.24254945  0.95133794  1  1.651813  0  0.279591  0.717183  0  4.157829  0
C  C147  1  0.72668796  0.55485402  0.95056406  1  1.651029  0  0.282536  0.72275  0  4.14888  0
C  C148  1  0.71688406  0.24529422  0.94634638  1  1.679369  0  0.274446  0.712392  0  4.164714  0
C  C149  1  0.02034657  0.24471373  0.09125320  1  1.553989  0  0.270779  0.640344  0  4.082657  0
C  C150  1  0.73102527  0.55381334  0.08534950  1  1.518474  0  0.278606  0.653542  0  4.059603  0
C  C151  1  0.69038887  0.24070294  0.08009193  1  1.588577  0  0.278533  0.637398  0  4.088581  0
C  C152  1  0.26460271  0.74888282  0.22856819  1  0.419472  0  -0.070427  0.024256  0  3.843804  0
C  C153  1  0.26232269  0.64918401  0.25958750  1  -0.029624  0  -0.171866  -0.138026  0  3.94719  0
C  C154  1  0.17443418  0.69641000  0.30260568  1  -0.064841  0  -0.246134  -0.352506  0  3.957784  0
C  C155  1  0.45756474  0.39015267  0.13278905  1  1.530406  0  0.234358  0.593695  0  4.143988  0
C  C156  1  0.91315779  0.85580780  0.18993182  1  1.507715  0  0.235862  0.571862  0  4.132111  0
O  O157  1  0.31148668  0.17739111  0.55142651  1  -1.211972  0  -0.199073  -0.528734  0  2.27352  0
O  O158  1  0.68752582  0.80134434  0.45636550  1  -1.265403  0  -0.235006  -0.597226  0  2.296844  0
O  O159  1  0.50568447  0.81425444  0.45389975  1  -1.26713  0  -0.236592  -0.603953  0  2.308655  0
O  O160  1  0.31109055  0.00930928  0.45300579  1  -1.272736  0  -0.250162  -0.617139  0  2.278965  0
O  O161  1  0.50336469  0.01033529  0.50180512  1  -1.61073  0  -0.391301  -1.267713  0  2.28982  0
O  O162  1  0.82076336  0.17215032  0.95909549  1  -1.22058  0  -0.212765  -0.560667  0  2.292175  0
O  O163  1  0.03275510  0.16441897  0.97129059  1  -1.223502  0  -0.212394  -0.570784  0  2.287336  0
O  O164  1  0.02913312  0.34493479  0.96963313  1  -1.250183  0  -0.239375  -0.596855  0  2.219037  0
O  O165  1  0.82681683  0.52860657  0.96840060  1  -1.24138  0  -0.225285  -0.58346  0  2.246545  0
O  O166  1  0.64672413  0.53408433  0.97063143  1  -1.244174  0  -0.230909  -0.592437  0  2.240656  0
O  O167  1  0.63979551  0.33750877  0.97021875  1  -1.256435  0  -0.244067  -0.608674  0  2.24428  0
O  O168  1  0.52681537  0.16611505  0.55761593  1  -1.220751  0  -0.207457  -0.554975  0  2.298551  0
O  O169  1  0.78435556  0.16595292  0.05861452  1  -1.245992  0  -0.204613  -0.539315  0  2.358524  0
O  O170  1  0.98839714  0.17238410  0.07520018  1  -1.24805  0  -0.216321  -0.565539  0  2.362441  0
O  O171  1  0.01948587  0.33265320  0.06686445  1  -1.278801  0  -0.250306  -0.618753  0  2.27595  0
O  O172  1  0.83044637  0.53137536  0.06440452  1  -1.275982  0  -0.239178  -0.606746  0  2.298087  0
O  O173  1  0.65433989  0.53052735  0.06665386  1  -1.264403  0  -0.23295  -0.594506  0  2.297884  0
O  O174  1  0.62231498  0.34864439  0.06546118  1  -1.269117  0  -0.23401  -0.594615  0  2.314243  0
O  O175  1  0.83291063  0.33136094  0.01693031  1  -1.612636  0  -0.39157  -1.269716  0  2.302648  0
O  O176  1  0.70632856  0.99988407  0.54574149  1  -1.258983  0  -0.246694  -0.611818  0  2.229237  0
O  O177  1  0.68072248  0.81413682  0.55198591  1  -1.245327  0  -0.229324  -0.591115  0  2.250154  0
O  O178  1  0.50359507  0.81372383  0.55012433  1  -1.242219  0  -0.228153  -0.586674  0  2.244711  0
O  O179  1  0.30504227  0.00183493  0.54916508  1  -1.25673  0  -0.242393  -0.605031  0  2.237445  0
O  O180  1  0.33241805  0.17597463  0.44847686  1  -1.241223  0  -0.216696  -0.570051  0  2.368196  0
O  O181  1  0.54608663  0.17146439  0.45472236  1  -1.262432  0  -0.224521  -0.58887  0  2.35334  0
O  O182  1  0.70670663  0.98753721  0.44910250  1  -1.27437  0  -0.246277  -0.606136  0  2.27668  0
O  O183  1  0.37855540  0.71291709  0.20469019  1  -1.061124  0  -0.179189  -0.196205  0  2.546702  0
O  O184  1  0.38529607  0.37809279  0.10914806  1  -1.115795  0  -0.292209  -0.480738  0  2.034778  0
O  O185  1  0.44743839  0.49776624  0.14431014  1  -1.125515  0  -0.319539  -0.471337  0  2.314303  0
O  O186  1  0.01096166  0.78331701  0.20491921  1  -1.159168  0  -0.284199  -0.5055  0  2.17311  0
O  O187  1  0.87732556  0.84695209  0.14527811  1  -1.100739  0  -0.314045  -0.454361  0  2.252236  0
O  O188  1  0.35033281  0.33835543  0.50447169  1  -1.359931  0  -0.58068  -0.996771  0  1.799083  0
O  O189  1  0.98487634  0.00289169  0.01923917  1  -1.369446  0  -0.582613  -1.001267  0  1.793262  0
