# generated using pymatgen
data_TlH8AuC22(NF5)2
_symmetry_space_group_name_H-M   'P 1'
_cell_length_a   7.70636487
_cell_length_b   11.56236610
_cell_length_c   12.85920880
_cell_angle_alpha   105.35840387
_cell_angle_beta   105.22039067
_cell_angle_gamma   89.70744737
_symmetry_Int_Tables_number   1
_chemical_formula_structural   TlH8AuC22(NF5)2
_chemical_formula_sum   'Tl2 H16 Au2 C44 N4 F20'
_cell_volume   1063.57071047
_cell_formula_units_Z   2
loop_
 _symmetry_equiv_pos_site_id
 _symmetry_equiv_pos_as_xyz
  1  'x, y, z'
loop_
 _atom_site_type_symbol
 _atom_site_label
 _atom_site_symmetry_multiplicity
 _atom_site_fract_x
 _atom_site_fract_y
 _atom_site_fract_z
 _atom_site_occupancy
 _atom_site_hle17_bader_spin_density
 _atom_site_hle17_ddec_charge
 _atom_site_hle17_ddec_spin_density
 _atom_site_hle17_ddec_sum_bond_order
 _atom_site_hle17_magmom
 _atom_site_hse06_10hf_bader_spin_density
 _atom_site_hse06_10hf_ddec_charge
 _atom_site_hse06_10hf_ddec_spin_density
 _atom_site_hse06_10hf_ddec_sum_bond_order
 _atom_site_hse06_10hf_magmom
 _atom_site_hse06_bader_spin_density
 _atom_site_hse06_ddec_charge
 _atom_site_hse06_ddec_spin_density
 _atom_site_hse06_ddec_sum_bond_order
 _atom_site_hse06_magmom
 _atom_site_pbe_bader_spin_density
 _atom_site_pbe_cm5_charge
 _atom_site_pbe_ddec_charge
 _atom_site_pbe_ddec_spin_density
 _atom_site_pbe_ddec_sum_bond_order
 _atom_site_pbe_magmom
Tl  Tl0  1  0.21362445  0.80296877  0.70843288  1  0  0.698234  0  0.901278  0  0  0.537189  0  1.23564  0  0  0.572705  0  1.206973  0  0  0.317749  0.511591  0  1.255384  0
Tl  Tl1  1  0.78637617  0.19703200  0.29156682  1  0  0.698247  0  0.901258  0  0  0.537202  0  1.235614  0  0  0.572718  0  1.206949  0  0  0.317757  0.511611  0  1.255345  0
H  H2  1  0.88647931  0.59469163  0.71143922  1  0  0.081727  0  0.941433  0  0  0.088457  0  1.010524  0  0  0.091432  0  1.007127  0  0  0.109573  0.086237  0  1.013053  0
H  H3  1  0.11352254  0.40530824  0.28855969  1  0  0.081735  0  0.941415  0  0  0.088474  0  1.010486  0  0  0.091443  0  1.007103  0  0  0.109591  0.086254  0  1.013015  0
H  H4  1  0.79850232  0.46935356  0.81847126  1  0  0.10748  0  0.991769  0  0  0.113678  0  1.059326  0  0  0.117474  0  1.056541  0  0  0.099743  0.110984  0  1.061415  0
H  H5  1  0.20149581  0.53064903  0.18152770  1  0  0.107508  0  0.991723  0  0  0.113716  0  1.059248  0  0  0.117509  0  1.056474  0  0  0.099765  0.111022  0  1.061337  0
H  H6  1  0.73320153  0.36937933  0.90827501  1  0  0.110098  0  0.960972  0  0  0.117129  0  1.027607  0  0  0.120854  0  1.024949  0  0  0.103568  0.114429  0  1.029647  0
H  H7  1  0.26680075  0.63062414  0.09172248  1  0  0.110129  0  0.960888  0  0  0.117151  0  1.027538  0  0  0.120879  0  1.024878  0  0  0.103563  0.114451  0  1.029577  0
H  H8  1  0.66587032  0.25055752  0.02781714  1  0  0.070778  0  0.954484  0  0  0.077895  0  1.023757  0  0  0.079853  0  1.022314  0  0  0.111078  0.076421  0  1.024875  0
H  H9  1  0.33413176  0.74944414  0.97217756  1  0  0.070918  0  0.954486  0  0  0.078055  0  1.023719  0  0  0.080003  0  1.022286  0  0  0.111165  0.076589  0  1.024832  0
H  H10  1  0.61236370  0.74587761  0.95550839  1  0  0.073866  0  0.96578  0  0  0.077913  0  1.038625  0  0  0.080736  0  1.035339  0  0  0.106158  0.075917  0  1.040949  0
H  H11  1  0.38763929  0.25412046  0.04449183  1  0  0.073926  0  0.965719  0  0  0.077949  0  1.0386  0  0  0.080771  0  1.035314  0  0  0.106155  0.075953  0  1.040922  0
H  H12  1  0.92746062  0.82073934  0.04384068  1  0  0.103045  0  0.970456  0  0  0.110983  0  1.035199  0  0  0.113898  0  1.034604  0  0  0.103041  0.108995  0  1.035605  0
H  H13  1  0.07254217  0.17925693  0.95615830  1  0  0.102987  0  0.970476  0  0  0.110935  0  1.035237  0  0  0.113849  0  1.034642  0  0  0.103019  0.108949  0  1.035635  0
H  H14  1  0.81709539  0.11075348  0.88533282  1  0  0.103184  0  0.967429  0  0  0.112367  0  1.03015  0  0  0.115388  0  1.029055  0  0  0.10406  0.110252  0  1.030966  0
H  H15  1  0.18290625  0.88924461  0.11466952  1  0  0.103135  0  0.967484  0  0  0.112352  0  1.030155  0  0  0.115374  0  1.029059  0  0  0.104064  0.110239  0  1.030972  0
H  H16  1  0.50272806  0.02866744  0.81198625  1  0  0.061667  0  0.957656  0  0  0.067712  0  1.027852  0  0  0.070125  0  1.025575  0  0  0.103542  0.066011  0  1.029391  0
H  H17  1  0.49727388  0.97133334  0.18801755  1  0  0.061641  0  0.957645  0  0  0.067681  0  1.02785  0  0  0.070093  0  1.025572  0  0  0.103549  0.065973  0  1.029396  0
Au  Au18  1  0.58747366  0.40424098  0.40723545  1  0  0.105096  0  2.273968  0  0  0.057476  0  2.776786  0  0  0.06392  0  2.748856  0  0  0.230228  0.053821  0  2.795836  0
Au  Au19  1  0.41252416  0.59575892  0.59276515  1  0  0.105059  0  2.274059  0  0  0.057428  0  2.776911  0  0  0.063874  0  2.748978  0  0  0.230201  0.053781  0  2.795946  0
C  C20  1  0.69693941  0.52719691  0.34820090  1  0  -0.332251  0  3.825835  0  0  -0.341567  0  4.174028  0  0  -0.351628  0  4.195543  0  0  -0.185748  -0.334747  0  4.159698  0
C  C21  1  0.30306339  0.47279936  0.65179575  1  0  -0.332248  0  3.825836  0  0  -0.341563  0  4.174063  0  0  -0.351624  0  4.195581  0  0  -0.185761  -0.334741  0  4.159729  0
C  C22  1  0.83712795  0.61113730  0.41616304  1  0  0.213784  0  3.847345  0  0  0.189633  0  4.142981  0  0  0.197751  0  4.157578  0  0  0.06687  0.183759  0  4.133536  0
C  C23  1  0.16287110  0.38886169  0.58383910  1  0  0.213685  0  3.847547  0  0  0.189521  0  4.143167  0  0  0.197637  0  4.157767  0  0  0.066803  0.183648  0  4.133721  0
C  C24  1  0.90829750  0.69971381  0.38069553  1  0  0.097436  0  3.836408  0  0  0.060789  0  4.143935  0  0  0.067439  0  4.153589  0  0  0.068327  0.056202  0  4.137883  0
C  C25  1  0.09170021  0.30028518  0.61930562  1  0  0.097427  0  3.836691  0  0  0.060808  0  4.144168  0  0  0.067455  0  4.153821  0  0  0.068284  0.056222  0  4.13811  0
C  C26  1  0.83983809  0.70474444  0.27050819  1  0  0.130021  0  3.828148  0  0  0.094548  0  4.141415  0  0  0.10249  0  4.148114  0  0  0.072666  0.088889  0  4.137291  0
C  C27  1  0.16015943  0.29525276  0.72949017  1  0  0.130155  0  3.8279  0  0  0.094692  0  4.141184  0  0  0.102634  0  4.147884  0  0  0.072786  0.089039  0  4.137053  0
C  C28  1  0.70027041  0.62219711  0.19884542  1  0  0.099195  0  3.818892  0  0  0.058744  0  4.132545  0  0  0.065648  0  4.140928  0  0  0.065086  0.053751  0  4.127661  0
C  C29  1  0.29972741  0.37780278  0.80115441  1  0  0.099256  0  3.818844  0  0  0.058711  0  4.132648  0  0  0.065615  0  4.141033  0  0  0.065085  0.05372  0  4.127761  0
C  C30  1  0.63312817  0.53617653  0.23904051  1  0  0.212642  0  3.848442  0  0  0.181694  0  4.155706  0  0  0.190678  0  4.168154  0  0  0.061707  0.174934  0  4.148096  0
C  C31  1  0.36686820  0.46382247  0.76095965  1  0  0.21261  0  3.848428  0  0  0.181662  0  4.155748  0  0  0.190645  0  4.168193  0  0  0.061707  0.1749  0  4.148139  0
C  C32  1  0.48867475  0.27620854  0.46537741  1  0  -0.348684  0  3.852817  0  0  -0.353673  0  4.194126  0  0  -0.364296  0  4.215706  0  0  -0.188022  -0.346752  0  4.179874  0
C  C33  1  0.51132421  0.72378955  0.53462373  1  0  -0.348698  0  3.852796  0  0  -0.353684  0  4.194123  0  0  -0.364301  0  4.215698  0  0  -0.188046  -0.346762  0  4.179873  0
C  C34  1  0.34385780  0.19349959  0.40314234  1  0  0.210792  0  3.857529  0  0  0.18319  0  4.157459  0  0  0.19261  0  4.169859  0  0  0.064059  0.176604  0  4.14948  0
C  C35  1  0.65614405  0.80650029  0.59685891  1  0  0.210809  0  3.857395  0  0  0.183195  0  4.157346  0  0  0.192614  0  4.169745  0  0  0.064058  0.17661  0  4.149367  0
C  C36  1  0.28270576  0.10355309  0.44158637  1  0  0.098712  0  3.820285  0  0  0.064295  0  4.127026  0  0  0.071034  0  4.134561  0  0  0.064994  0.05925  0  4.122668  0
C  C37  1  0.71729484  0.89644769  0.55841567  1  0  0.098685  0  3.820296  0  0  0.064251  0  4.127077  0  0  0.070989  0  4.134613  0  0  0.064964  0.059206  0  4.122719  0
C  C38  1  0.36716387  0.09657372  0.54959989  1  0  0.117325  0  3.850882  0  0  0.084823  0  4.161732  0  0  0.091516  0  4.172243  0  0  0.070828  0.080419  0  4.155323  0
C  C39  1  0.63283663  0.90342617  0.45040192  1  0  0.117341  0  3.85084  0  0  0.084831  0  4.161711  0  0  0.091532  0  4.172219  0  0  0.070825  0.080431  0  4.155304  0
C  C40  1  0.51085566  0.17881746  0.61586311  1  0  0.095952  0  3.814719  0  0  0.05576  0  4.1281  0  0  0.061733  0  4.137523  0  0  0.064334  0.051305  0  4.122443  0
C  C41  1  0.48914629  0.82118332  0.38413913  1  0  0.095998  0  3.814726  0  0  0.055798  0  4.128122  0  0  0.06177  0  4.137541  0  0  0.064353  0.051341  0  4.122466  0
C  C42  1  0.56804418  0.26529404  0.57252518  1  0  0.226196  0  3.854131  0  0  0.196065  0  4.158654  0  0  0.205626  0  4.170984  0  0  0.064448  0.189441  0  4.150716  0
C  C43  1  0.43195643  0.73470674  0.42747608  1  0  0.226159  0  3.854228  0  0  0.196032  0  4.158753  0  0  0.205592  0  4.171082  0  0  0.064438  0.189409  0  4.150815  0
C  C44  1  0.96747282  0.60059128  0.79635587  1  0  0.13169  0  3.718001  0  0  0.10467  0  3.969247  0  0  0.110327  0  3.989899  0  0  0.048215  0.101115  0  3.955217  0
C  C45  1  0.03253049  0.39940948  0.20364270  1  0  0.131834  0  3.717878  0  0  0.104809  0  3.969138  0  0  0.110468  0  3.989785  0  0  0.048233  0.101252  0  3.955109  0
C  C46  1  0.91863489  0.52979245  0.85754754  1  0  -0.151888  0  3.693975  0  0  -0.172975  0  3.94281  0  0  -0.180673  0  3.965106  0  0  -0.083892  -0.168173  0  3.928067  0
C  C47  1  0.08136304  0.47020834  0.14244863  1  0  -0.152012  0  3.693911  0  0  -0.173093  0  3.942764  0  0  -0.180792  0  3.965058  0  0  -0.083953  -0.168291  0  3.928022  0
C  C48  1  0.02372697  0.53754338  0.96660340  1  0  0.095689  0  3.741741  0  0  0.107995  0  3.970726  0  0  0.111458  0  3.992542  0  0  0.010388  0.105919  0  3.955633  0
C  C49  1  0.97627355  0.46245650  0.03339452  1  0  0.095689  0  3.741734  0  0  0.107972  0  3.970738  0  0  0.111437  0  3.99255  0  0  0.010396  0.105895  0  3.955646  0
C  C50  1  0.82352873  0.38091262  0.99152150  1  0  -0.153309  0  3.691059  0  0  -0.177831  0  3.949316  0  0  -0.183825  0  3.967844  0  0  -0.085382  -0.173656  0  3.936475  0
C  C51  1  0.17647056  0.61908816  0.00847332  1  0  -0.15335  0  3.691097  0  0  -0.17787  0  3.949328  0  0  -0.183866  0  3.967858  0  0  -0.085363  -0.173694  0  3.93649  0
C  C52  1  0.78429602  0.31377053  0.05856937  1  0  0.119632  0  3.752818  0  0  0.088303  0  4.012921  0  0  0.094853  0  4.031439  0  0  0.04023  0.084125  0  4.000084  0
C  C53  1  0.21570740  0.68623113  0.94142710  1  0  0.119453  0  3.753044  0  0  0.088106  0  4.01316  0  0  0.094662  0  4.031682  0  0  0.040151  0.083921  0  4.000334  0
C  C54  1  0.66068033  0.82906559  0.94452481  1  0  0.128788  0  3.729636  0  0  0.098084  0  3.99096  0  0  0.104604  0  4.008197  0  0  0.043737  0.093829  0  3.979107  0
C  C55  1  0.33932401  0.17093247  0.05547639  1  0  0.128665  0  3.729748  0  0  0.09797  0  3.991104  0  0  0.10449  0  4.008341  0  0  0.043718  0.093716  0  3.979247  0
C  C56  1  0.84011697  0.87150389  0.99353653  1  0  -0.147947  0  3.684606  0  0  -0.166268  0  3.929766  0  0  -0.173336  0  3.951968  0  0  -0.08208  -0.161528  0  3.914456  0
C  C57  1  0.15988716  0.12849238  0.00646267  1  0  -0.147803  0  3.684616  0  0  -0.166136  0  3.929788  0  0  -0.173205  0  3.951992  0  0  -0.081996  -0.161396  0  3.914474  0
C  C58  1  0.90461353  0.97599198  0.97548106  1  0  0.090048  0  3.738174  0  0  0.104452  0  3.963723  0  0  0.107132  0  3.986668  0  0  0.013525  0.102929  0  3.94779  0
C  C59  1  0.09539080  0.02400608  0.02451937  1  0  0.090139  0  3.738222  0  0  0.104567  0  3.963769  0  0  0.107249  0  3.986713  0  0  0.01358  0.103041  0  3.947837  0
C  C60  1  0.77888660  0.03181776  0.90725519  1  0  -0.148366  0  3.700592  0  0  -0.168791  0  3.949877  0  0  -0.17509  0  3.97037  0  0  -0.080702  -0.164681  0  3.936016  0
C  C61  1  0.22111773  0.96818031  0.09274757  1  0  -0.148433  0  3.700714  0  0  -0.168886  0  3.950001  0  0  -0.175184  0  3.970492  0  0  -0.080746  -0.164781  0  3.93615  0
C  C62  1  0.60080424  0.98484216  0.86443555  1  0  0.119615  0  3.762337  0  0  0.092889  0  4.016191  0  0  0.098193  0  4.036084  0  0  0.039908  0.08951  0  4.002601  0
C  C63  1  0.39919750  0.01515682  0.13556546  1  0  0.119682  0  3.762263  0  0  0.092955  0  4.016121  0  0  0.098259  0  4.036014  0  0  0.039914  0.089582  0  4.002534  0
N  N64  1  0.11392936  0.67808994  0.83723182  1  0  -0.335459  0  3.193277  0  0  -0.257825  0  3.444371  0  0  -0.27652  0  3.46612  0  0  -0.313397  -0.245057  0  3.429233  0
N  N65  1  0.88607261  0.32191083  0.16276421  1  0  -0.335583  0  3.193262  0  0  -0.25795  0  3.444335  0  0  -0.276646  0  3.466088  0  0  -0.313382  -0.24518  0  3.429193  0
N  N66  1  0.54032504  0.88471979  0.88160953  1  0  -0.345602  0  3.169053  0  0  -0.277795  0  3.427328  0  0  -0.295002  0  3.447837  0  0  -0.317619  -0.265791  0  3.413039  0
N  N67  1  0.45967660  0.11527830  0.11839281  1  0  -0.345619  0  3.169114  0  0  -0.277789  0  3.42737  0  0  -0.294998  0  3.44788  0  0  -0.317649  -0.265785  0  3.413076  0
F  F68  1  0.90944201  0.61203014  0.52589613  1  0  -0.200956  0  1.265474  0  0  -0.139728  0  1.441252  0  0  -0.150433  0  1.432984  0  0  -0.096644  -0.131917  0  1.446941  0
F  F69  1  0.09055715  0.38796975  0.47410546  1  0  -0.200934  0  1.265437  0  0  -0.139709  0  1.441222  0  0  -0.150414  0  1.432954  0  0  -0.096625  -0.131899  0  1.44691  0
F  F70  1  0.03827753  0.78363368  0.45184066  1  0  -0.166024  0  1.295174  0  0  -0.112006  0  1.473029  0  0  -0.121777  0  1.46413  0  0  -0.08548  -0.105638  0  1.479688  0
F  F71  1  0.96172019  0.21636532  0.54815894  1  0  -0.166042  0  1.295277  0  0  -0.112017  0  1.473111  0  0  -0.121779  0  1.464207  0  0  -0.085458  -0.10565  0  1.479768  0
F  F72  1  0.90628734  0.78994896  0.23379420  1  0  -0.151762  0  1.227941  0  0  -0.101993  0  1.387349  0  0  -0.110201  0  1.378019  0  0  -0.087464  -0.096849  0  1.394212  0
F  F73  1  0.09370405  0.21005367  0.76620836  1  0  -0.151798  0  1.227807  0  0  -0.102  0  1.387185  0  0  -0.110216  0  1.377865  0  0  -0.087491  -0.096872  0  1.394064  0
F  F74  1  0.63212440  0.62787271  0.09165756  1  0  -0.158411  0  1.256516  0  0  -0.107096  0  1.42556  0  0  -0.114632  0  1.416007  0  0  -0.087215  -0.101684  0  1.432211  0
F  F75  1  0.36786690  0.37212900  0.90834244  1  0  -0.158412  0  1.256483  0  0  -0.107088  0  1.425581  0  0  -0.114622  0  1.416029  0  0  -0.087228  -0.101675  0  1.432232  0
F  F76  1  0.49564960  0.45793354  0.16419725  1  0  -0.193655  0  1.249682  0  0  -0.138994  0  1.422461  0  0  -0.148262  0  1.413746  0  0  -0.097357  -0.132306  0  1.428536  0
F  F77  1  0.50434564  0.54206726  0.83580160  1  0  -0.193683  0  1.2497  0  0  -0.138992  0  1.42247  0  0  -0.14826  0  1.413753  0  0  -0.09736  -0.132304  0  1.428545  0
F  F78  1  0.24888819  0.19954001  0.29881304  1  0  -0.195764  0  1.267527  0  0  -0.140206  0  1.439853  0  0  -0.150791  0  1.433996  0  0  -0.095606  -0.132444  0  1.443772  0
F  F79  1  0.75111375  0.80046077  0.70118999  1  0  -0.195803  0  1.26746  0  0  -0.140216  0  1.43977  0  0  -0.150803  0  1.433912  0  0  -0.095599  -0.132454  0  1.443688  0
F  F80  1  0.14106185  0.02490399  0.37708529  1  0  -0.157008  0  1.243763  0  0  -0.116833  0  1.4173  0  0  -0.123701  0  1.406523  0  0  -0.092713  -0.111526  0  1.424537  0
F  F81  1  0.85893751  0.97509770  0.62291676  1  0  -0.156968  0  1.243758  0  0  -0.116787  0  1.417304  0  0  -0.123654  0  1.406527  0  0  -0.092676  -0.111477  0  1.424539  0
F  F82  1  0.30791481  0.01286526  0.59098431  1  0  -0.163683  0  1.266596  0  0  -0.111598  0  1.440125  0  0  -0.121373  0  1.432778  0  0  -0.08249  -0.104536  0  1.445136  0
F  F83  1  0.69208455  0.98713643  0.40901697  1  0  -0.163702  0  1.266545  0  0  -0.111607  0  1.440075  0  0  -0.121389  0  1.432732  0  0  -0.082497  -0.10455  0  1.445087  0
F  F84  1  0.59011678  0.17480717  0.72274728  1  0  -0.162618  0  1.243139  0  0  -0.10742  0  1.407219  0  0  -0.114835  0  1.397289  0  0  -0.088683  -0.101937  0  1.414143  0
F  F85  1  0.40988507  0.82519271  0.27725474  1  0  -0.162618  0  1.243184  0  0  -0.107403  0  1.407253  0  0  -0.114819  0  1.397323  0  0  -0.088662  -0.101918  0  1.414177  0
F  F86  1  0.70699497  0.34451173  0.64305781  1  0  -0.189265  0  1.263352  0  0  -0.134107  0  1.438011  0  0  -0.143069  0  1.42796  0  0  -0.097614  -0.127394  0  1.444803  0
F  F87  1  0.29300697  0.65548905  0.35694521  1  0  -0.189205  0  1.263423  0  0  -0.134061  0  1.438091  0  0  -0.143022  0  1.428039  0  0  -0.097584  -0.127347  0  1.444882  0
