# generated using pymatgen
data_AgH4C6NO2
_symmetry_space_group_name_H-M   'P 1'
_cell_length_a   7.14700506
_cell_length_b   19.80836282
_cell_length_c   19.80838490
_cell_angle_alpha   74.35683185
_cell_angle_beta   79.59734984
_cell_angle_gamma   79.59728610
_symmetry_Int_Tables_number   1
_chemical_formula_structural   AgH4C6NO2
_chemical_formula_sum   'Ag16 H64 C96 N16 O32'
_cell_volume   2630.15179484
_cell_formula_units_Z   16
loop_
 _symmetry_equiv_pos_site_id
 _symmetry_equiv_pos_as_xyz
  1  'x, y, z'
loop_
 _atom_site_type_symbol
 _atom_site_label
 _atom_site_symmetry_multiplicity
 _atom_site_fract_x
 _atom_site_fract_y
 _atom_site_fract_z
 _atom_site_occupancy
 _atom_site_pbe_bader_charge
 _atom_site_pbe_bader_spin_density
 _atom_site_pbe_cm5_charge
 _atom_site_pbe_ddec_charge
 _atom_site_pbe_ddec_spin_density
 _atom_site_pbe_ddec_sum_bond_order
 _atom_site_pbe_magmom
Ag  Ag0  1  0.51442027  0.52206279  0.05929259  1  0.582971  0  0.405395  0.372452  0  2.118099  0
Ag  Ag1  1  0.90443480  0.55932002  0.02205957  1  0.581097  0  0.40497  0.372098  0  2.118388  0
Ag  Ag2  1  0.98558173  0.94070721  0.47793771  1  0.582995  0  0.405366  0.37238  0  2.118126  0
Ag  Ag3  1  0.59556730  0.97794064  0.44068037  1  0.581127  0  0.404988  0.372118  0  2.118356  0
Ag  Ag4  1  0.48558514  0.47793617  0.94070708  1  0.583134  0  0.40539  0.372422  0  2.118181  0
Ag  Ag5  1  0.09556516  0.44068211  0.97794061  1  0.580916  0  0.404992  0.372105  0  2.11836  0
Ag  Ag6  1  0.01441760  0.05929281  0.52206359  1  0.583071  0  0.405389  0.37244  0  2.118175  0
Ag  Ag7  1  0.40443629  0.02205937  0.55931863  1  0.580925  0  0.404997  0.372122  0  2.118363  0
Ag  Ag8  1  0.96583426  0.04202990  0.93216134  1  0.590009  0  0.401333  0.382257  0  2.000288  0
Ag  Ag9  1  0.05992514  0.43222961  0.54205613  1  0.592135  0  0.401309  0.382301  0  1.999519  0
Ag  Ag10  1  0.53416427  0.06783786  0.95797128  1  0.594969  0  0.401323  0.382283  0  2.000251  0
Ag  Ag11  1  0.44007162  0.45794361  0.56777012  1  0.591154  0  0.401334  0.382345  0  1.9995  0
Ag  Ag12  1  0.03416588  0.95797170  0.06783645  1  0.589654  0  0.401309  0.382244  0  2.000295  0
Ag  Ag13  1  0.94007418  0.56777041  0.45794315  1  0.592201  0  0.401324  0.382305  0  1.999529  0
Ag  Ag14  1  0.46583607  0.93216321  0.04202765  1  0.59459  0  0.401324  0.382275  0  2.000247  0
Ag  Ag15  1  0.55992912  0.54205640  0.43222907  1  0.591198  0  0.401329  0.382322  0  1.99956  0
H  H16  1  0.73036905  0.45459112  0.19256987  1  0.152459  0  0.123393  0.10955  0  0.993844  0
H  H17  1  0.62276043  0.69270923  0.95441982  1  0.147146  0  0.12376  0.110143  0  0.993716  0
H  H18  1  0.76962759  0.80742956  0.54540994  1  0.152438  0  0.123392  0.109514  0  0.993888  0
H  H19  1  0.87723723  0.04557932  0.30729078  1  0.147187  0  0.123764  0.110161  0  0.993741  0
H  H20  1  0.26963149  0.54540942  0.80742869  1  0.152455  0  0.123411  0.109558  0  0.993869  0
H  H21  1  0.37723262  0.30729238  0.04558247  1  0.147083  0  0.123715  0.110079  0  0.993742  0
H  H22  1  0.23036991  0.19257152  0.45459019  1  0.152453  0  0.123405  0.109568  0  0.993825  0
H  H23  1  0.12276898  0.95441752  0.69270842  1  0.147087  0  0.123747  0.110147  0  0.993738  0
H  H24  1  0.75100454  0.46671018  0.31583893  1  0.156426  0  0.118929  0.10166  0  1.032407  0
H  H25  1  0.46626171  0.81591202  0.96675303  1  0.161438  0  0.119259  0.102036  0  1.033425  0
H  H26  1  0.74899617  0.68416193  0.53328938  1  0.156443  0  0.118925  0.101633  0  1.032464  0
H  H27  1  0.03373577  0.03324707  0.18408855  1  0.161424  0  0.119244  0.102016  0  1.033422  0
H  H28  1  0.24899906  0.53328983  0.68416158  1  0.156396  0  0.118939  0.101687  0  1.032514  0
H  H29  1  0.53373581  0.18408907  0.03324961  1  0.161347  0  0.119256  0.102044  0  1.033381  0
H  H30  1  0.25100173  0.31583809  0.46671050  1  0.156455  0  0.118949  0.101701  0  1.032513  0
H  H31  1  0.96626577  0.96675083  0.81591066  1  0.161366  0  0.119265  0.102072  0  1.0334  0
H  H32  1  0.35277893  0.64829442  0.28484818  1  0.092832  0  0.117759  0.088052  0  0.997238  0
H  H33  1  0.71460363  0.78484615  0.14817284  1  0.092452  0  0.11755  0.088047  0  0.995884  0
H  H34  1  0.14721704  0.71515298  0.35170533  1  0.093019  0  0.117745  0.088035  0  0.997209  0
H  H35  1  0.78539358  0.85182710  0.21515325  1  0.092247  0  0.117579  0.088152  0  0.995907  0
H  H36  1  0.64721897  0.35170559  0.71515170  1  0.093099  0  0.117748  0.088041  0  0.997265  0
H  H37  1  0.28539916  0.21515598  0.85182714  1  0.092513  0  0.117577  0.088106  0  0.995905  0
H  H38  1  0.85277762  0.28484809  0.64829397  1  0.092936  0  0.117757  0.088048  0  0.997243  0
H  H39  1  0.21460186  0.14817186  0.78484607  1  0.092317  0  0.117582  0.088111  0  0.995885  0
H  H40  1  0.33530184  0.63717932  0.16171730  1  0.112631  0  0.125504  0.106668  0  0.963507  0
H  H41  1  0.86616899  0.66172427  0.13697661  1  0.11853  0  0.124783  0.105796  0  0.961637  0
H  H42  1  0.16469038  0.83828368  0.36282139  1  0.112388  0  0.125491  0.106623  0  0.963457  0
H  H43  1  0.63382610  0.86302369  0.33827492  1  0.118495  0  0.124788  0.105844  0  0.961665  0
H  H44  1  0.66469689  0.36282228  0.83828210  1  0.112648  0  0.125491  0.106635  0  0.963446  0
H  H45  1  0.13382852  0.33827681  0.86302453  1  0.118221  0  0.124798  0.105862  0  0.961676  0
H  H46  1  0.83530427  0.16171739  0.63717740  1  0.112649  0  0.125497  0.106631  0  0.963447  0
H  H47  1  0.36617220  0.13697527  0.66172472  1  0.118536  0  0.124771  0.105811  0  0.961678  0
H  H48  1  0.10482758  0.66658206  0.83322405  1  0.103204  0  0.103579  0.107329  0  1.012505  0
H  H49  1  0.39619595  0.33329737  0.16635466  1  0.126071  0  0.103344  0.107269  0  1.012356  0
H  H50  1  0.39517633  0.16677839  0.33341697  1  0.102983  0  0.103594  0.107384  0  1.012523  0
H  H51  1  0.10380837  0.83364395  0.66670214  1  0.126115  0  0.103345  0.107261  0  1.012411  0
H  H52  1  0.89518496  0.33341691  0.16677818  1  0.102599  0  0.103574  0.107378  0  1.012389  0
H  H53  1  0.60380075  0.66670582  0.83364292  1  0.125891  0  0.103339  0.107233  0  1.012408  0
H  H54  1  0.60481893  0.83322110  0.66658373  1  0.102596  0  0.103567  0.107348  0  1.012444  0
H  H55  1  0.89619584  0.16635817  0.33329372  1  0.125823  0  0.10336  0.107281  0  1.012376  0
H  H56  1  0.88710430  0.77941664  0.79131046  1  0.062477  0  0.097139  0.095385  0  1.033522  0
H  H57  1  0.54309551  0.29129672  0.27915190  1  0.067021  0  0.097073  0.095478  0  1.032651  0
H  H58  1  0.61290007  0.20869099  0.22058123  1  0.062456  0  0.097167  0.09543  0  1.033439  0
H  H59  1  0.95690879  0.72084837  0.70870168  1  0.067079  0  0.097069  0.095431  0  1.032652  0
H  H60  1  0.11290843  0.22058179  0.20868938  1  0.062424  0  0.097127  0.095396  0  1.033502  0
H  H61  1  0.45690361  0.70870382  0.72084675  1  0.066981  0  0.097059  0.095487  0  1.032637  0
H  H62  1  0.38709154  0.79131062  0.77941863  1  0.062431  0  0.097133  0.095399  0  1.033479  0
H  H63  1  0.04309238  0.27915428  0.29129625  1  0.067001  0  0.097091  0.095515  0  1.032606  0
H  H64  1  0.83079745  0.87290080  0.85680651  1  0.087327  0  0.09931  0.099508  0  1.053183  0
H  H65  1  0.44004217  0.35660145  0.37277317  1  0.119051  0  0.100281  0.101042  0  1.053625  0
H  H66  1  0.66920437  0.14319342  0.12709729  1  0.087331  0  0.099323  0.099482  0  1.053139  0
H  H67  1  0.05995835  0.62722725  0.64339644  1  0.119117  0  0.100248  0.10106  0  1.053608  0
H  H68  1  0.16920675  0.12709763  0.14319440  1  0.087278  0  0.099317  0.099514  0  1.053165  0
H  H69  1  0.55996020  0.64339804  0.62722808  1  0.119052  0  0.100269  0.101056  0  1.053641  0
H  H70  1  0.33079292  0.85680818  0.87290119  1  0.087307  0  0.099331  0.099547  0  1.053147  0
H  H71  1  0.94003832  0.37277224  0.35660317  1  0.119108  0  0.100272  0.101037  0  1.053686  0
H  H72  1  0.18570487  0.74130171  0.00897021  1  0.099966  0  0.101943  0.106712  0  1.030235  0
H  H73  1  0.06411066  0.50879717  0.24135544  1  0.118022  0  0.102082  0.10731  0  1.029893  0
H  H74  1  0.31429114  0.99103168  0.25869959  1  0.10002  0  0.101956  0.106737  0  1.030239  0
H  H75  1  0.43589212  0.75864395  0.49120133  1  0.118376  0  0.102056  0.107267  0  1.029887  0
H  H76  1  0.81429080  0.25869673  0.99103379  1  0.100053  0  0.101965  0.10674  0  1.030259  0
H  H77  1  0.93588929  0.49120497  0.75864423  1  0.118056  0  0.102092  0.107337  0  1.02993  0
H  H78  1  0.68571163  0.00896675  0.74130142  1  0.100051  0  0.101974  0.106752  0  1.030211  0
H  H79  1  0.56411166  0.24135553  0.50879679  1  0.11803  0  0.102104  0.107314  0  1.029883  0
C  C80  1  0.64835129  0.49842903  0.21317361  1  0.531027  0  0.061524  0.066845  0  3.886543  0
C  C81  1  0.64031066  0.71328917  0.99826336  1  0.527203  0  0.061644  0.067833  0  3.884451  0
C  C82  1  0.85164549  0.78682811  0.50157141  1  0.531077  0  0.061594  0.066985  0  3.886442  0
C  C83  1  0.85968450  0.00173547  0.28671088  1  0.52711  0  0.061633  0.067816  0  3.884635  0
C  C84  1  0.35164765  0.50157205  0.78682793  1  0.531034  0  0.061555  0.066915  0  3.88642  0
C  C85  1  0.35968562  0.28671138  0.00173800  1  0.527118  0  0.061651  0.067931  0  3.884562  0
C  C86  1  0.14835363  0.21317244  0.49842825  1  0.531036  0  0.061593  0.066943  0  3.886372  0
C  C87  1  0.14031561  0.99826243  0.71328742  1  0.52712  0  0.061689  0.06794  0  3.884443  0
C  C88  1  0.66012004  0.50509995  0.28060290  1  0.473256  0  0.057484  0.059761  0  3.87431  0
C  C89  1  0.55429483  0.78068530  0.00503908  1  0.474662  0  0.057046  0.059365  0  3.877283  0
C  C90  1  0.83987578  0.71939685  0.49489937  1  0.473232  0  0.057504  0.059788  0  3.874215  0
C  C91  1  0.94570357  0.99496049  0.21931466  1  0.474385  0  0.057069  0.059367  0  3.877335  0
C  C92  1  0.33987907  0.49490059  0.71939473  1  0.473325  0  0.057454  0.059698  0  3.874185  0
C  C93  1  0.44569841  0.21931578  0.99496334  1  0.47458  0  0.05707  0.059323  0  3.877333  0
C  C94  1  0.16012152  0.28060475  0.50510012  1  0.473262  0  0.057436  0.059656  0  3.874288  0
C  C95  1  0.05430140  0.00503581  0.78068375  1  0.474564  0  0.056975  0.059154  0  3.877024  0
C  C96  1  0.43977777  0.60532473  0.26390884  1  0.46922  0  0.050515  0.039573  0  3.968613  0
C  C97  1  0.69140142  0.76392501  0.10521241  1  0.470749  0  0.050411  0.039087  0  3.968079  0
C  C98  1  0.06022054  0.73609171  0.39467572  1  0.469231  0  0.050495  0.039482  0  3.96876  0
C  C99  1  0.80859492  0.89478660  0.23607447  1  0.470838  0  0.050404  0.038981  0  3.968116  0
C  C100  1  0.56022257  0.39467634  0.73608908  1  0.469156  0  0.050621  0.039676  0  3.968537  0
C  C101  1  0.30859893  0.23607607  0.89478803  1  0.470907  0  0.050368  0.038991  0  3.968114  0
C  C102  1  0.93977657  0.26391042  0.60532363  1  0.469156  0  0.050567  0.039628  0  3.968592  0
C  C103  1  0.19140236  0.10521130  0.76392603  1  0.470896  0  0.050399  0.03901  0  3.968165  0
C  C104  1  0.42909431  0.59911634  0.19632312  1  0.514597  0  0.052519  0.03583  0  3.946499  0
C  C105  1  0.77584225  0.69636558  0.09893256  1  0.514579  0  0.05391  0.039997  0  3.944786  0
C  C106  1  0.07089902  0.80367822  0.40088404  1  0.514879  0  0.052571  0.035975  0  3.946426  0
C  C107  1  0.72416214  0.90106454  0.30363496  1  0.515523  0  0.053861  0.039877  0  3.944944  0
C  C108  1  0.57090462  0.40088474  0.80367741  1  0.514644  0  0.052482  0.035814  0  3.946297  0
C  C109  1  0.22415668  0.30363550  0.90106848  1  0.514899  0  0.053877  0.03991  0  3.944767  0
C  C110  1  0.92909745  0.19632179  0.59911543  1  0.51465  0  0.05249  0.035829  0  3.946304  0
C  C111  1  0.27584447  0.09893124  0.69636601  1  0.514607  0  0.053855  0.039891  0  3.944885  0
C  C112  1  0.28027752  0.62805709  0.95074686  1  1.551115  0  0.193128  0.538662  0  4.240579  0
C  C113  1  0.14111125  0.45068539  0.12802703  1  1.578494  0  0.193255  0.539942  0  4.242952  0
C  C114  1  0.21971950  0.04925488  0.37194244  1  1.551833  0  0.193205  0.538796  0  4.240631  0
C  C115  1  0.35888768  0.87197386  0.54931286  1  1.578484  0  0.193377  0.540087  0  4.242769  0
C  C116  1  0.71972507  0.37194188  0.04925653  1  1.552302  0  0.193232  0.53884  0  4.240658  0
C  C117  1  0.85888827  0.54931409  0.87197289  1  1.578617  0  0.19331  0.54003  0  4.24296  0
C  C118  1  0.78027999  0.95074090  0.62805798  1  1.552298  0  0.193199  0.538752  0  4.240725  0
C  C119  1  0.64111105  0.12802774  0.45068653  1  1.578415  0  0.193292  0.540021  0  4.242999  0
C  C120  1  0.15826219  0.69706796  0.92350790  1  -0.002177  0  -0.021281  -0.039467  0  3.970229  0
C  C121  1  0.22159837  0.42345784  0.19698956  1  -0.026062  0  -0.021549  -0.039417  0  3.96949  0
C  C122  1  0.34173560  0.07649212  0.30293139  1  -0.00217  0  -0.021262  -0.039384  0  3.970147  0
C  C123  1  0.27840511  0.80301032  0.57654101  1  -0.026088  0  -0.021652  -0.039673  0  3.96948  0
C  C124  1  0.84173469  0.30293100  0.07649385  1  -0.002048  0  -0.021236  -0.039409  0  3.970142  0
C  C125  1  0.77840158  0.57654429  0.80301011  1  -0.025959  0  -0.021581  -0.039562  0  3.969489  0
C  C126  1  0.65826554  0.92350684  0.69706907  1  -0.002042  0  -0.021244  -0.039361  0  3.970123  0
C  C127  1  0.72159665  0.19699074  0.42345530  1  -0.02596  0  -0.021605  -0.039641  0  3.969714  0
C  C128  1  0.07578397  0.70813758  0.86160959  1  -0.069169  0  -0.078476  -0.067731  0  3.945177  0
C  C129  1  0.35520024  0.36161282  0.20796993  1  -0.049683  0  -0.078568  -0.069192  0  3.945412  0
C  C130  1  0.42421490  0.13839192  0.29186182  1  -0.069019  0  -0.078461  -0.067767  0  3.945087  0
C  C131  1  0.14480284  0.79203008  0.63838613  1  -0.049706  0  -0.078508  -0.069097  0  3.945458  0
C  C132  1  0.92421311  0.29186085  0.13839179  1  -0.068672  0  -0.078466  -0.06773  0  3.945072  0
C  C133  1  0.64479869  0.63838825  0.79202960  1  -0.050075  0  -0.078535  -0.069041  0  3.945507  0
C  C134  1  0.57578787  0.86160652  0.70813969  1  -0.068665  0  -0.078457  -0.067738  0  3.945063  0
C  C135  1  0.85519892  0.20797098  0.36161119  1  -0.049822  0  -0.078514  -0.069061  0  3.945392  0
C  C136  1  0.95628313  0.77099108  0.83816383  1  -0.058569  0  -0.095039  -0.095896  0  4.008809  0
C  C137  1  0.43532671  0.33811649  0.27080208  1  -0.100898  0  -0.094823  -0.094349  0  4.008119  0
C  C138  1  0.54371647  0.16183504  0.22900704  1  -0.058449  0  -0.095108  -0.096053  0  4.008883  0
C  C139  1  0.06467541  0.72919892  0.66188227  1  -0.100905  0  -0.094798  -0.094243  0  4.007937  0
C  C140  1  0.04371538  0.22900735  0.16183796  1  -0.058565  0  -0.095023  -0.095969  0  4.008792  0
C  C141  1  0.56466898  0.66188565  0.72919888  1  -0.100249  0  -0.094821  -0.09437  0  4.008105  0
C  C142  1  0.45628364  0.83816285  0.77099277  1  -0.058583  0  -0.095056  -0.095975  0  4.008887  0
C  C143  1  0.93532615  0.27080267  0.33811441  1  -0.100601  0  -0.09488  -0.094431  0  4.008091  0
C  C144  1  0.92354006  0.82376311  0.87488664  1  -0.030377  0  -0.082289  -0.084139  0  3.95518  0
C  C145  1  0.37835579  0.37473394  0.32364571  1  -0.044109  0  -0.08324  -0.087037  0  3.957819  0
C  C146  1  0.57646118  0.12511353  0.17623676  1  -0.030412  0  -0.082268  -0.08399  0  3.955139  0
C  C147  1  0.12164775  0.67635460  0.62526431  1  -0.044253  0  -0.083181  -0.087034  0  3.95777  0
C  C148  1  0.07646311  0.17623426  0.12511463  1  -0.030403  0  -0.08234  -0.084159  0  3.955231  0
C  C149  1  0.62164069  0.62526608  0.67635376  1  -0.043841  0  -0.083254  -0.087142  0  3.957838  0
C  C150  1  0.42353712  0.87488543  0.82376489  1  -0.030413  0  -0.082333  -0.084173  0  3.955203  0
C  C151  1  0.87835401  0.32364647  0.37473352  1  -0.044102  0  -0.083236  -0.087021  0  3.957908  0
C  C152  1  0.00860573  0.81417434  0.93594036  1  -0.03183  0  -0.023712  -0.042748  0  3.975429  0
C  C153  1  0.24167605  0.43577660  0.31412824  1  -0.019243  0  -0.022729  -0.040041  0  3.975286  0
C  C154  1  0.49139072  0.06405961  0.18582597  1  -0.031802  0  -0.023727  -0.042816  0  3.975492  0
C  C155  1  0.25832528  0.68587354  0.56422191  1  -0.019208  0  -0.022791  -0.040141  0  3.975418  0
C  C156  1  0.99139115  0.18582463  0.06406240  1  -0.031814  0  -0.023732  -0.042789  0  3.975544  0
C  C157  1  0.75832572  0.56422447  0.68587211  1  -0.019697  0  -0.022699  -0.039949  0  3.975255  0
C  C158  1  0.50861062  0.93593881  0.81417361  1  -0.031783  0  -0.023715  -0.04278  0  3.975507  0
C  C159  1  0.74167201  0.31412805  0.43577606  1  -0.019235  0  -0.022734  -0.040105  0  3.975405  0
C  C160  1  0.12279771  0.75008009  0.96069078  1  -0.057952  0  -0.081218  -0.111865  0  3.944193  0
C  C161  1  0.16669791  0.46055823  0.25006821  1  -0.069852  0  -0.081785  -0.113615  0  3.945319  0
C  C162  1  0.37719990  0.03931084  0.24992017  1  -0.058058  0  -0.081236  -0.11192  0  3.944424  0
C  C163  1  0.33330529  0.74993071  0.53944079  1  -0.070185  0  -0.081776  -0.113513  0  3.945247  0
C  C164  1  0.87719835  0.24991729  0.03931297  1  -0.058026  0  -0.081234  -0.111882  0  3.944365  0
C  C165  1  0.83330346  0.53944390  0.74992935  1  -0.069874  0  -0.081833  -0.113693  0  3.945459  0
C  C166  1  0.62280306  0.96068706  0.75008096  1  -0.058074  0  -0.081249  -0.111928  0  3.944378  0
C  C167  1  0.66669687  0.25006930  0.46055679  1  -0.069914  0  -0.0818  -0.113519  0  3.945401  0
C  C168  1  0.98491117  0.87436008  0.97093310  1  1.569759  0  0.197457  0.559952  0  4.206754  0
C  C169  1  0.17011251  0.47069066  0.37438497  1  1.545342  0  0.197752  0.559287  0  4.208428  0
C  C170  1  0.51508514  0.02906591  0.12564092  1  1.569565  0  0.197457  0.55995  0  4.206821  0
C  C171  1  0.32988820  0.62561460  0.52930845  1  1.545316  0  0.197777  0.559347  0  4.208522  0
C  C172  1  0.01509263  0.12563940  0.02906705  1  1.569559  0  0.197473  0.559947  0  4.206818  0
C  C173  1  0.82988926  0.52931041  0.62561387  1  1.545358  0  0.197737  0.559242  0  4.208489  0
C  C174  1  0.48491458  0.97093304  0.87435862  1  1.569767  0  0.19754  0.56009  0  4.206678  0
C  C175  1  0.67011113  0.37438541  0.47069184  1  1.545322  0  0.197795  0.559344  0  4.208583  0
N  N176  1  0.53331978  0.54543577  0.17099937  1  -1.180529  0  -0.307013  -0.174299  0  3.487405  0
N  N177  1  0.75055151  0.67108677  0.04524210  1  -1.194009  0  -0.307434  -0.177502  0  3.487963  0
N  N178  1  0.96667433  0.82900128  0.45456479  1  -1.180621  0  -0.307082  -0.174386  0  3.487435  0
N  N179  1  0.74944579  0.95475713  0.32891271  1  -1.194914  0  -0.307399  -0.1774  0  3.488112  0
N  N180  1  0.46667914  0.45456531  0.82899965  1  -1.180604  0  -0.307045  -0.174292  0  3.487427  0
N  N181  1  0.24944438  0.32891484  0.95476000  1  -1.194014  0  -0.307367  -0.177497  0  3.487915  0
N  N182  1  0.03332337  0.17099926  0.54543446  1  -1.180613  0  -0.307052  -0.174275  0  3.487329  0
N  N183  1  0.25055737  0.04524023  0.67108604  1  -1.194015  0  -0.307388  -0.177474  0  3.488084  0
N  N184  1  0.55582596  0.55850501  0.30623410  1  -1.197901  0  -0.307457  -0.17919  0  3.461495  0
N  N185  1  0.57964030  0.80625831  0.05846082  1  -1.188263  0  -0.307525  -0.180208  0  3.464239  0
N  N186  1  0.94417387  0.69376666  0.44149315  1  -1.197915  0  -0.307483  -0.179209  0  3.461573  0
N  N187  1  0.92035802  0.94153870  0.19374087  1  -1.187998  0  -0.307548  -0.180232  0  3.464222  0
N  N188  1  0.44417641  0.44149448  0.69376563  1  -1.197976  0  -0.307495  -0.17927  0  3.46158  0
N  N189  1  0.42036006  0.19374278  0.94154113  1  -1.188189  0  -0.307555  -0.180178  0  3.464179  0
N  N190  1  0.05582220  0.30623441  0.55850605  1  -1.19797  0  -0.307489  -0.179264  0  3.461627  0
N  N191  1  0.07964086  0.05845867  0.80625765  1  -1.188176  0  -0.307512  -0.180082  0  3.464064  0
O  O192  1  0.33792780  0.61980203  0.01008486  1  -1.125787  0  -0.327897  -0.507817  0  2.37632  0
O  O193  1  0.03251589  0.51006754  0.11979771  1  -1.138202  0  -0.327924  -0.50881  0  2.378135  0
O  O194  1  0.16206723  0.98991981  0.38019796  1  -1.126382  0  -0.327914  -0.507848  0  2.376577  0
O  O195  1  0.46748340  0.88020269  0.48993295  1  -1.138152  0  -0.327942  -0.508818  0  2.378245  0
O  O196  1  0.66207175  0.38019748  0.98992061  1  -1.126879  0  -0.327931  -0.507905  0  2.376698  0
O  O197  1  0.96748611  0.48993671  0.88020125  1  -1.138303  0  -0.327859  -0.508755  0  2.378346  0
O  O198  1  0.83793268  0.01007862  0.61980122  1  -1.126826  0  -0.327888  -0.50784  0  2.376634  0
O  O199  1  0.53251390  0.11979891  0.51006401  1  -1.138137  0  -0.327855  -0.508774  0  2.37836  0
O  O200  1  0.31468957  0.58401298  0.91206381  1  -1.134265  0  -0.323218  -0.522721  0  2.423383  0
O  O201  1  0.18915890  0.41196612  0.08401638  1  -1.139242  0  -0.322608  -0.52184  0  2.421931  0
O  O202  1  0.18530856  0.08793950  0.41598686  1  -1.134307  0  -0.323306  -0.522855  0  2.423323  0
O  O203  1  0.31084227  0.91598399  0.58803419  1  -1.139285  0  -0.322665  -0.521888  0  2.421798  0
O  O204  1  0.68532135  0.41598651  0.08793940  1  -1.134312  0  -0.323319  -0.522828  0  2.423245  0
O  O205  1  0.81084086  0.58803655  0.91598417  1  -1.139278  0  -0.322716  -0.521935  0  2.421811  0
O  O206  1  0.81468830  0.91205576  0.58401692  1  -1.134393  0  -0.323292  -0.522769  0  2.423286  0
O  O207  1  0.68915847  0.08401602  0.41196449  1  -1.139234  0  -0.3227  -0.521907  0  2.421808  0
O  O208  1  0.04454435  0.86178635  0.03058912  1  -1.118857  0  -0.332499  -0.512525  0  2.325313  0
O  O209  1  0.06360165  0.53040118  0.36185103  1  -1.129417  0  -0.332608  -0.512122  0  2.325976  0
O  O210  1  0.45546013  0.96941205  0.13821329  1  -1.118866  0  -0.33249  -0.512464  0  2.325439  0
O  O211  1  0.43639843  0.63814852  0.46959763  1  -1.129407  0  -0.332634  -0.512165  0  2.326076  0
O  O212  1  0.95545802  0.13821314  0.96941262  1  -1.118832  0  -0.332505  -0.512507  0  2.325368  0
O  O213  1  0.93639748  0.46959937  0.63814964  1  -1.129391  0  -0.332591  -0.512111  0  2.325943  0
O  O214  1  0.54454733  0.03058902  0.86178467  1  -1.118926  0  -0.332515  -0.512575  0  2.325263  0
O  O215  1  0.56360006  0.36184991  0.53040214  1  -1.129425  0  -0.332635  -0.512168  0  2.326093  0
O  O216  1  0.90895654  0.93395280  0.93626821  1  -1.143203  0  -0.326845  -0.531953  0  2.423128  0
O  O217  1  0.22078697  0.43591376  0.43400277  1  -1.135454  0  -0.327571  -0.532713  0  2.425177  0
O  O218  1  0.59104426  0.06373275  0.06604646  1  -1.143004  0  -0.326861  -0.532009  0  2.423107  0
O  O219  1  0.27921329  0.56599783  0.56408380  1  -1.135443  0  -0.327574  -0.532732  0  2.425273  0
O  O220  1  0.09104460  0.06604616  0.06373276  1  -1.143026  0  -0.326842  -0.531934  0  2.423177  0
O  O221  1  0.77921215  0.56408679  0.56599739  1  -1.135476  0  -0.327561  -0.532671  0  2.425241  0
O  O222  1  0.40895691  0.93626991  0.93395248  1  -1.143159  0  -0.326914  -0.532044  0  2.423163  0
O  O223  1  0.72078991  0.43400325  0.43591746  1  -1.135452  0  -0.3276  -0.532751  0  2.425285  0
