# generated using pymatgen
data_NaH11C9O7
_symmetry_space_group_name_H-M   'P 1'
_cell_length_a   4.94317920
_cell_length_b   5.77635302
_cell_length_c   18.16883592
_cell_angle_alpha   83.54669303
_cell_angle_beta   86.67170798
_cell_angle_gamma   81.17242155
_symmetry_Int_Tables_number   1
_chemical_formula_structural   NaH11C9O7
_chemical_formula_sum   'Na2 H22 C18 O14'
_cell_volume   508.95119632
_cell_formula_units_Z   2
loop_
 _symmetry_equiv_pos_site_id
 _symmetry_equiv_pos_as_xyz
  1  'x, y, z'
loop_
 _atom_site_type_symbol
 _atom_site_label
 _atom_site_symmetry_multiplicity
 _atom_site_fract_x
 _atom_site_fract_y
 _atom_site_fract_z
 _atom_site_occupancy
 _atom_site_hle17_bader_spin_density
 _atom_site_hle17_ddec_charge
 _atom_site_hle17_ddec_spin_density
 _atom_site_hle17_ddec_sum_bond_order
 _atom_site_hle17_magmom
 _atom_site_hse06_10hf_bader_spin_density
 _atom_site_hse06_10hf_ddec_charge
 _atom_site_hse06_10hf_ddec_spin_density
 _atom_site_hse06_10hf_ddec_sum_bond_order
 _atom_site_hse06_10hf_magmom
 _atom_site_hse06_bader_spin_density
 _atom_site_hse06_ddec_charge
 _atom_site_hse06_ddec_spin_density
 _atom_site_hse06_ddec_sum_bond_order
 _atom_site_hse06_magmom
 _atom_site_pbe_bader_spin_density
 _atom_site_pbe_cm5_charge
 _atom_site_pbe_ddec_charge
 _atom_site_pbe_ddec_spin_density
 _atom_site_pbe_ddec_sum_bond_order
 _atom_site_pbe_magmom
Na  Na0  1  0.57667301  0.93053197  0.40483971  1  0  0.902821  0  0.362566  0  0  0.85378  0  0.516046  0  0  0.864481  0  0.494787  0  0  0.655266  0.845799  0  0.531373  0
Na  Na1  1  0.42332820  0.06946013  0.59515885  1  0  0.902813  0  0.362557  0  0  0.853773  0  0.516031  0  0  0.864475  0  0.49477  0  0  0.655256  0.845788  0  0.531361  0
H  H2  1  0.05772172  0.42471229  0.05924855  1  0  0.111454  0  0.946752  0  0  0.118411  0  1.012883  0  0  0.121915  0  1.0093  0  0  0.108765  0.115917  0  1.015364  0
H  H3  1  0.94226687  0.57529594  0.94075509  1  0  0.111513  0  0.946739  0  0  0.118461  0  1.012871  0  0  0.121968  0  1.009283  0  0  0.108794  0.115967  0  1.015352  0
H  H4  1  0.36714611  0.49861572  0.15175624  1  0  0.122523  0  0.951961  0  0  0.134356  0  1.00889  0  0  0.137563  0  1.008217  0  0  0.109038  0.131913  0  1.009894  0
H  H5  1  0.63285134  0.50138703  0.84824750  1  0  0.122466  0  0.951943  0  0  0.134324  0  1.008854  0  0  0.137532  0  1.008178  0  0  0.108987  0.131861  0  1.009888  0
H  H6  1  0.16851773  0.88690752  0.29183846  1  0  0.108309  0  0.978759  0  0  0.115506  0  1.047659  0  0  0.120378  0  1.043428  0  0  0.110985  0.112006  0  1.050871  0
H  H7  1  0.83148460  0.11308983  0.70816376  1  0  0.108258  0  0.978838  0  0  0.115466  0  1.047713  0  0  0.120337  0  1.043483  0  0  0.110984  0.111967  0  1.050919  0
H  H8  1  0.86917179  0.80616262  0.19613788  1  0  0.099074  0  0.956828  0  0  0.106663  0  1.024507  0  0  0.110076  0  1.021619  0  0  0.105458  0.103972  0  1.027178  0
H  H9  1  0.13082162  0.19384023  0.80386535  1  0  0.099108  0  0.956814  0  0  0.106719  0  1.024478  0  0  0.110134  0  1.021586  0  0  0.105483  0.104029  0  1.02715  0
H  H10  1  0.72496571  0.42228489  0.22392723  1  0  0.087423  0  0.958427  0  0  0.098254  0  1.0262  0  0  0.097933  0  1.028259  0  0  0.111617  0.098515  0  1.024876  0
H  H11  1  0.27503124  0.57770907  0.77607022  1  0  0.087316  0  0.958414  0  0  0.098222  0  1.02613  0  0  0.097901  0  1.028192  0  0  0.111558  0.098481  0  1.024805  0
H  H12  1  0.44444067  0.58165190  0.27171879  1  0  0.087404  0  0.951207  0  0  0.098212  0  1.016731  0  0  0.099321  0  1.016024  0  0  0.112482  0.097481  0  1.017299  0
H  H13  1  0.55555853  0.41834025  0.72827924  1  0  0.087393  0  0.951203  0  0  0.098239  0  1.016679  0  0  0.099348  0  1.015974  0  0  0.11249  0.097504  0  1.017244  0
H  H14  1  0.57031647  0.17148916  0.97514370  1  0  0.396735  0  0.896293  0  0  0.365833  0  0.974091  0  0  0.378858  0  0.960417  0  0  0.301792  0.356734  0  0.983535  0
H  H15  1  0.42970015  0.82852360  0.02485339  1  0  0.39683  0  0.896157  0  0  0.365884  0  0.974017  0  0  0.378917  0  0.960329  0  0  0.301807  0.356785  0  0.983458  0
H  H16  1  0.28426742  0.36244159  0.46439256  1  0  0.414235  0  0.889875  0  0  0.38871  0  0.946294  0  0  0.398866  0  0.931266  0  0  0.290901  0.381435  0  0.95705  0
H  H17  1  0.71573001  0.63754885  0.53560501  1  0  0.414195  0  0.889903  0  0  0.388666  0  0.946337  0  0  0.398825  0  0.9313  0  0  0.290898  0.381389  0  0.957093  0
H  H18  1  0.08962326  0.20561294  0.43702298  1  0  0.411502  0  0.906668  0  0  0.380263  0  0.972261  0  0  0.391878  0  0.955167  0  0  0.28719  0.372063  0  0.984325  0
H  H19  1  0.91036964  0.79438112  0.56297396  1  0  0.411536  0  0.906629  0  0  0.380313  0  0.972204  0  0  0.391926  0  0.955109  0  0  0.287165  0.372111  0  0.984271  0
H  H20  1  0.11279987  0.63924856  0.39460180  1  0  0.409605  0  0.907811  0  0  0.377536  0  0.975033  0  0  0.389134  0  0.958135  0  0  0.286752  0.369398  0  0.986862  0
H  H21  1  0.88719783  0.36074011  0.60539527  1  0  0.409591  0  0.907832  0  0  0.377535  0  0.97503  0  0  0.389135  0  0.95813  0  0  0.286775  0.369396  0  0.986862  0
H  H22  1  0.12086725  0.73220919  0.47038503  1  0  0.40787  0  0.88247  0  0  0.383233  0  0.948491  0  0  0.393149  0  0.933694  0  0  0.300369  0.376126  0  0.959119  0
H  H23  1  0.87913179  0.26778472  0.52961129  1  0  0.407949  0  0.882426  0  0  0.38333  0  0.948369  0  0  0.393248  0  0.933568  0  0  0.30041  0.376224  0  0.958997  0
C  C24  1  0.94433361  0.10768032  0.12075814  1  0  -0.124095  0  3.803267  0  0  -0.10478  0  4.046453  0  0  -0.117361  0  4.071438  0  0  -0.034536  -0.09657  0  4.029439  0
C  C25  1  0.05565650  0.89233138  0.87924592  1  0  -0.124033  0  3.803436  0  0  -0.104711  0  4.046638  0  0  -0.117294  0  4.071627  0  0  -0.034616  -0.096513  0  4.029644  0
C  C26  1  0.08437167  0.30335636  0.10948717  1  0  -0.019615  0  3.703422  0  0  -0.048356  0  3.959826  0  0  -0.042984  0  3.976583  0  0  -0.076501  -0.051462  0  3.948139  0
C  C27  1  0.91563054  0.69665504  0.89051895  1  0  -0.019785  0  3.703524  0  0  -0.04853  0  3.959952  0  0  -0.04316  0  3.976713  0  0  -0.076553  -0.051628  0  3.948258  0
C  C28  1  0.25986589  0.34638550  0.16218117  1  0  -0.211521  0  3.730821  0  0  -0.229991  0  3.982995  0  0  -0.238867  0  4.003916  0  0  -0.106835  -0.224187  0  3.969341  0
C  C29  1  0.74013284  0.65362248  0.83782292  1  0  -0.211377  0  3.730729  0  0  -0.22988  0  3.982877  0  0  -0.238756  0  4.003801  0  0  -0.106714  -0.224061  0  3.969236  0
C  C30  1  0.29353700  0.19220660  0.22754341  1  0  0.290103  0  3.786168  0  0  0.28256  0  4.042019  0  0  0.295667  0  4.057532  0  0  0.092882  0.273616  0  4.031262  0
C  C31  1  0.70646099  0.80779261  0.77245935  1  0  0.28998  0  3.786164  0  0  0.282477  0  4.042034  0  0  0.295581  0  4.057546  0  0  0.092812  0.273528  0  4.031274  0
C  C32  1  0.15145876  0.99819912  0.23950431  1  0  -0.188327  0  3.747652  0  0  -0.21236  0  4.01054  0  0  -0.218597  0  4.0265  0  0  -0.099922  -0.20835  0  4.000153  0
C  C33  1  0.84854192  0.00179477  0.76050025  1  0  -0.188194  0  3.747794  0  0  -0.212213  0  4.010673  0  0  -0.21845  0  4.026637  0  0  -0.099848  -0.208202  0  4.000283  0
C  C34  1  0.98093886  0.95558701  0.18653940  1  0  -0.021322  0  3.736022  0  0  -0.04886  0  3.989862  0  0  -0.043804  0  4.006699  0  0  -0.076413  -0.052273  0  3.979183  0
C  C35  1  0.01905308  0.04441236  0.81346232  1  0  -0.021413  0  3.736134  0  0  -0.048997  0  3.990005  0  0  -0.043943  0  4.006846  0  0  -0.076446  -0.052405  0  3.979327  0
C  C36  1  0.75388431  0.05737432  0.06703774  1  0  0.655003  0  3.825135  0  0  0.600777  0  4.128588  0  0  0.635178  0  4.120773  0  0  0.2304  0.577528  0  4.133185  0
C  C37  1  0.24611322  0.94262842  0.93296434  1  0  0.65502  0  3.825184  0  0  0.600777  0  4.128659  0  0  0.635179  0  4.120846  0  0  0.230396  0.577529  0  4.13326  0
C  C38  1  0.59441871  0.42001035  0.27523406  1  0  -0.078469  0  3.626187  0  0  -0.135409  0  3.884456  0  0  -0.13212  0  3.88632  0  0  -0.066566  -0.13787  0  3.883146  0
C  C39  1  0.40558407  0.57998522  0.72476381  1  0  -0.078402  0  3.626318  0  0  -0.135368  0  3.884511  0  0  -0.132086  0  3.886387  0  0  -0.066532  -0.13781  0  3.883169  0
C  C40  1  0.77916896  0.41785249  0.33948943  1  0  0.701359  0  3.872288  0  0  0.648949  0  4.180424  0  0  0.681653  0  4.171809  0  0  0.216394  0.626728  0  4.185678  0
C  C41  1  0.22083903  0.58213417  0.66051035  1  0  0.701198  0  3.872422  0  0  0.64883  0  4.180504  0  0  0.681534  0  4.171893  0  0  0.216383  0.626603  0  4.185757  0
O  O42  1  0.63904311  0.87686521  0.07725036  1  0  -0.573574  0  1.990533  0  0  -0.522468  0  2.211732  0  0  -0.545375  0  2.203972  0  0  -0.290633  -0.506736  0  2.216617  0
O  O43  1  0.36097191  0.12315986  0.92274410  1  0  -0.573608  0  1.990184  0  0  -0.52254  0  2.211405  0  0  -0.545446  0  2.20365  0  0  -0.290685  -0.506808  0  2.216301  0
O  O44  1  0.71377470  0.21561163  0.00868558  1  0  -0.539488  0  2.102155  0  0  -0.485397  0  2.32124  0  0  -0.508143  0  2.308009  0  0  -0.321677  -0.469617  0  2.329802  0
O  O45  1  0.28623807  0.78439947  0.99131217  1  0  -0.539496  0  2.10235  0  0  -0.485331  0  2.321423  0  0  -0.508081  0  2.308189  0  0  -0.321597  -0.469547  0  2.329982  0
O  O46  1  0.45695529  0.21698655  0.28357641  1  0  -0.295165  0  2.371172  0  0  -0.22613  0  2.608954  0  0  -0.24334  0  2.61089  0  0  -0.19421  -0.213754  0  2.607044  0
O  O47  1  0.54305221  0.78300363  0.71642325  1  0  -0.295006  0  2.371153  0  0  -0.22608  0  2.609015  0  0  -0.243277  0  2.610943  0  0  -0.194131  -0.213695  0  2.607087  0
O  O48  1  0.86523604  0.61272080  0.34311167  1  0  -0.682842  0  1.960673  0  0  -0.626625  0  2.196322  0  0  -0.652253  0  2.185458  0  0  -0.360455  -0.6086  0  2.203254  0
O  O49  1  0.13476802  0.38728000  0.65688655  1  0  -0.682677  0  1.960848  0  0  -0.626504  0  2.196505  0  0  -0.652131  0  2.185642  0  0  -0.360428  -0.608482  0  2.203439  0
O  O50  1  0.83823280  0.22951569  0.38178694  1  0  -0.678686  0  1.997521  0  0  -0.622626  0  2.233304  0  0  -0.646391  0  2.22094  0  0  -0.379612  -0.606057  0  2.241508  0
O  O51  1  0.16176545  0.77048350  0.61821030  1  0  -0.678752  0  1.997314  0  0  -0.622705  0  2.233058  0  0  -0.646468  0  2.220694  0  0  -0.379669  -0.606134  0  2.241264  0
O  O52  1  0.23709478  0.20003061  0.47379875  1  0  -0.924798  0  1.800586  0  0  -0.875831  0  1.973932  0  0  -0.89383  0  1.940571  0  0  -0.67657  -0.862963  0  1.997426  0
O  O53  1  0.76290243  0.79996159  0.52619821  1  0  -0.924786  0  1.800548  0  0  -0.875806  0  1.973837  0  0  -0.893819  0  1.940506  0  0  -0.676573  -0.862938  0  1.997334  0
O  O54  1  0.24766872  0.67068346  0.43091229  1  0  -0.867561  0  1.808139  0  0  -0.81425  0  1.976512  0  0  -0.833024  0  1.944476  0  0  -0.636363  -0.800835  0  1.998991  0
O  O55  1  0.75233280  0.32930687  0.56908468  1  0  -0.867594  0  1.808149  0  0  -0.814312  0  1.976454  0  0  -0.833088  0  1.944415  0  0  -0.636402  -0.800897  0  1.998926  0
