# generated using pymatgen
data_KFeH20C20S4(Cl2O)2
_symmetry_space_group_name_H-M   'P 1'
_cell_length_a   8.54618516
_cell_length_b   11.94702029
_cell_length_c   12.75696217
_cell_angle_alpha   74.29959010
_cell_angle_beta   82.72125136
_cell_angle_gamma   86.70256624
_symmetry_Int_Tables_number   1
_chemical_formula_structural   KFeH20C20S4(Cl2O)2
_chemical_formula_sum   'K2 Fe2 H40 C40 S8 Cl8 O4'
_cell_volume   1243.43479869
_cell_formula_units_Z   2
loop_
 _symmetry_equiv_pos_site_id
 _symmetry_equiv_pos_as_xyz
  1  'x, y, z'
loop_
 _atom_site_type_symbol
 _atom_site_label
 _atom_site_symmetry_multiplicity
 _atom_site_fract_x
 _atom_site_fract_y
 _atom_site_fract_z
 _atom_site_occupancy
 _atom_site_pbe_cm5_charge
 _atom_site_pbe_ddec_charge
 _atom_site_pbe_ddec_spin_density
 _atom_site_pbe_ddec_sum_bond_order
 _atom_site_pbe_magmom
K  K0  1  0.98771955  0.94045257  0.29849721  1  0.600444  0.769977  0.002212  0.715611  0.001
K  K1  1  0.01227653  0.05954458  0.70150288  1  0.600441  0.769979  -0.002213  0.715632  -0.001
Fe  Fe2  1  0.42377027  0.02363191  0.39454544  1  0.366847  0.168976  0.179662  4.137686  0.104
Fe  Fe3  1  0.57622686  0.97636779  0.60544840  1  0.36688  0.169071  -0.179662  4.137601  -0.104
H  H4  1  0.12996010  0.52467243  0.14316370  1  0.104022  0.119483  0.000194  1.028209  0.0
H  H5  1  0.87004195  0.47532300  0.85683710  1  0.104045  0.119511  -0.000194  1.028389  0.0
H  H6  1  0.95249186  0.48088139  0.31840203  1  0.09001  0.096838  -0.000137  1.070294  0.0
H  H7  1  0.04751011  0.51911575  0.68159597  1  0.090012  0.096851  0.000137  1.070245  0.0
H  H8  1  0.77641337  0.50730211  0.45697120  1  0.094495  0.106146  -6.2e-05  1.042647  0.0
H  H9  1  0.22358282  0.49269246  0.54303113  1  0.094494  0.106167  6.2e-05  1.042714  0.0
H  H10  1  0.59940416  0.47518857  0.63214788  1  0.104197  0.122248  -7e-06  1.016292  0.0
H  H11  1  0.40059042  0.52481815  0.36784983  1  0.104161  0.122198  7e-06  1.016129  0.0
H  H12  1  0.20667923  0.66343420  0.27694422  1  0.091036  0.055905  3.6e-05  1.016397  0.0
H  H13  1  0.79332985  0.33656300  0.72305706  1  0.091056  0.055902  -3.6e-05  1.016237  0.0
H  H14  1  0.35632082  0.74135112  0.31278013  1  0.084465  0.053967  7.8e-05  1.022907  0.0
H  H15  1  0.64368721  0.25864260  0.68722215  1  0.084454  0.053924  -7.8e-05  1.022866  0.0
H  H16  1  0.51627210  0.64599525  0.18852329  1  0.082673  0.083838  1e-06  1.031933  0.0
H  H17  1  0.48373106  0.35400101  0.81147328  1  0.08263  0.083791  -1e-06  1.031965  0.0
H  H18  1  0.36165999  0.65830026  0.10502304  1  0.081821  0.081214  2.7e-05  1.024571  0.0
H  H19  1  0.63834060  0.34170298  0.89497504  1  0.081821  0.081193  -2.7e-05  1.024574  0.0
H  H20  1  0.51465594  0.82707532  0.00297942  1  0.079665  0.08115  -0.000137  1.051741  0.0
H  H21  1  0.48535183  0.17292624  0.99702240  1  0.079646  0.081094  0.000137  1.051841  0.0
H  H22  1  0.56537596  0.85188959  0.12613197  1  0.078684  0.080555  4.9e-05  1.038176  0.0
H  H23  1  0.43462840  0.14810851  0.87387263  1  0.078628  0.08049  -4.9e-05  1.038102  0.0
H  H24  1  0.34854278  0.98428827  0.11031754  1  0.088413  0.05055  -8.9e-05  1.041154  0.0
H  H25  1  0.65146151  0.01571155  0.88968504  1  0.088431  0.050585  8.9e-05  1.041129  0.0
H  H26  1  0.25741115  0.91543748  0.02549089  1  0.098731  0.06974  -3.3e-05  0.989793  0.0
H  H27  1  0.74259209  0.08455888  0.97451426  1  0.098726  0.069689  3.4e-05  0.989809  0.0
H  H28  1  0.10638277  0.11096585  0.98040957  1  0.108347  0.075371  -6e-06  0.985146  0.0
H  H29  1  0.89361175  0.88904262  0.01958846  1  0.108354  0.075346  6e-06  0.985097  0.0
H  H30  1  0.16610355  0.18090007  0.07614182  1  0.084212  0.044399  -0.000223  1.04092  0.0
H  H31  1  0.83389671  0.81911183  0.92385088  1  0.084237  0.044416  0.000223  1.040981  0.0
H  H32  1  0.07508544  0.34963047  0.94312266  1  0.083858  0.085836  -3.2e-05  1.019361  0.0
H  H33  1  0.92489378  0.65037621  0.05687329  1  0.083846  0.085848  3.2e-05  1.019372  0.0
H  H34  1  0.92672201  0.26853925  0.91166766  1  0.088295  0.08802  -9e-06  1.031988  0.0
H  H35  1  0.07325869  0.73146056  0.08833780  1  0.088348  0.088145  9e-06  1.031812  0.0
H  H36  1  0.91467346  0.37509355  0.10269528  1  0.081448  0.085993  0.000123  1.020074  0.0
H  H37  1  0.08532242  0.62491062  0.89730768  1  0.081478  0.085966  -0.000123  1.020223  0.0
H  H38  1  0.75558922  0.34189542  0.04097234  1  0.080875  0.076005  -2.5e-05  1.041043  0.0
H  H39  1  0.24439622  0.65810533  0.95903794  1  0.080897  0.07605  2.5e-05  1.041094  0.0
H  H40  1  0.89699693  0.19842174  0.23424914  1  0.082992  0.039824  -0.000112  1.030135  0.0
H  H41  1  0.10301076  0.80158246  0.76575433  1  0.082966  0.039719  0.000112  1.030069  0.0
H  H42  1  0.72961262  0.16322973  0.17956798  1  0.089479  0.067653  -2.6e-05  1.037135  0.0
H  H43  1  0.27039297  0.83676844  0.82044197  1  0.089497  0.067666  2.7e-05  1.037168  0.0
C  C44  1  0.26535768  0.24869787  0.25634939  1  -0.021507  -0.003134  0.008534  4.015695  0.009
C  C45  1  0.73465135  0.75130109  0.74365299  1  -0.021503  -0.003174  -0.008532  4.015904  -0.009
C  C46  1  0.24821135  0.35725956  0.17982435  1  0.003431  0.092471  -0.006701  4.049218  -0.006
C  C47  1  0.75178578  0.64274196  0.82017606  1  0.00341  0.092477  0.0067  4.049228  0.006
C  C48  1  0.13831505  0.44050624  0.20248607  1  -0.104622  -0.148724  0.010206  4.021253  0.009
C  C49  1  0.86168711  0.55948569  0.79751408  1  -0.104654  -0.148789  -0.01021  4.021133  -0.009
C  C50  1  0.03875775  0.41576738  0.30112752  1  -0.107282  -0.15204  -0.009902  4.050263  -0.009
C  C51  1  0.96124522  0.58423590  0.69887270  1  -0.107338  -0.15205  0.009896  4.050472  0.009
C  C52  1  0.05096550  0.30800370  0.37647245  1  0.003999  0.097925  0.009728  4.019102  0.01
C  C53  1  0.94903907  0.69198739  0.62352927  1  0.004169  0.097992  -0.009726  4.019048  -0.01
C  C54  1  0.16438262  0.22352358  0.35715085  1  -0.019287  0.015139  -0.008183  4.014364  -0.009
C  C55  1  0.83562043  0.77647616  0.64284559  1  -0.019408  0.015079  0.008184  4.014111  0.009
C  C56  1  0.59949070  0.77863752  0.41542983  1  -0.01992  0.014036  -0.005033  4.045588  -0.005
C  C57  1  0.40051235  0.22136041  0.58456082  1  -0.019922  0.014084  0.005032  4.045744  0.005
C  C58  1  0.69694382  0.68503584  0.39636432  1  -0.001361  0.073425  0.004143  4.034941  0.004
C  C59  1  0.30305475  0.31495693  0.60363357  1  -0.001306  0.073454  -0.004142  4.034908  -0.004
C  C60  1  0.69976355  0.57786683  0.47374458  1  -0.099242  -0.129464  -0.00544  4.028593  -0.005
C  C61  1  0.30023481  0.42213295  0.52625541  1  -0.099243  -0.129579  0.005441  4.028544  0.005
C  C62  1  0.60143706  0.55959242  0.57249669  1  -0.104845  -0.145727  0.003566  4.010821  0.003
C  C63  1  0.39856143  0.44040298  0.42750208  1  -0.104786  -0.145529  -0.003562  4.011016  -0.003
C  C64  1  0.50290847  0.64979249  0.59347352  1  0.010783  0.108069  -0.005012  4.029346  -0.005
C  C65  1  0.49707890  0.35021677  0.40651945  1  0.010738  0.107963  0.00501  4.029848  0.005
C  C66  1  0.50324474  0.75987538  0.51744130  1  -0.025689  -0.014887  0.000142  3.959196  0.001
C  C67  1  0.49675463  0.24012690  0.48254853  1  -0.025618  -0.014703  -0.00014  3.959114  -0.001
C  C68  1  0.29787450  0.72925446  0.24438179  1  -0.085671  0.027138  -1.1e-05  3.907481  0.0
C  C69  1  0.70213224  0.27074275  0.75562126  1  -0.085649  0.0273  1.1e-05  3.907165  0.0
C  C70  1  0.41816310  0.70215539  0.15528219  1  -0.176733  -0.184436  7.2e-05  3.932554  0.0
C  C71  1  0.58184240  0.29784266  0.84471839  1  -0.176691  -0.184398  -7.1e-05  3.932464  0.0
C  C72  1  0.47124670  0.82393500  0.08841678  1  -0.176625  -0.180366  0.000186  3.901758  0.0
C  C73  1  0.52875995  0.17606483  0.91158637  1  -0.176525  -0.180185  -0.000186  3.901691  0.0
C  C74  1  0.32267745  0.90018664  0.09736949  1  -0.076328  0.047129  -0.000162  3.818465  0.0
C  C75  1  0.67732809  0.09981146  0.90263500  1  -0.076384  0.047029  0.000162  3.818495  0.0
C  C76  1  0.06595936  0.16664137  0.03475711  1  -0.075306  0.039826  -0.00017  3.879288  0.0
C  C77  1  0.93403513  0.83336797  0.96524070  1  -0.075295  0.039932  0.00017  3.879166  0.0
C  C78  1  0.98825526  0.28134914  0.97795861  1  -0.177703  -0.194454  -5.8e-05  3.92149  0.0
C  C79  1  0.01172757  0.71865673  0.02204272  1  -0.17776  -0.194716  5.8e-05  3.921557  0.0
C  C80  1  0.86942508  0.30914613  0.06981080  1  -0.175325  -0.176025  5.2e-05  3.881003  0.0
C  C81  1  0.13056860  0.69085460  0.93019719  1  -0.175353  -0.175934  -5.2e-05  3.881096  0.0
C  C82  1  0.85167747  0.19266954  0.15857704  1  -0.092083  0.023771  -0.000171  3.858863  0.0
C  C83  1  0.14832677  0.80733294  0.84142955  1  -0.092102  0.023767  0.000171  3.858849  0.0
S  S84  1  0.40719403  0.14438365  0.23402697  1  -0.134813  -0.183192  -0.016876  2.859219  -0.011
S  S85  1  0.59281138  0.85561519  0.76596636  1  -0.134853  -0.183249  0.016873  2.859333  0.011
S  S86  1  0.19058526  0.08921606  0.45006924  1  -0.199827  -0.311506  0.048489  2.978081  0.037
S  S87  1  0.80942131  0.91078456  0.54992744  1  -0.199828  -0.311527  -0.048479  2.978031  -0.037
S  S88  1  0.59793031  0.91420563  0.32016601  1  -0.183765  -0.25683  0.027156  2.831663  0.024
S  S89  1  0.40207279  0.08579236  0.67982932  1  -0.183758  -0.256859  -0.027159  2.83159  -0.024
S  S90  1  0.39354116  0.87896614  0.54738777  1  -0.120094  -0.093311  -0.004119  3.242594  -0.002
S  S91  1  0.60645954  0.12103270  0.45260598  1  -0.120102  -0.093394  0.004117  3.242651  0.002
Cl  Cl92  1  0.36702164  0.39057762  0.05572584  1  0.016581  -0.063007  -0.001173  1.694169  -0.001
Cl  Cl93  1  0.63297558  0.60941948  0.94426946  1  0.016598  -0.062979  0.001174  1.694274  0.001
Cl  Cl94  1  0.92474600  0.28157110  0.49829177  1  0.007583  -0.077915  0.000684  1.698125  0.0
Cl  Cl95  1  0.07524537  0.71842422  0.50170217  1  0.007571  -0.077919  -0.000684  1.698174  0.0
Cl  Cl96  1  0.37744881  0.62278596  0.71467721  1  0.023502  -0.044269  0.000372  1.679529  0.0
Cl  Cl97  1  0.62254704  0.37721816  0.28532185  1  0.023469  -0.044339  -0.000371  1.679632  0.0
Cl  Cl98  1  0.81931409  0.70360751  0.27316231  1  0.017941  -0.076996  0.000669  1.694781  0.0
Cl  Cl99  1  0.18068685  0.29638619  0.72683983  1  0.017916  -0.077043  -0.000669  1.694762  0.0
O  O100  1  0.21938068  0.83688195  0.19255362  1  -0.327228  -0.312296  -0.000172  2.445847  0.0
O  O101  1  0.78062490  0.16311529  0.80745187  1  -0.327217  -0.312309  0.000172  2.445753  0.0
O  O102  1  0.94290737  0.10596244  0.11452090  1  -0.323591  -0.294014  -1e-06  2.43063  0.0
O  O103  1  0.05709801  0.89404000  0.88548167  1  -0.323601  -0.29403  1e-06  2.430707  0.0
