# generated using pymatgen
data_La2H54C51(NO2)12
_symmetry_space_group_name_H-M   'P 1'
_cell_length_a   16.54487821
_cell_length_b   16.54344025
_cell_length_c   19.28630693
_cell_angle_alpha   64.61712011
_cell_angle_beta   64.60130993
_cell_angle_gamma   59.99866057
_symmetry_Int_Tables_number   1
_chemical_formula_structural   La2H54C51(NO2)12
_chemical_formula_sum   'La4 H108 C102 N24 O48'
_cell_volume   3971.87150387
_cell_formula_units_Z   2
loop_
 _symmetry_equiv_pos_site_id
 _symmetry_equiv_pos_as_xyz
  1  'x, y, z'
loop_
 _atom_site_type_symbol
 _atom_site_label
 _atom_site_symmetry_multiplicity
 _atom_site_fract_x
 _atom_site_fract_y
 _atom_site_fract_z
 _atom_site_occupancy
 _atom_site_pbe_bader_charge
 _atom_site_pbe_bader_spin_density
 _atom_site_pbe_cm5_charge
 _atom_site_pbe_ddec_charge
 _atom_site_pbe_ddec_spin_density
 _atom_site_pbe_ddec_sum_bond_order
 _atom_site_pbe_magmom
La  La0  1  0.07079527  0.07078059  0.78770863  1  2.20635  0  1.414433  1.689547  0  2.589824  0
La  La1  1  0.92920386  0.92921961  0.21229035  1  2.206454  0  1.414426  1.689552  0  2.589862  0
La  La2  1  0.78465659  0.78479309  0.64590125  1  2.202784  0  1.3977  1.689857  0  2.5945  0
La  La3  1  0.21534615  0.21520367  0.35410026  1  2.202923  0  1.397712  1.689817  0  2.594575  0
H  H4  1  0.07899549  0.13089730  0.94648341  1  0.103291  0  0.108776  0.12381  0  1.02066  0
H  H5  1  0.13071835  0.84399873  0.94663503  1  0.097171  0  0.10833  0.123644  0  1.019368  0
H  H6  1  0.84376537  0.07876688  0.94662569  1  0.104619  0  0.108078  0.123144  0  1.021169  0
H  H7  1  0.92100221  0.86910348  0.05351380  1  0.103365  0  0.10874  0.12377  0  1.020744  0
H  H8  1  0.86928076  0.15600012  0.05336705  1  0.097154  0  0.10833  0.123628  0  1.019408  0
H  H9  1  0.15623378  0.92123468  0.05337072  1  0.104716  0  0.108087  0.123115  0  1.021169  0
H  H10  1  0.14801985  0.20171064  0.98623314  1  0.057953  0  0.09837  0.088544  0  1.016281  0
H  H11  1  0.20146988  0.66440050  0.98635530  1  0.101939  0  0.098537  0.088806  0  1.016487  0
H  H12  1  0.66416273  0.14783848  0.98631667  1  0.061309  0  0.098763  0.089643  0  1.017256  0
H  H13  1  0.85197783  0.79828745  0.01376661  1  0.057953  0  0.098366  0.088562  0  1.016238  0
H  H14  1  0.79852487  0.33559804  0.01364845  1  0.102397  0  0.098571  0.088873  0  1.016306  0
H  H15  1  0.33583713  0.85216277  0.01368219  1  0.061287  0  0.098751  0.089612  0  1.01725  0
H  H16  1  0.32746043  0.14453165  0.95774715  1  0.052421  0  0.101331  0.103204  0  0.996031  0
H  H17  1  0.14427735  0.57067251  0.95782253  1  0.073065  0  0.101111  0.102301  0  0.996724  0
H  H18  1  0.57039381  0.32728506  0.95764159  1  0.039536  0  0.101183  0.102584  0  0.996132  0
H  H19  1  0.67253580  0.85546834  0.04225347  1  0.052751  0  0.101324  0.103191  0  0.99605  0
H  H20  1  0.85571449  0.42932781  0.04218266  1  0.073019  0  0.10112  0.102325  0  0.996684  0
H  H21  1  0.42960894  0.67271504  0.04235872  1  0.039492  0  0.101179  0.102579  0  0.99609  0
H  H22  1  0.43787527  0.01457585  0.88749847  1  0.098933  0  0.103299  0.110246  0  1.031565  0
H  H23  1  0.01451424  0.66045872  0.88742772  1  0.121198  0  0.103081  0.109567  0  1.030714  0
H  H24  1  0.66017562  0.43767706  0.88723641  1  0.109693  0  0.103043  0.110228  0  1.030744  0
H  H25  1  0.56212316  0.98542599  0.11249862  1  0.098881  0  0.103305  0.110251  0  1.031533  0
H  H26  1  0.98547979  0.33954344  0.11257499  1  0.121364  0  0.103071  0.109574  0  1.030719  0
H  H27  1  0.33982638  0.56232264  0.11276638  1  0.109676  0  0.103033  0.110209  0  1.030764  0
H  H28  1  0.46584435  0.89771190  0.83269532  1  0.130262  0  0.128286  0.09753  0  1.018103  0
H  H29  1  0.89781391  0.80405588  0.83261709  1  0.154339  0  0.128517  0.097381  0  1.018742  0
H  H30  1  0.80373977  0.46562355  0.83248306  1  0.149259  0  0.128303  0.097036  0  1.018988  0
H  H31  1  0.53415406  0.10229059  0.16730309  1  0.130226  0  0.128304  0.097525  0  1.018131  0
H  H32  1  0.10218228  0.19594408  0.16738770  1  0.154371  0  0.128508  0.097376  0  1.018779  0
H  H33  1  0.19626078  0.53437605  0.16752029  1  0.149247  0  0.12831  0.097045  0  1.018944  0
H  H34  1  0.49968276  0.76998284  0.79483773  1  0.079485  0  0.120262  0.071335  0  0.973067  0
H  H35  1  0.77014227  0.93561437  0.79477571  1  0.086494  0  0.12084  0.072434  0  0.971628  0
H  H36  1  0.93533937  0.49958991  0.79487471  1  0.089756  0  0.120052  0.071745  0  0.972125  0
H  H37  1  0.50031711  0.23001908  0.20516089  1  0.079492  0  0.12025  0.071381  0  0.973024  0
H  H38  1  0.22985613  0.06438544  0.20522471  1  0.086258  0  0.120842  0.07249  0  0.97162  0
H  H39  1  0.06465902  0.50041190  0.20512603  1  0.0898  0  0.120082  0.071774  0  0.972088  0
H  H40  1  0.38127977  0.69406803  0.89949173  1  0.049455  0  0.089856  0.127348  0  1.018674  0
H  H41  1  0.69415501  0.02529298  0.89941163  1  0.025275  0  0.089638  0.127607  0  1.018102  0
H  H42  1  0.02512363  0.38124908  0.89945231  1  0.041313  0  0.089832  0.127488  0  1.018658  0
H  H43  1  0.61872010  0.30593390  0.10050532  1  0.049378  0  0.089846  0.12736  0  1.018657  0
H  H44  1  0.30584050  0.97470796  0.10058840  1  0.025268  0  0.089632  0.127599  0  1.018035  0
H  H45  1  0.97487476  0.61875672  0.10054906  1  0.041265  0  0.08984  0.127504  0  1.018673  0
H  H46  1  0.44534381  0.64431248  0.81635421  1  0.067309  0  0.097934  0.142981  0  0.99258  0
H  H47  1  0.64435660  0.09411417  0.81633355  1  0.054336  0  0.098098  0.142912  0  0.993361  0
H  H48  1  0.09387842  0.44533009  0.81631634  1  0.055062  0  0.097993  0.142555  0  0.994386  0
H  H49  1  0.55465679  0.35568850  0.18364292  1  0.067256  0  0.097946  0.143012  0  0.992542  0
H  H50  1  0.35564036  0.90588622  0.18366511  1  0.054397  0  0.098095  0.142893  0  0.993343  0
H  H51  1  0.90611998  0.55467639  0.18368375  1  0.055079  0  0.097957  0.142525  0  0.994416  0
H  H52  1  0.32214359  0.72989410  0.82630037  1  0.061996  0  0.093362  0.136224  0  1.015836  0
H  H53  1  0.72990368  0.12185514  0.82626995  1  0.066059  0  0.093079  0.13621  0  1.015679  0
H  H54  1  0.12159487  0.32213575  0.82621362  1  0.070417  0  0.093534  0.136308  0  1.015732  0
H  H55  1  0.67785702  0.27010889  0.17369551  1  0.062005  0  0.09335  0.136221  0  1.015769  0
H  H56  1  0.27009256  0.87814553  0.17372939  1  0.066629  0  0.093044  0.136158  0  1.015691  0
H  H57  1  0.87840424  0.67786842  0.17378808  1  0.070469  0  0.09354  0.13635  0  1.015777  0
H  H58  1  0.47667353  0.74960301  0.68125419  1  0.067812  0  0.123642  0.112747  0  0.961187  0
H  H59  1  0.74974379  0.09253461  0.68113349  1  0.108819  0  0.123477  0.113012  0  0.96147  0
H  H60  1  0.09228132  0.47666010  0.68120014  1  0.070376  0  0.123124  0.112854  0  0.961934  0
H  H61  1  0.52333069  0.25039588  0.31874343  1  0.067907  0  0.123627  0.112767  0  0.961194  0
H  H62  1  0.25025534  0.90746493  0.31886573  1  0.108852  0  0.123474  0.112983  0  0.961465  0
H  H63  1  0.90771926  0.52334152  0.31880040  1  0.070117  0  0.123124  0.112821  0  0.96195  0
H  H64  1  0.36585869  0.85391251  0.68902808  1  0.112926  0  0.115888  0.101604  0  1.016486  0
H  H65  1  0.85409508  0.09127461  0.68879181  1  0.113545  0  0.116175  0.102115  0  1.015504  0
H  H66  1  0.09104134  0.36584545  0.68894433  1  0.086897  0  0.116277  0.102319  0  1.015583  0
H  H67  1  0.63414554  0.14608706  0.31096826  1  0.112875  0  0.115923  0.101632  0  1.016547  0
H  H68  1  0.14590405  0.90872358  0.31120894  1  0.113475  0  0.116155  0.10208  0  1.01553  0
H  H69  1  0.90895632  0.63415596  0.31105786  1  0.086834  0  0.116243  0.102249  0  1.015731  0
H  H70  1  0.37795007  0.00939383  0.63246179  1  0.178093  0  0.129003  0.104436  0  1.011533  0
H  H71  1  0.00955103  0.97990692  0.63245229  1  0.157433  0  0.129335  0.104474  0  1.009889  0
H  H72  1  0.97978251  0.37797045  0.63254573  1  0.135536  0  0.129079  0.103644  0  1.012487  0
H  H73  1  0.62205415  0.99060439  0.36753607  1  0.178022  0  0.128971  0.104376  0  1.011613  0
H  H74  1  0.99044737  0.02009289  0.36754761  1  0.157396  0  0.129344  0.104506  0  1.009941  0
H  H75  1  0.02021879  0.62203223  0.36745365  1  0.135499  0  0.129077  0.103686  0  1.012456  0
H  H76  1  0.38730816  0.16001047  0.55892516  1  0.087199  0  0.102477  0.099768  0  1.041892  0
H  H77  1  0.16017103  0.89312916  0.55907599  1  0.076263  0  0.102396  0.09957  0  1.041  0
H  H78  1  0.89319225  0.38759296  0.55893460  1  0.090446  0  0.102231  0.099258  0  1.042032  0
H  H79  1  0.61269750  0.83999185  0.44107277  1  0.087095  0  0.102533  0.099869  0  1.041833  0
H  H80  1  0.83982736  0.10686998  0.44092467  1  0.076233  0  0.102392  0.09955  0  1.041024  0
H  H81  1  0.10680905  0.61240972  0.44106530  1  0.090433  0  0.102273  0.099309  0  1.042056  0
H  H82  1  0.47912773  0.26680303  0.47174280  1  0.045404  0  0.100192  0.102558  0  1.000707  0
H  H83  1  0.26687277  0.78154617  0.47197746  1  0.069253  0  0.100793  0.103687  0  0.999201  0
H  H84  1  0.78182477  0.47968127  0.47167544  1  0.072069  0  0.100188  0.102359  0  1.001092  0
H  H85  1  0.52087937  0.73319737  0.52825686  1  0.04526  0  0.100188  0.102607  0  1.000685  0
H  H86  1  0.73312780  0.21845411  0.52802305  1  0.069238  0  0.100778  0.103662  0  0.999257  0
H  H87  1  0.21817069  0.52032030  0.52833008  1  0.072057  0  0.10017  0.102348  0  1.001062  0
H  H88  1  0.66082623  0.19218480  0.43120971  1  0.065443  0  0.103872  0.102971  0  1.006781  0
H  H89  1  0.19215122  0.71511956  0.43145237  1  0.085824  0  0.103652  0.103009  0  1.007028  0
H  H90  1  0.71547859  0.66134218  0.43128358  1  0.089711  0  0.103892  0.102767  0  1.007916  0
H  H91  1  0.33918086  0.80781226  0.56879117  1  0.065164  0  0.103871  0.103033  0  1.006701  0
H  H92  1  0.80784939  0.28488409  0.56854328  1  0.086114  0  0.103652  0.102984  0  1.007067  0
H  H93  1  0.28451542  0.33866062  0.56872201  1  0.089496  0  0.103897  0.102817  0  1.007909  0
H  H94  1  0.74893093  0.01405880  0.47696490  1  0.062817  0  0.107845  0.120306  0  1.018309  0
H  H95  1  0.01395873  0.75963249  0.47715463  1  0.079811  0  0.108005  0.120831  0  1.017188  0
H  H96  1  0.75999041  0.74918148  0.47714213  1  0.063282  0  0.108085  0.120734  0  1.018453  0
H  H97  1  0.25107397  0.98593710  0.52303822  1  0.062895  0  0.107783  0.120235  0  1.018408  0
H  H98  1  0.98604115  0.24036945  0.52284190  1  0.079786  0  0.107983  0.120803  0  1.017192  0
H  H99  1  0.24001089  0.25082053  0.52285749  1  0.063347  0  0.108097  0.120773  0  1.018444  0
H  H100  1  0.28829555  0.90236426  0.82683281  1  0.542127  0  0.319269  0.277965  0  0.975254  0
H  H101  1  0.90231572  0.98292116  0.82672653  1  0.526671  0  0.319497  0.278115  0  0.974404  0
H  H102  1  0.98263950  0.28817584  0.82679428  1  0.527607  0  0.319276  0.277306  0  0.975641  0
H  H103  1  0.71170434  0.09763568  0.17316340  1  0.542216  0  0.319262  0.277961  0  0.975248  0
H  H104  1  0.09767979  0.01708045  0.17327377  1  0.526813  0  0.319508  0.278141  0  0.974371  0
H  H105  1  0.01736253  0.71182522  0.17320542  1  0.527573  0  0.319284  0.277289  0  0.975671  0
H  H106  1  0.56839275  0.84586125  0.63278327  1  0.51908  0  0.316304  0.265541  0  1.000016  0
H  H107  1  0.84586673  0.95299690  0.63270790  1  0.512048  0  0.316158  0.265883  0  0.998265  0
H  H108  1  0.95273949  0.56837946  0.63279944  1  0.539185  0  0.316405  0.265265  0  1.00025  0
H  H109  1  0.43161001  0.15414020  0.36721603  1  0.519148  0  0.316291  0.265568  0  1.000012  0
H  H110  1  0.15413166  0.04700089  0.36729378  1  0.512074  0  0.316159  0.265892  0  0.998263  0
H  H111  1  0.04726107  0.43162215  0.36720162  1  0.539214  0  0.316396  0.265234  0  1.000255  0
C  C112  1  0.21779339  0.03303485  0.89284174  1  0.637398  0  0.106318  0.345345  0  4.081104  0
C  C113  1  0.03289140  0.85671256  0.89294820  1  0.642868  0  0.105142  0.341104  0  4.087158  0
C  C114  1  0.85644786  0.21757000  0.89282768  1  0.647909  0  0.104106  0.340496  0  4.086972  0
C  C115  1  0.78220504  0.96696499  0.10715503  1  0.637801  0  0.10631  0.345306  0  4.081064  0
C  C116  1  0.96710698  0.14328857  0.10705383  1  0.643232  0  0.105171  0.341188  0  4.087131  0
C  C117  1  0.14355346  0.78243069  0.10717033  1  0.647896  0  0.10413  0.340496  0  4.086916  0
C  C118  1  0.15730780  0.10569505  0.93402562  1  -0.044159  0  -0.104361  -0.224984  0  3.951472  0
C  C119  1  0.10550682  0.80335669  0.93415494  1  -0.041795  0  -0.102744  -0.221914  0  3.948625  0
C  C120  1  0.80310005  0.15708883  0.93405941  1  0.037381  0  -0.101878  -0.220697  0  3.949715  0
C  C121  1  0.84268917  0.89430601  0.06597280  1  -0.044091  0  -0.104319  -0.224972  0  3.951726  0
C  C122  1  0.89449156  0.19664243  0.06584781  1  -0.041785  0  -0.102729  -0.221897  0  3.948647  0
C  C123  1  0.19690199  0.84291091  0.06593868  1  0.037149  0  -0.10188  -0.22063  0  3.949687  0
C  C124  1  0.19681319  0.14460482  0.95602910  1  -0.037929  0  -0.078059  -0.020527  0  4.002551  0
C  C125  1  0.14437819  0.70293984  0.95614867  1  -0.044939  0  -0.079555  -0.023166  0  4.003096  0
C  C126  1  0.70268202  0.19661761  0.95604323  1  -0.118346  0  -0.079056  -0.023656  0  4.004048  0
C  C127  1  0.80318523  0.85539500  0.04396871  1  -0.038182  0  -0.078056  -0.020497  0  4.002503  0
C  C128  1  0.85561947  0.29705957  0.04385268  1  -0.044789  0  -0.079588  -0.023294  0  4.002978  0
C  C129  1  0.29731929  0.80338241  0.04395555  1  -0.118352  0  -0.079065  -0.023655  0  4.003966  0
C  C130  1  0.29808408  0.11257201  0.94001165  1  0.001688  0  -0.111526  -0.13431  0  4.06384  0
C  C131  1  0.11237858  0.64973753  0.94007108  1  -0.000383  0  -0.110351  -0.132153  0  4.063126  0
C  C132  1  0.64945987  0.29788640  0.93990081  1  0.032223  0  -0.110463  -0.132238  0  4.062571  0
C  C133  1  0.70191361  0.88742743  0.05998709  1  0.001132  0  -0.111499  -0.134303  0  4.063826  0
C  C134  1  0.88761544  0.35026261  0.05993340  1  -0.000983  0  -0.110372  -0.132123  0  4.06315  0
C  C135  1  0.35054069  0.70211455  0.06009998  1  0.032063  0  -0.110488  -0.132249  0  4.062488  0
C  C136  1  0.35924665  0.04071393  0.90132351  1  -0.067566  0  -0.082461  -0.092877  0  3.994928  0
C  C137  1  0.04062940  0.69911286  0.90130040  1  -0.085944  0  -0.082579  -0.091326  0  3.992732  0
C  C138  1  0.69882601  0.35903988  0.90108384  1  -0.058595  0  -0.082868  -0.09308  0  3.99146  0
C  C139  1  0.64075031  0.95928779  0.09867519  1  -0.067254  0  -0.082491  -0.092967  0  3.994939  0
C  C140  1  0.95936681  0.30088913  0.09870107  1  -0.086036  0  -0.082551  -0.091339  0  3.992717  0
C  C141  1  0.30117601  0.64095917  0.09891710  1  -0.05828  0  -0.082837  -0.093056  0  3.99133  0
C  C142  1  0.32136741  0.99955823  0.87728682  1  -0.001967  0  -0.033519  -0.097007  0  4.0277  0
C  C143  1  0.99950485  0.80217048  0.87729448  1  0.022137  0  -0.033754  -0.098732  0  4.031879  0
C  C144  1  0.80189119  0.32114596  0.87712350  1  -0.027207  0  -0.033247  -0.096623  0  4.02993  0
C  C145  1  0.67863029  0.00044322  0.12271067  1  -0.002245  0  -0.033476  -0.096832  0  4.027612  0
C  C146  1  0.00049282  0.19783227  0.12270670  1  0.021834  0  -0.033792  -0.098754  0  4.031874  0
C  C147  1  0.19810720  0.67885450  0.12287825  1  -0.027146  0  -0.033269  -0.096609  0  4.029851  0
C  C148  1  0.38800842  0.92271192  0.84114022  1  0.549001  0  0.101121  0.130226  0  3.850846  0
C  C149  1  0.92275909  0.84849347  0.84106818  1  0.484038  0  0.100579  0.129388  0  3.853588  0
C  C150  1  0.84819901  0.38779432  0.84096523  1  0.497425  0  0.100096  0.128951  0  3.853402  0
C  C151  1  0.61199073  0.07728896  0.15885695  1  0.54908  0  0.101127  0.130243  0  3.850784  0
C  C152  1  0.07723712  0.15150784  0.15893352  1  0.484019  0  0.100556  0.129352  0  3.853655  0
C  C153  1  0.15180082  0.61220557  0.15903724  1  0.497392  0  0.100156  0.128973  0  3.853438  0
C  C154  1  0.42849612  0.79185518  0.78781829  1  0.303277  0  0.022292  0.16333  0  3.831109  0
C  C155  1  0.79193987  0.99203708  0.78770508  1  0.332606  0  0.021907  0.163306  0  3.827962  0
C  C156  1  0.99174466  0.42842970  0.78779794  1  0.336762  0  0.021495  0.162062  0  3.82883  0
C  C157  1  0.57150519  0.20814551  0.21218025  1  0.303343  0  0.022307  0.163285  0  3.831085  0
C  C158  1  0.20805780  0.00796234  0.21229575  1  0.332849  0  0.02193  0.163139  0  3.827928  0
C  C159  1  0.00825373  0.57157210  0.21220333  1  0.336719  0  0.021536  0.162063  0  3.828752  0
C  C160  1  0.39155411  0.70992624  0.83557388  1  -0.073707  0  -0.239578  -0.422575  0  3.891484  0
C  C161  1  0.70997189  0.06312575  0.83550675  1  -0.049735  0  -0.239623  -0.42367  0  3.891108  0
C  C162  1  0.06286773  0.39153257  0.83552876  1  -0.06625  0  -0.240153  -0.4231  0  3.893011  0
C  C163  1  0.60844649  0.29007475  0.16442273  1  -0.07364  0  -0.239589  -0.422619  0  3.891346  0
C  C164  1  0.29002434  0.93687492  0.16449259  1  -0.050233  0  -0.239595  -0.423562  0  3.890988  0
C  C165  1  0.93713067  0.60847190  0.16447206  1  -0.06633  0  -0.240165  -0.42316  0  3.893119  0
C  C166  1  0.43817371  0.81754137  0.69851694  1  0.326051  0  -0.049321  -0.097602  0  3.86798  0
C  C167  1  0.81765589  0.04584746  0.69839072  1  0.287898  0  -0.049381  -0.099644  0  3.868405  0
C  C168  1  0.04561066  0.43815147  0.69847897  1  0.352314  0  -0.048882  -0.099056  0  3.868988  0
C  C169  1  0.56183051  0.18245751  0.30148120  1  0.325947  0  -0.049375  -0.097719  0  3.868161  0
C  C170  1  0.18234178  0.95415062  0.30161111  1  0.287866  0  -0.049317  -0.099456  0  3.868175  0
C  C171  1  0.95438846  0.56185071  0.30152241  1  0.352567  0  -0.048832  -0.098917  0  3.868976  0
C  C172  1  0.45714935  0.97221650  0.61784498  1  0.516144  0  0.101927  0.131147  0  3.845067  0
C  C173  1  0.97230207  0.95259318  0.61782128  1  0.51233  0  0.101714  0.131083  0  3.84121  0
C  C174  1  0.95248481  0.45716675  0.61791231  1  0.544497  0  0.101905  0.132293  0  3.842119  0
C  C175  1  0.54285343  0.02778630  0.38215175  1  0.516207  0  0.101988  0.13124  0  3.845145  0
C  C176  1  0.02769706  0.04740568  0.38217871  1  0.512103  0  0.101664  0.130962  0  3.841315  0
C  C177  1  0.04751504  0.54283582  0.38208763  1  0.545168  0  0.101844  0.132132  0  3.842062  0
C  C178  1  0.51503337  0.02785439  0.56808283  1  -0.008164  0  -0.034518  -0.099645  0  4.022214  0
C  C179  1  0.02790484  0.88870602  0.56813504  1  0.050126  0  -0.034631  -0.101726  0  4.023203  0
C  C180  1  0.88871608  0.51515501  0.56816777  1  0.00077  0  -0.034561  -0.10096  0  4.02153  0
C  C181  1  0.48496865  0.97214666  0.43191791  1  -0.008071  0  -0.03447  -0.099582  0  4.022017  0
C  C182  1  0.97209429  0.11129351  0.43186470  1  0.050351  0  -0.034619  -0.101704  0  4.023196  0
C  C183  1  0.11128669  0.48484911  0.43182952  1  0.000337  0  -0.034578  -0.10085  0  4.021282  0
C  C184  1  0.46630953  0.12960337  0.54025421  1  -0.031163  0  -0.079935  -0.077329  0  3.987391  0
C  C185  1  0.12967667  0.86331465  0.54038234  1  -0.091094  0  -0.07928  -0.074575  0  3.982292  0
C  C186  1  0.86341414  0.46659055  0.54026172  1  -0.090707  0  -0.079312  -0.075636  0  3.982041  0
C  C187  1  0.53369467  0.87039884  0.45974532  1  -0.031087  0  -0.080001  -0.07743  0  3.987251  0
C  C188  1  0.87032173  0.13668583  0.45961732  1  -0.091127  0  -0.079257  -0.074498  0  3.98225  0
C  C189  1  0.13658643  0.53341240  0.45973886  1  -0.0905  0  -0.079313  -0.075667  0  3.981976  0
C  C190  1  0.51740007  0.18861708  0.49226484  1  -0.046989  0  -0.11181  -0.132209  0  4.052516  0
C  C191  1  0.18865877  0.80110744  0.49244233  1  -0.014934  0  -0.112419  -0.134363  0  4.049057  0
C  C192  1  0.80129925  0.51783087  0.49225591  1  -0.01639  0  -0.112538  -0.132952  0  4.048694  0
C  C193  1  0.48260484  0.81138349  0.50773607  1  -0.04704  0  -0.111782  -0.132209  0  4.052445  0
C  C194  1  0.81133891  0.19889399  0.50755725  1  -0.014792  0  -0.112342  -0.134305  0  4.049035  0
C  C195  1  0.19869840  0.48217253  0.50774712  1  -0.016498  0  -0.112457  -0.13287  0  4.048604  0
C  C196  1  0.61970906  0.14631733  0.46974966  1  -0.006266  0  -0.080895  -0.032602  0  4.009472  0
C  C197  1  0.14630598  0.76363663  0.46995725  1  -0.047892  0  -0.079877  -0.03114  0  4.008947  0
C  C198  1  0.76394046  0.62012961  0.46979829  1  -0.029598  0  -0.08015  -0.031481  0  4.008718  0
C  C199  1  0.38029657  0.85368161  0.53025314  1  -0.005996  0  -0.080938  -0.032801  0  4.009615  0
C  C200  1  0.85369244  0.23636586  0.53004064  1  -0.048295  0  -0.079968  -0.031211  0  4.008845  0
C  C201  1  0.23605793  0.37987351  0.53020405  1  -0.029431  0  -0.080229  -0.031596  0  4.008799  0
C  C202  1  0.66977168  0.04690480  0.49454847  1  -0.052258  0  -0.107727  -0.231288  0  3.955467  0
C  C203  1  0.04686911  0.78833868  0.49469819  1  -0.052868  0  -0.108729  -0.233664  0  3.952782  0
C  C204  1  0.78860372  0.67003591  0.49466762  1  -0.093602  0  -0.108379  -0.232107  0  3.953717  0
C  C205  1  0.33023251  0.95309339  0.50545252  1  -0.052094  0  -0.107636  -0.231121  0  3.955692  0
C  C206  1  0.95313077  0.21166325  0.50529886  1  -0.0528  0  -0.108674  -0.233567  0  3.952659  0
C  C207  1  0.21139831  0.32996648  0.50533160  1  -0.093596  0  -0.108336  -0.232181  0  3.953752  0
C  C208  1  0.61975087  0.98424809  0.54537064  1  0.705688  0  0.105342  0.348988  0  4.080242  0
C  C209  1  0.98423947  0.85039757  0.54539488  1  0.685507  0  0.10407  0.349465  0  4.07824  0
C  C210  1  0.85049419  0.61984882  0.54546211  1  0.749322  0  0.105065  0.348611  0  4.079438  0
C  C211  1  0.38025041  0.01575123  0.45463203  1  0.705685  0  0.105328  0.348961  0  4.080193  0
C  C212  1  0.01575895  0.14960292  0.45460374  1  0.685506  0  0.104113  0.349479  0  4.078109  0
C  C213  1  0.14950858  0.38015463  0.45453594  1  0.749497  0  0.105053  0.348665  0  4.079485  0
N  N214  1  0.21504842  0.16949480  0.70720086  1  0.813696  0  0.08755  0.71661  0  4.423643  0
N  N215  1  0.16948668  0.90826042  0.70716255  1  0.811546  0  0.08604  0.716594  0  4.419003  0
N  N216  1  0.90830901  0.21507078  0.70713267  1  0.843766  0  0.085833  0.714138  0  4.420422  0
N  N217  1  0.78495290  0.83050323  0.29279656  1  0.815297  0  0.087557  0.716588  0  4.423698  0
N  N218  1  0.83051680  0.09173741  0.29283624  1  0.811569  0  0.086058  0.716631  0  4.419216  0
N  N219  1  0.09168943  0.78492840  0.29286278  1  0.844076  0  0.085725  0.714106  0  4.421181  0
N  N220  1  0.36233284  0.87687418  0.81820421  1  -1.228275  0  -0.368375  -0.199528  0  3.564954  0
N  N221  1  0.87694081  0.94292239  0.81807110  1  -1.23256  0  -0.368508  -0.19804  0  3.563279  0
N  N222  1  0.94262545  0.36219533  0.81814179  1  -1.223367  0  -0.366487  -0.195715  0  3.562491  0
N  N223  1  0.63766632  0.12312671  0.18179244  1  -1.228265  0  -0.368352  -0.199529  0  3.564983  0
N  N224  1  0.12305540  0.05707826  0.18193085  1  -1.232738  0  -0.368502  -0.198032  0  3.563296  0
N  N225  1  0.05737366  0.63780550  0.18186060  1  -1.223269  0  -0.366571  -0.195733  0  3.562642  0
N  N226  1  0.49345161  0.87786786  0.64774449  1  -1.235985  0  -0.374132  -0.167394  0  3.65243  0
N  N227  1  0.87792557  0.98092316  0.64766348  1  -1.238033  0  -0.373639  -0.166074  0  3.650268  0
N  N228  1  0.98071047  0.49342688  0.64779094  1  -1.27425  0  -0.374259  -0.166581  0  3.650597  0
N  N229  1  0.50655043  0.12213521  0.35225345  1  -1.236021  0  -0.374143  -0.167454  0  3.652663  0
N  N230  1  0.12207355  0.01907635  0.35233730  1  -1.23801  0  -0.373634  -0.166046  0  3.650244  0
N  N231  1  0.01928937  0.50657501  0.35221028  1  -1.274867  0  -0.374229  -0.166539  0  3.650547  0
N  N232  1  0.68706474  0.63772382  0.74850376  1  0.841804  0  0.089333  0.724302  0  4.414994  0
N  N233  1  0.63769049  0.92691080  0.74853048  1  0.846107  0  0.089587  0.725763  0  4.411565  0
N  N234  1  0.92665748  0.68707755  0.74862261  1  0.839399  0  0.089604  0.726001  0  4.410942  0
N  N235  1  0.31294090  0.36227048  0.25149708  1  0.841866  0  0.089329  0.724289  0  4.414901  0
N  N236  1  0.36230861  0.07308604  0.25147231  1  0.846338  0  0.089544  0.725759  0  4.411543  0
N  N237  1  0.07334451  0.31291480  0.25138232  1  0.839317  0  0.089813  0.726341  0  4.410729  0
O  O238  1  0.18158118  0.99762616  0.86933753  1  -1.189018  0  -0.410737  -0.597534  0  2.296962  0
O  O239  1  0.99744575  0.95182993  0.86951373  1  -1.228587  0  -0.409881  -0.594232  0  2.298179  0
O  O240  1  0.95156608  0.18135044  0.86941434  1  -1.201662  0  -0.410375  -0.595269  0  2.299549  0
O  O241  1  0.81841868  0.00237176  0.13066150  1  -1.189213  0  -0.410758  -0.597549  0  2.29685  0
O  O242  1  0.00255264  0.04817120  0.13048778  1  -1.228732  0  -0.409894  -0.594281  0  2.298239  0
O  O243  1  0.04843524  0.81864892  0.13058363  1  -1.201619  0  -0.410349  -0.595271  0  2.299495  0
O  O244  1  0.13272269  0.20319228  0.75656856  1  -0.590595  0  -0.232161  -0.49419  0  2.066299  0
O  O245  1  0.20321454  0.90755151  0.75648467  1  -0.592281  0  -0.232105  -0.495036  0  2.065619  0
O  O246  1  0.90756566  0.13274866  0.75642485  1  -0.595969  0  -0.23269  -0.495317  0  2.067406  0
O  O247  1  0.86728081  0.79680623  0.24342842  1  -0.590558  0  -0.232239  -0.494241  0  2.066242  0
O  O248  1  0.79678530  0.09244771  0.24351752  1  -0.592135  0  -0.232114  -0.49505  0  2.065805  0
O  O249  1  0.09243202  0.86725277  0.24357421  1  -0.596086  0  -0.232675  -0.495251  0  2.067473  0
O  O250  1  0.27911284  0.19999091  0.68505126  1  -0.466949  0  -0.146539  -0.378186  0  1.93614  0
O  O251  1  0.20006085  0.83587703  0.68492940  1  -0.465663  0  -0.144343  -0.376486  0  1.934367  0
O  O252  1  0.83593832  0.27915004  0.68492844  1  -0.488759  0  -0.14473  -0.375953  0  1.933769  0
O  O253  1  0.72088994  0.80000656  0.31494428  1  -0.46697  0  -0.146467  -0.378094  0  1.936278  0
O  O254  1  0.79994555  0.16412235  0.31506674  1  -0.46576  0  -0.144315  -0.376468  0  1.934448  0
O  O255  1  0.16406308  0.72084205  0.31506020  1  -0.488619  0  -0.144685  -0.376004  0  1.934235  0
O  O256  1  0.22672458  0.10202494  0.68278811  1  -0.584475  0  -0.228466  -0.493853  0  1.977299  0
O  O257  1  0.10190182  0.98839594  0.68288648  1  -0.58165  0  -0.228748  -0.494418  0  1.975041  0
O  O258  1  0.98848004  0.22674425  0.68285405  1  -0.588007  0  -0.227423  -0.492298  0  1.975703  0
O  O259  1  0.77327528  0.89797298  0.31721040  1  -0.586117  0  -0.228478  -0.49389  0  1.977297  0
O  O260  1  0.89810239  0.01160027  0.31711211  1  -0.581697  0  -0.228773  -0.494423  0  1.97502  0
O  O261  1  0.01151618  0.77325908  0.31714640  1  -0.588403  0  -0.22738  -0.492286  0  1.97588  0
O  O262  1  0.66666048  0.89036642  0.57095568  1  -1.204004  0  -0.420581  -0.597423  0  2.295073  0
O  O263  1  0.89032880  0.87199083  0.57090152  1  -1.206763  0  -0.420103  -0.597507  0  2.293402  0
O  O264  1  0.87201998  0.66662109  0.57108072  1  -1.201397  0  -0.420484  -0.596989  0  2.294595  0
O  O265  1  0.33334081  0.10963425  0.42904442  1  -1.204024  0  -0.420609  -0.597449  0  2.295049  0
O  O266  1  0.10967105  0.12800707  0.42909907  1  -1.206728  0  -0.420158  -0.597571  0  2.29324  0
O  O267  1  0.12798716  0.33338268  0.42891356  1  -1.2013  0  -0.420505  -0.597051  0  2.294748  0
O  O268  1  0.66373866  0.70220312  0.68537997  1  -0.586366  0  -0.226144  -0.485185  0  2.024013  0
O  O269  1  0.70218353  0.94884749  0.68539238  1  -0.589278  0  -0.224721  -0.484074  0  2.024256  0
O  O270  1  0.94870602  0.66369689  0.68549315  1  -0.587307  0  -0.22567  -0.485732  0  2.02392  0
O  O271  1  0.33626844  0.29779195  0.31462006  1  -0.586508  0  -0.226146  -0.485185  0  2.024135  0
O  O272  1  0.29781918  0.05114791  0.31461223  1  -0.589405  0  -0.224724  -0.48413  0  2.024247  0
O  O273  1  0.05129959  0.33629737  0.31451134  1  -0.587158  0  -0.225712  -0.485747  0  2.023926  0
O  O274  1  0.63966610  0.58691621  0.79495446  1  -0.506476  0  -0.157004  -0.394141  0  1.927595  0
O  O275  1  0.58699936  0.97859713  0.79505934  1  -0.508445  0  -0.157096  -0.394441  0  1.927432  0
O  O276  1  0.97822184  0.63959355  0.79522563  1  -0.506098  0  -0.157609  -0.394519  0  1.925137  0
O  O277  1  0.36033663  0.41308187  0.20504814  1  -0.506588  0  -0.157011  -0.39415  0  1.927502  0
O  O278  1  0.41299326  0.02140363  0.20493920  1  -0.508474  0  -0.157061  -0.394408  0  1.927472  0
O  O279  1  0.02178086  0.36039452  0.20477955  1  -0.506098  0  -0.157768  -0.39474  0  1.92509  0
O  O280  1  0.76163331  0.62880840  0.76140693  1  -0.583156  0  -0.233736  -0.505637  0  1.986456  0
O  O281  1  0.62863812  0.84844991  0.76136037  1  -0.582958  0  -0.234882  -0.50784  0  1.984692  0
O  O282  1  0.84819576  0.76181091  0.76137389  1  -0.579695  0  -0.233455  -0.506335  0  1.985118  0
O  O283  1  0.23837525  0.37118278  0.23859139  1  -0.582996  0  -0.233748  -0.505629  0  1.986357  0
O  O284  1  0.37136314  0.15154540  0.23864376  1  -0.583047  0  -0.234876  -0.507796  0  1.984594  0
O  O285  1  0.15180624  0.23818078  0.23863024  1  -0.579782  0  -0.233474  -0.506427  0  1.985043  0
