# generated using pymatgen
data_Cu6H20WC20S4(IN)4
_symmetry_space_group_name_H-M   'P 1'
_cell_length_a   12.86856819
_cell_length_b   12.86863138
_cell_length_c   12.86864938
_cell_angle_alpha   69.64118264
_cell_angle_beta   72.28916105
_cell_angle_gamma   110.35912294
_symmetry_Int_Tables_number   1
_chemical_formula_structural   Cu6H20WC20S4(IN)4
_chemical_formula_sum   'Cu12 H40 W2 C40 S8 I8 N8'
_cell_volume   1639.31463102
_cell_formula_units_Z   2
loop_
 _symmetry_equiv_pos_site_id
 _symmetry_equiv_pos_as_xyz
  1  'x, y, z'
loop_
 _atom_site_type_symbol
 _atom_site_label
 _atom_site_symmetry_multiplicity
 _atom_site_fract_x
 _atom_site_fract_y
 _atom_site_fract_z
 _atom_site_occupancy
 _atom_site_hle17_bader_spin_density
 _atom_site_hle17_ddec_charge
 _atom_site_hle17_ddec_spin_density
 _atom_site_hle17_ddec_sum_bond_order
 _atom_site_hle17_magmom
 _atom_site_hse06_10hf_bader_spin_density
 _atom_site_hse06_10hf_ddec_charge
 _atom_site_hse06_10hf_ddec_spin_density
 _atom_site_hse06_10hf_ddec_sum_bond_order
 _atom_site_hse06_10hf_magmom
 _atom_site_hse06_bader_spin_density
 _atom_site_hse06_ddec_charge
 _atom_site_hse06_ddec_spin_density
 _atom_site_hse06_ddec_sum_bond_order
 _atom_site_hse06_magmom
 _atom_site_pbe_bader_spin_density
 _atom_site_pbe_cm5_charge
 _atom_site_pbe_ddec_charge
 _atom_site_pbe_ddec_spin_density
 _atom_site_pbe_ddec_sum_bond_order
 _atom_site_pbe_magmom
Cu  Cu0  1  0.57513024  0.49999574  0.92487016  1  0  0.382072  0  2.2343  0  0  0.322452  0  2.7081  0  0  0.322155  0  2.66764  0  0  0.279959  0.322128  0  2.736373  0
Cu  Cu1  1  0.92486863  0.49999928  0.57513064  1  0  0.382221  0  2.234712  0  0  0.32266  0  2.708525  0  0  0.322367  0  2.668061  0  0  0.280045  0.322317  0  2.736859  0
Cu  Cu2  1  0.32516289  0.99999688  0.67483684  1  0  0.381615  0  2.233993  0  0  0.321958  0  2.707759  0  0  0.321661  0  2.667315  0  0  0.279467  0.321586  0  2.736073  0
Cu  Cu3  1  0.67483715  0.00000308  0.32516680  1  0  0.381555  0  2.233891  0  0  0.321886  0  2.707588  0  0  0.321604  0  2.667156  0  0  0.279444  0.321532  0  2.735911  0
Cu  Cu4  1  0.62383333  0.45645071  0.62526520  1  0  0.423533  0  2.182631  0  0  0.360767  0  2.635846  0  0  0.351946  0  2.60519  0  0  0.383506  0.36695  0  2.657586  0
Cu  Cu5  1  0.83261009  0.75090008  0.62383905  1  0  0.423466  0  2.182603  0  0  0.360687  0  2.635829  0  0  0.351875  0  2.605176  0  0  0.383447  0.366869  0  2.657577  0
Cu  Cu6  1  0.91828952  0.54355034  0.83261324  1  0  0.423493  0  2.182707  0  0  0.360706  0  2.635948  0  0  0.351871  0  2.605275  0  0  0.383454  0.36689  0  2.657683  0
Cu  Cu7  1  0.62525705  0.24909533  0.91829122  1  0  0.423362  0  2.18267  0  0  0.360578  0  2.635906  0  0  0.351767  0  2.60525  0  0  0.383383  0.366758  0  2.657642  0
Cu  Cu8  1  0.41714689  0.04348426  0.33177457  1  0  0.42376  0  2.18022  0  0  0.360782  0  2.63343  0  0  0.352011  0  2.602704  0  0  0.383341  0.366929  0  2.655183  0
Cu  Cu9  1  0.33177505  0.74892271  0.62474294  1  0  0.423794  0  2.180331  0  0  0.360839  0  2.633536  0  0  0.352076  0  2.602821  0  0  0.383397  0.366988  0  2.655296  0
Cu  Cu10  1  0.62474129  0.95651911  0.62633561  1  0  0.423776  0  2.180252  0  0  0.360805  0  2.633468  0  0  0.352019  0  2.602734  0  0  0.383403  0.366953  0  2.655243  0
Cu  Cu11  1  0.62633306  0.25107885  0.41714938  1  0  0.423761  0  2.180344  0  0  0.360815  0  2.63354  0  0  0.352055  0  2.60282  0  0  0.383402  0.36696  0  2.65529  0
H  H12  1  0.39472665  0.29956382  0.62538530  1  0  0.067933  0  0.972078  0  0  0.07157  0  1.049759  0  0  0.07451  0  1.046601  0  0  0.096859  0.069502  0  1.051701  0
H  H13  1  0.90483567  0.97988786  0.39472500  1  0  0.067856  0  0.972138  0  0  0.0715  0  1.049831  0  0  0.074437  0  1.046675  0  0  0.096826  0.069434  0  1.051773  0
H  H14  1  0.07505259  0.70043513  0.90483593  1  0  0.067951  0  0.972058  0  0  0.07158  0  1.04976  0  0  0.07452  0  1.046601  0  0  0.096853  0.069513  0  1.0517  0
H  H15  1  0.62538049  0.02010844  0.07506079  1  0  0.067901  0  0.972126  0  0  0.07153  0  1.049838  0  0  0.074467  0  1.046683  0  0  0.096876  0.069465  0  1.05178  0
H  H16  1  0.34494028  0.20044224  0.17487455  1  0  0.0679  0  0.971603  0  0  0.071334  0  1.049502  0  0  0.074299  0  1.046327  0  0  0.096748  0.069276  0  1.051456  0
H  H17  1  0.17487393  0.51981057  0.62469193  1  0  0.068023  0  0.971501  0  0  0.071343  0  1.049502  0  0  0.074333  0  1.046306  0  0  0.096722  0.069286  0  1.051456  0
H  H18  1  0.62468493  0.79955885  0.85549940  1  0  0.067918  0  0.971614  0  0  0.071319  0  1.04954  0  0  0.07429  0  1.04636  0  0  0.096727  0.069263  0  1.051495  0
H  H19  1  0.85549527  0.48019015  0.34493918  1  0  0.067991  0  0.971502  0  0  0.071345  0  1.049492  0  0  0.074335  0  1.046297  0  0  0.096727  0.069289  0  1.051446  0
H  H20  1  0.28024122  0.33919913  0.50409890  1  0  0.097121  0  0.96909  0  0  0.1107  0  1.02603  0  0  0.112996  0  1.026374  0  0  0.103048  0.108959  0  1.026167  0
H  H21  1  0.05896271  0.21566178  0.28022868  1  0  0.09723  0  0.969005  0  0  0.110742  0  1.026004  0  0  0.113036  0  1.026347  0  0  0.103065  0.108999  0  1.02614  0
H  H22  1  0.15670161  0.66080083  0.05895751  1  0  0.097153  0  0.969098  0  0  0.110729  0  1.026035  0  0  0.113025  0  1.026378  0  0  0.103054  0.108989  0  1.026175  0
H  H23  1  0.50410297  0.78433565  0.15670742  1  0  0.097146  0  0.969045  0  0  0.110731  0  1.025969  0  0  0.113025  0  1.026312  0  0  0.103068  0.108993  0  1.026107  0
H  H24  1  0.19086064  0.16081980  0.09320115  1  0  0.096939  0  0.969631  0  0  0.110789  0  1.026282  0  0  0.113094  0  1.02664  0  0  0.102983  0.109049  0  1.026411  0
H  H25  1  0.09321276  0.28406173  0.74599037  1  0  0.096997  0  0.969829  0  0  0.110813  0  1.026489  0  0  0.113119  0  1.026842  0  0  0.102995  0.109071  0  1.02662  0
H  H26  1  0.74598023  0.83918060  0.96995411  1  0  0.09692  0  0.969627  0  0  0.110779  0  1.026266  0  0  0.113085  0  1.026625  0  0  0.102999  0.109038  0  1.026397  0
H  H27  1  0.96994939  0.71594127  0.19085030  1  0  0.096938  0  0.969896  0  0  0.110791  0  1.026515  0  0  0.113098  0  1.026868  0  0  0.102971  0.10905  0  1.026648  0
H  H28  1  0.36806389  0.56246276  0.33060110  1  0  0.087114  0  0.970701  0  0  0.096455  0  1.035674  0  0  0.099269  0  1.033616  0  0  0.090628  0.09391  0  1.03824  0
H  H29  1  0.19440199  0.30133663  0.36805073  1  0  0.087155  0  0.970708  0  0  0.096513  0  1.03567  0  0  0.099337  0  1.033587  0  0  0.09064  0.093968  0  1.038236  0
H  H30  1  0.10693413  0.43753769  0.19439781  1  0  0.08713  0  0.970713  0  0  0.096456  0  1.035687  0  0  0.099271  0  1.033621  0  0  0.090632  0.093911  0  1.038254  0
H  H31  1  0.33060951  0.69866058  0.10693657  1  0  0.087166  0  0.970689  0  0  0.096505  0  1.035657  0  0  0.099322  0  1.03359  0  0  0.090648  0.09396  0  1.038222  0
H  H32  1  0.05554485  0.93760390  0.14283268  1  0  0.087317  0  0.970778  0  0  0.096249  0  1.036245  0  0  0.099062  0  1.034153  0  0  0.090676  0.093698  0  1.038842  0
H  H33  1  0.14284321  0.19837482  0.91956957  1  0  0.087288  0  0.970784  0  0  0.096206  0  1.036278  0  0  0.099018  0  1.034191  0  0  0.090662  0.093653  0  1.038882  0
H  H34  1  0.91956123  0.06239519  0.88206020  1  0  0.087262  0  0.970696  0  0  0.09619  0  1.036188  0  0  0.099009  0  1.034076  0  0  0.09065  0.093643  0  1.038768  0
H  H35  1  0.88205756  0.80162762  0.05553163  1  0  0.087361  0  0.970808  0  0  0.096263  0  1.036315  0  0  0.099079  0  1.034211  0  0  0.090687  0.093712  0  1.038907  0
H  H36  1  0.57319183  0.74097912  0.28574985  1  0  0.092209  0  0.983025  0  0  0.100776  0  1.049359  0  0  0.103454  0  1.049039  0  0  0.091736  0.098973  0  1.049473  0
H  H37  1  0.16778776  0.14106744  0.57318088  1  0  0.092188  0  0.98311  0  0  0.100773  0  1.049396  0  0  0.103435  0  1.049112  0  0  0.091755  0.09897  0  1.04951  0
H  H38  1  0.97327026  0.25901937  0.16778625  1  0  0.092238  0  0.982924  0  0  0.100788  0  1.049292  0  0  0.103465  0  1.048974  0  0  0.091715  0.098985  0  1.049404  0
H  H39  1  0.28574947  0.85893023  0.97327819  1  0  0.092135  0  0.983138  0  0  0.100738  0  1.049421  0  0  0.103407  0  1.049116  0  0  0.091726  0.098937  0  1.049538  0
H  H40  1  0.08217124  0.75908240  0.27648486  1  0  0.092545  0  0.982488  0  0  0.100874  0  1.049053  0  0  0.103525  0  1.04879  0  0  0.091887  0.099071  0  1.049161  0
H  H41  1  0.27648855  0.35866168  0.96443659  1  0  0.092653  0  0.982557  0  0  0.101018  0  1.049095  0  0  0.103677  0  1.048812  0  0  0.091932  0.099213  0  1.049208  0
H  H42  1  0.96443237  0.24091747  0.67691122  1  0  0.092546  0  0.982493  0  0  0.100882  0  1.049039  0  0  0.10353  0  1.048779  0  0  0.091901  0.099078  0  1.049146  0
H  H43  1  0.67690509  0.64133989  0.08217184  1  0  0.092584  0  0.982553  0  0  0.100955  0  1.049068  0  0  0.103603  0  1.048811  0  0  0.091918  0.099152  0  1.049177  0
H  H44  1  0.67290177  0.68670510  0.41549272  1  0  0.072711  0  0.970728  0  0  0.081221  0  1.037889  0  0  0.083066  0  1.036338  0  0  0.096133  0.079808  0  1.03904  0
H  H45  1  0.01379591  0.91161261  0.67290153  1  0  0.072658  0  0.970787  0  0  0.081227  0  1.037894  0  0  0.083094  0  1.036317  0  0  0.096126  0.079812  0  1.039044  0
H  H46  1  0.89780398  0.31329617  0.01380012  1  0  0.07268  0  0.970771  0  0  0.081229  0  1.037892  0  0  0.083085  0  1.03633  0  0  0.09612  0.079814  0  1.039042  0
H  H47  1  0.41548513  0.08838492  0.89781598  1  0  0.072653  0  0.970784  0  0  0.081234  0  1.037895  0  0  0.083089  0  1.036329  0  0  0.096123  0.07982  0  1.039046  0
H  H48  1  0.23598491  0.81329518  0.35212816  1  0  0.072609  0  0.971249  0  0  0.081026  0  1.038428  0  0  0.082813  0  1.036929  0  0  0.095929  0.079668  0  1.039529  0
H  H49  1  0.35212412  0.58811693  0.83458060  1  0  0.072527  0  0.971293  0  0  0.081036  0  1.038377  0  0  0.082821  0  1.036882  0  0  0.095939  0.079678  0  1.03948  0
H  H50  1  0.83458037  0.18670848  0.57730487  1  0  0.07253  0  0.971258  0  0  0.081048  0  1.038335  0  0  0.082838  0  1.036832  0  0  0.095943  0.07969  0  1.039437  0
H  H51  1  0.57730116  0.41188308  0.23599327  1  0  0.072571  0  0.971275  0  0  0.081061  0  1.038373  0  0  0.082848  0  1.036875  0  0  0.095939  0.079702  0  1.039474  0
W  W52  1  0.74999370  0.49999795  0.75000441  1  0  0.558266  0  5.237176  0  0  0.578649  0  5.839108  0  0  0.649493  0  5.774447  0  0  0.727838  0.533889  0  5.879112  0
W  W53  1  0.50000159  0.00000105  0.49999837  1  0  0.559074  0  5.236006  0  0  0.579549  0  5.837473  0  0  0.650351  0  5.772945  0  0  0.728288  0.534775  0  5.877484  0
C  C54  1  0.43005224  0.39594914  0.54960087  1  0  0.12411  0  3.685834  0  0  0.095119  0  3.93279  0  0  0.101681  0  3.950271  0  0  0.03633  0.091234  0  3.920457  0
C  C55  1  0.96589911  0.02034757  0.43004339  1  0  0.124321  0  3.685933  0  0  0.095305  0  3.932866  0  0  0.101876  0  3.950343  0  0  0.03642  0.091417  0  3.920534  0
C  C56  1  0.05445160  0.60405158  0.96589588  1  0  0.124126  0  3.685987  0  0  0.095108  0  3.932953  0  0  0.10167  0  3.950434  0  0  0.036328  0.091223  0  3.92062  0
C  C57  1  0.54960201  0.97964906  0.05445731  1  0  0.124209  0  3.685926  0  0  0.095211  0  3.932856  0  0  0.101774  0  3.950333  0  0  0.036336  0.091318  0  3.920527  0
C  C58  1  0.28391034  0.10405761  0.19546957  1  0  0.123953  0  3.687076  0  0  0.095223  0  3.933776  0  0  0.101774  0  3.951248  0  0  0.036132  0.091319  0  3.921426  0
C  C59  1  0.19547489  0.47938130  0.70048294  1  0  0.123933  0  3.686958  0  0  0.095361  0  3.933561  0  0  0.101888  0  3.951023  0  0  0.03632  0.091464  0  3.921194  0
C  C60  1  0.70047499  0.89594476  0.82014202  1  0  0.12395  0  3.687072  0  0  0.095282  0  3.933716  0  0  0.101827  0  3.951188  0  0  0.036208  0.091381  0  3.921356  0
C  C61  1  0.82013608  0.52062184  0.28390630  1  0  0.124046  0  3.686895  0  0  0.095396  0  3.933566  0  0  0.101921  0  3.951032  0  0  0.036357  0.091497  0  3.921201  0
C  C62  1  0.36751177  0.41864187  0.48096299  1  0  -0.1202  0  3.7466  0  0  -0.129592  0  3.989144  0  0  -0.138208  0  4.013226  0  0  -0.088426  -0.124075  0  3.97264  0
C  C63  1  0.05113400  0.15152568  0.36749257  1  0  -0.12037  0  3.746739  0  0  -0.129695  0  3.989282  0  0  -0.138311  0  4.013368  0  0  -0.088473  -0.12417  0  3.97277  0
C  C64  1  0.10039677  0.58136136  0.05112738  1  0  -0.120291  0  3.746698  0  0  -0.129688  0  3.989237  0  0  -0.138303  0  4.013316  0  0  -0.088482  -0.124172  0  3.972737  0
C  C65  1  0.48097171  0.84847092  0.10040184  1  0  -0.12032  0  3.746682  0  0  -0.129717  0  3.989218  0  0  -0.138332  0  4.013301  0  0  -0.088486  -0.124199  0  3.972712  0
C  C66  1  0.19870499  0.08137922  0.14950048  1  0  -0.120089  0  3.747979  0  0  -0.129707  0  3.990291  0  0  -0.138366  0  4.014415  0  0  -0.088031  -0.124173  0  3.973783  0
C  C67  1  0.14949928  0.34819517  0.76913086  1  0  -0.12016  0  3.747952  0  0  -0.129762  0  3.990229  0  0  -0.138421  0  4.014353  0  0  -0.088067  -0.124226  0  3.973722  0
C  C68  1  0.76911987  0.91861832  0.88267159  1  0  -0.120063  0  3.747917  0  0  -0.129712  0  3.990224  0  0  -0.138376  0  4.014354  0  0  -0.088036  -0.124179  0  3.973716  0
C  C69  1  0.88267889  0.65180780  0.19869463  1  0  -0.12015  0  3.747871  0  0  -0.129763  0  3.990156  0  0  -0.138423  0  4.014279  0  0  -0.088084  -0.124229  0  3.973654  0
C  C70  1  0.41672930  0.54331338  0.38453405  1  0  -0.008505  0  3.737646  0  0  -0.028283  0  3.983427  0  0  -0.023616  0  4.001663  0  0  -0.073219  -0.030706  0  3.970622  0
C  C71  1  0.12659076  0.19874549  0.41670731  1  0  -0.008532  0  3.737394  0  0  -0.028335  0  3.983169  0  0  -0.023665  0  4.0014  0  0  -0.073209  -0.030759  0  3.970362  0
C  C72  1  0.07215397  0.45669050  0.12658278  1  0  -0.008557  0  3.737625  0  0  -0.028283  0  3.983373  0  0  -0.023613  0  4.001607  0  0  -0.073245  -0.030708  0  3.970572  0
C  C73  1  0.38454399  0.80125398  0.07215884  1  0  -0.008491  0  3.737334  0  0  -0.028257  0  3.983117  0  0  -0.023586  0  4.001345  0  0  -0.073211  -0.030681  0  3.970315  0
C  C74  1  0.12332132  0.95673901  0.17764276  1  0  -0.00871  0  3.737131  0  0  -0.028246  0  3.983294  0  0  -0.023551  0  4.001523  0  0  -0.07336  -0.030687  0  3.970502  0
C  C75  1  0.17765603  0.30096322  0.86562741  1  0  -0.008566  0  3.737129  0  0  -0.0281  0  3.983299  0  0  -0.023408  0  4.001527  0  0  -0.07335  -0.030542  0  3.970505  0
C  C76  1  0.86561926  0.04326119  0.83341404  1  0  -0.00857  0  3.737008  0  0  -0.028092  0  3.983146  0  0  -0.023391  0  4.001371  0  0  -0.073268  -0.030529  0  3.970352  0
C  C77  1  0.83341407  0.69904051  0.12330471  1  0  -0.008698  0  3.737108  0  0  -0.028237  0  3.9833  0  0  -0.023538  0  4.001526  0  0  -0.073413  -0.030675  0  3.970505  0
C  C78  1  0.52830667  0.64135878  0.35986351  1  0  -0.120347  0  3.750992  0  0  -0.127965  0  3.993961  0  0  -0.136929  0  4.017822  0  0  -0.091067  -0.122088  0  3.977326  0
C  C79  1  0.11305478  0.11182958  0.52830487  1  0  -0.120229  0  3.750728  0  0  -0.127857  0  3.993748  0  0  -0.136824  0  4.017615  0  0  -0.091061  -0.121979  0  3.977113  0
C  C80  1  0.99877863  0.35864284  0.11305169  1  0  -0.12028  0  3.750813  0  0  -0.127906  0  3.993791  0  0  -0.136871  0  4.017657  0  0  -0.091048  -0.122025  0  3.977154  0
C  C81  1  0.35986301  0.88816788  0.99877496  1  0  -0.120288  0  3.750746  0  0  -0.127948  0  3.993753  0  0  -0.136913  0  4.01762  0  0  -0.091096  -0.122071  0  3.977124  0
C  C82  1  0.13687877  0.85868570  0.25100834  1  0  -0.12002  0  3.748576  0  0  -0.127388  0  3.991451  0  0  -0.136356  0  4.0153  0  0  -0.091109  -0.1215  0  3.974816  0
C  C83  1  0.25101288  0.38788418  0.89031585  1  0  -0.120306  0  3.748811  0  0  -0.127714  0  3.991716  0  0  -0.136684  0  4.015566  0  0  -0.0912  -0.121826  0  3.975087  0
C  C84  1  0.89030687  0.14131524  0.72180408  1  0  -0.120127  0  3.748604  0  0  -0.127509  0  3.991492  0  0  -0.136476  0  4.01534  0  0  -0.091137  -0.121619  0  3.974855  0
C  C85  1  0.72180256  0.61211795  0.13687108  1  0  -0.120195  0  3.748712  0  0  -0.127587  0  3.991591  0  0  -0.136564  0  4.015442  0  0  -0.091142  -0.121702  0  3.974958  0
C  C86  1  0.58585265  0.61200318  0.43228366  1  0  0.132186  0  3.682467  0  0  0.103202  0  3.924723  0  0  0.110131  0  3.943063  0  0  0.035452  0.098889  0  3.912069  0
C  C87  1  0.02614791  0.98187063  0.58584348  1  0  0.132066  0  3.682915  0  0  0.103024  0  3.92516  0  0  0.10994  0  3.943501  0  0  0.035317  0.098715  0  3.912499  0
C  C88  1  0.95571460  0.38799828  0.02614921  1  0  0.132122  0  3.682522  0  0  0.103098  0  3.924777  0  0  0.110016  0  3.943116  0  0  0.035405  0.098787  0  3.91212  0
C  C89  1  0.43228312  0.01812534  0.95572513  1  0  0.132166  0  3.682837  0  0  0.103125  0  3.925056  0  0  0.110043  0  3.9434  0  0  0.035417  0.098815  0  3.912399  0
C  C90  1  0.22372029  0.88802620  0.29415524  1  0  0.131338  0  3.682399  0  0  0.102525  0  3.924585  0  0  0.109501  0  3.942963  0  0  0.035545  0.098179  0  3.911864  0
C  C91  1  0.29415035  0.51787354  0.81782934  1  0  0.131574  0  3.682062  0  0  0.102699  0  3.924265  0  0  0.109672  0  3.942645  0  0  0.035574  0.09835  0  3.911552  0
C  C92  1  0.81782164  0.11197575  0.66430094  1  0  0.131424  0  3.682356  0  0  0.10256  0  3.924503  0  0  0.109534  0  3.942879  0  0  0.035545  0.098211  0  3.911787  0
C  C93  1  0.66429636  0.48212815  0.22372398  1  0  0.131436  0  3.682084  0  0  0.10258  0  3.924262  0  0  0.109556  0  3.942639  0  0  0.03554  0.098231  0  3.911543  0
S  S94  1  0.53619645  0.36676893  0.84580275  1  0  -0.425083  0  2.636241  0  0  -0.406388  0  3.12565  0  0  -0.401244  0  3.090259  0  0  -0.413048  -0.410568  0  3.150103  0
S  S95  1  0.83058412  0.61798848  0.53620681  1  0  -0.425174  0  2.636365  0  0  -0.40651  0  3.125796  0  0  -0.401363  0  3.090399  0  0  -0.413084  -0.410691  0  3.150263  0
S  S96  1  0.78742541  0.63322445  0.83057198  1  0  -0.425129  0  2.636277  0  0  -0.40642  0  3.125639  0  0  -0.401266  0  3.090232  0  0  -0.41306  -0.410601  0  3.150096  0
S  S97  1  0.84580709  0.38201194  0.78740275  1  0  -0.425115  0  2.636232  0  0  -0.406445  0  3.125657  0  0  -0.401295  0  3.090253  0  0  -0.413061  -0.410624  0  3.150116  0
S  S98  1  0.41949520  0.13326979  0.46253414  1  0  -0.425039  0  2.635861  0  0  -0.406211  0  3.125249  0  0  -0.40108  0  3.089844  0  0  -0.412856  -0.410365  0  3.149685  0
S  S99  1  0.46252701  0.88202580  0.40420063  1  0  -0.42505  0  2.635874  0  0  -0.406204  0  3.125217  0  0  -0.401081  0  3.089821  0  0  -0.412875  -0.410366  0  3.149667  0
S  S100  1  0.40419596  0.86672602  0.71377574  1  0  -0.425061  0  2.635892  0  0  -0.406222  0  3.125261  0  0  -0.401087  0  3.08985  0  0  -0.412869  -0.410383  0  3.149718  0
S  S101  1  0.71377996  0.11798300  0.41949691  1  0  -0.425035  0  2.635903  0  0  -0.406179  0  3.125225  0  0  -0.401052  0  3.089821  0  0  -0.412858  -0.410343  0  3.14968  0
I  I102  1  0.41254232  0.49999866  0.08745702  1  0  -0.468858  0  1.138707  0  0  -0.413605  0  1.475596  0  0  -0.430869  0  1.451458  0  0  -0.242908  -0.401263  0  1.493557  0
I  I103  1  0.08745043  0.50000125  0.41254851  1  0  -0.468863  0  1.138738  0  0  -0.41366  0  1.475642  0  0  -0.430923  0  1.451514  0  0  -0.242936  -0.401309  0  1.493609  0
I  I104  1  0.16257234  0.99999793  0.83742772  1  0  -0.468376  0  1.138956  0  0  -0.413207  0  1.476113  0  0  -0.430473  0  1.451953  0  0  -0.24245  -0.400826  0  1.494052  0
I  I105  1  0.83742869  0.00000217  0.16257212  1  0  -0.468369  0  1.138967  0  0  -0.413182  0  1.476093  0  0  -0.430459  0  1.451937  0  0  -0.242452  -0.400811  0  1.494041  0
I  I106  1  0.62504834  0.24740671  0.62755066  1  0  -0.481108  0  1.509835  0  0  -0.450866  0  1.94326  0  0  -0.463333  0  1.909083  0  0  -0.199584  -0.44204  0  1.969072  0
I  I107  1  0.62235557  0.74740115  0.62504934  1  0  -0.48108  0  1.509902  0  0  -0.45084  0  1.943335  0  0  -0.463304  0  1.909151  0  0  -0.199552  -0.44202  0  1.969163  0
I  I108  1  0.12504076  0.75259113  0.62236085  1  0  -0.481151  0  1.510053  0  0  -0.450863  0  1.943418  0  0  -0.463325  0  1.909242  0  0  -0.199667  -0.442041  0  1.969238  0
I  I109  1  0.62755354  0.25260355  0.12504153  1  0  -0.481092  0  1.509918  0  0  -0.450865  0  1.943373  0  0  -0.463329  0  1.909196  0  0  -0.199639  -0.442051  0  1.969194  0
N  N110  1  0.53754952  0.49155665  0.52635829  1  0  -0.278427  0  3.365341  0  0  -0.201135  0  3.645292  0  0  -0.213306  0  3.656237  0  0  -0.368588  -0.193579  0  3.638139  0
N  N111  1  0.95400248  0.93609751  0.53754685  1  0  -0.278481  0  3.365587  0  0  -0.201176  0  3.645542  0  0  -0.213359  0  3.656509  0  0  -0.368657  -0.193618  0  3.638387  0
N  N112  1  0.98209067  0.50844706  0.95400414  1  0  -0.278401  0  3.36549  0  0  -0.201078  0  3.645419  0  0  -0.213249  0  3.656369  0  0  -0.368577  -0.193522  0  3.638263  0
N  N113  1  0.52635012  0.06389601  0.98210222  1  0  -0.278382  0  3.365604  0  0  -0.201097  0  3.645564  0  0  -0.213266  0  3.656512  0  0  -0.368645  -0.193538  0  3.638406  0
N  N114  1  0.29582510  0.00846871  0.26782763  1  0  -0.278219  0  3.366359  0  0  -0.201084  0  3.64624  0  0  -0.213258  0  3.657115  0  0  -0.368558  -0.193513  0  3.639104  0
N  N115  1  0.26782715  0.56365509  0.72370793  1  0  -0.278401  0  3.366403  0  0  -0.201347  0  3.646343  0  0  -0.213519  0  3.657227  0  0  -0.368745  -0.193772  0  3.639213  0
N  N116  1  0.72370613  0.99153307  0.71264042  1  0  -0.278207  0  3.36642  0  0  -0.201128  0  3.646332  0  0  -0.213295  0  3.657196  0  0  -0.368575  -0.193554  0  3.639204  0
N  N117  1  0.71263597  0.43634636  0.29583159  1  0  -0.278291  0  3.366329  0  0  -0.201213  0  3.646256  0  0  -0.213384  0  3.657137  0  0  -0.368701  -0.193641  0  3.639126  0
