# generated using pymatgen
data_Co2H18C24N4O9
_symmetry_space_group_name_H-M   'P 1'
_cell_length_a   10.66284631
_cell_length_b   14.00007944
_cell_length_c   19.13457010
_cell_angle_alpha   89.99991571
_cell_angle_beta   89.99966452
_cell_angle_gamma   103.90316521
_symmetry_Int_Tables_number   1
_chemical_formula_structural   Co2H18C24N4O9
_chemical_formula_sum   'Co8 H72 C96 N16 O36'
_cell_volume   2772.73793469
_cell_formula_units_Z   4
loop_
 _symmetry_equiv_pos_site_id
 _symmetry_equiv_pos_as_xyz
  1  'x, y, z'
loop_
 _atom_site_type_symbol
 _atom_site_label
 _atom_site_symmetry_multiplicity
 _atom_site_fract_x
 _atom_site_fract_y
 _atom_site_fract_z
 _atom_site_occupancy
 _atom_site_pbe_bader_charge
 _atom_site_pbe_bader_spin_density
 _atom_site_pbe_cm5_charge
 _atom_site_pbe_ddec_charge
 _atom_site_pbe_ddec_spin_density
 _atom_site_pbe_ddec_sum_bond_order
 _atom_site_pbe_magmom
Co  Co0  1  0.91162062  0.64283122  0.88346982  1  1.295109  2.604464  0.67057  0.909293  2.820324  2.450009  2.588
Co  Co1  1  0.08837115  0.85716135  0.38346609  1  1.295365  2.604481  0.67062  0.909399  2.820364  2.450105  2.588
Co  Co2  1  0.08836389  0.35716303  0.11653116  1  1.295386  2.604505  0.670535  0.909319  2.820368  2.450063  2.588
Co  Co3  1  0.91163445  0.14283727  0.61653437  1  1.295322  2.604491  0.670564  0.909395  2.820354  2.45003  2.588
Co  Co4  1  0.73996313  0.79502722  0.97778623  1  1.306808  2.627804  0.675824  0.923488  2.846985  2.4286  2.61
Co  Co5  1  0.26004018  0.70497522  0.47778053  1  1.30694  2.627763  0.675719  0.923429  2.846929  2.428353  2.61
Co  Co6  1  0.26003919  0.20496993  0.02221737  1  1.306777  2.627759  0.675753  0.923451  2.846925  2.428444  2.61
Co  Co7  1  0.73996518  0.29502560  0.52221889  1  1.307016  2.627756  0.675712  0.923424  2.846936  2.428418  2.61
H  H8  1  0.43581008  0.38686965  0.96282187  1  0.151359  0.001746  0.118306  0.091046  0.000415  1.054621  0.001
H  H9  1  0.56419748  0.11311808  0.46282468  1  0.151087  0.001746  0.11829  0.091074  0.000414  1.054635  0.001
H  H10  1  0.56418660  0.61311868  0.03717441  1  0.15127  0.001746  0.118287  0.091033  0.000414  1.054725  0.001
H  H11  1  0.43582077  0.88688197  0.53716847  1  0.151377  0.001745  0.118299  0.091051  0.000415  1.054614  0.001
H  H12  1  0.97680066  0.47174001  0.94271807  1  0.130399  0.001871  0.117946  0.087151  0.000547  1.068228  0.002
H  H13  1  0.02320974  0.02826180  0.44271907  1  0.130654  0.001871  0.117998  0.087289  0.000547  1.068434  0.002
H  H14  1  0.02317752  0.52825500  0.05727874  1  0.130254  0.001871  0.117914  0.08722  0.000547  1.06829  0.002
H  H15  1  0.97681180  0.97174856  0.55727931  1  0.130055  0.001872  0.117966  0.087167  0.000547  1.068261  0.002
H  H16  1  0.50254698  0.13623749  0.05449942  1  0.130775  0.001741  0.117169  0.093981  0.000456  1.006822  0.001
H  H17  1  0.49746050  0.36374833  0.55450532  1  0.131042  0.001741  0.117184  0.094016  0.000457  1.006938  0.001
H  H18  1  0.49746259  0.86375302  0.94549791  1  0.131002  0.001741  0.117207  0.094037  0.000456  1.007001  0.001
H  H19  1  0.50255025  0.63625175  0.44549044  1  0.131125  0.001742  0.117178  0.094054  0.000457  1.006951  0.001
H  H20  1  0.35966833  0.45653843  0.87944617  1  0.102603  5.1e-05  0.109432  0.115924  -0.000205  1.019234  0.0
H  H21  1  0.64034260  0.04347175  0.37944827  1  0.102911  5.2e-05  0.109457  0.11586  -0.000205  1.019319  0.0
H  H22  1  0.64031924  0.54346539  0.12056109  1  0.102197  5.1e-05  0.109428  0.115866  -0.000205  1.019337  0.0
H  H23  1  0.35967567  0.95654009  0.62054801  1  0.102349  5.1e-05  0.109449  0.115947  -0.000205  1.019326  0.0
H  H24  1  0.08999123  0.01493740  0.99036910  1  0.164451  0.001628  0.120772  0.092911  0.000388  1.065406  0.001
H  H25  1  0.91000127  0.48505983  0.49037093  1  0.164693  0.001628  0.120789  0.092982  0.000389  1.065309  0.001
H  H26  1  0.91000314  0.98506713  0.00963607  1  0.16478  0.001628  0.120829  0.093063  0.000389  1.065345  0.001
H  H27  1  0.08999027  0.51493588  0.50963529  1  0.164645  0.001628  0.120792  0.092999  0.000389  1.065296  0.001
H  H28  1  0.81261403  0.47312262  0.78556769  1  0.152387  0.001526  0.118589  0.099579  0.000265  1.018055  0.001
H  H29  1  0.18738042  0.02686813  0.28557443  1  0.152457  0.001526  0.118639  0.099593  0.000265  1.018049  0.001
H  H30  1  0.18738078  0.52686572  0.21442389  1  0.152468  0.001525  0.118619  0.099565  0.000265  1.018073  0.001
H  H31  1  0.81261416  0.97312536  0.71443649  1  0.152471  0.001525  0.118568  0.099518  0.000265  1.018085  0.001
H  H32  1  0.82470185  0.34884023  0.96475911  1  0.126847  0.000128  0.110394  0.114069  -0.000181  1.023112  0.0
H  H33  1  0.17530359  0.15114971  0.46476419  1  0.126839  0.000128  0.110379  0.114086  -0.000181  1.023112  0.0
H  H34  1  0.17529836  0.65115913  0.03523665  1  0.126885  0.000128  0.11042  0.114109  -0.00018  1.023015  0.0
H  H35  1  0.82471208  0.84884520  0.53523209  1  0.126764  0.000128  0.110418  0.11413  -0.00018  1.022912  0.0
H  H36  1  0.74072363  0.19079746  0.02939732  1  0.092078  0.001112  0.105495  0.111484  0.000465  1.016521  0.001
H  H37  1  0.25928533  0.30918920  0.52940353  1  0.064714  0.001138  0.105384  0.111267  0.000465  1.016556  0.001
H  H38  1  0.25928642  0.80920041  0.97059844  1  0.09219  0.001112  0.105407  0.111355  0.000465  1.016574  0.001
H  H39  1  0.74072635  0.69080499  0.47059276  1  0.092285  0.001111  0.10548  0.111464  0.000465  1.016638  0.001
H  H40  1  0.37304384  0.61198048  0.81248767  1  0.077297  0.001368  0.109574  0.114275  0.00066  0.988124  0.001
H  H41  1  0.62696191  0.88802708  0.31249209  1  0.077372  0.001368  0.109552  0.114306  0.00066  0.988152  0.001
H  H42  1  0.62694091  0.38801745  0.18751436  1  0.077091  0.001368  0.109601  0.114283  0.00066  0.988077  0.001
H  H43  1  0.37305447  0.11197887  0.68751099  1  0.077099  0.001369  0.109556  0.114257  0.00066  0.988131  0.001
H  H44  1  0.21982768  0.88846481  0.80714039  1  0.099248  6.1e-05  0.113186  0.113953  -0.000132  0.987604  0.0
H  H45  1  0.78015610  0.61152958  0.30714145  1  0.099695  6.1e-05  0.11326  0.114062  -0.000132  0.987536  0.0
H  H46  1  0.78014932  0.11152062  0.19286739  1  0.099779  6.1e-05  0.113261  0.114024  -0.000132  0.98751  0.0
H  H47  1  0.21984998  0.38847346  0.69286267  1  0.099968  6.1e-05  0.113243  0.114056  -0.000132  0.987483  0.0
H  H48  1  0.18147021  0.68730636  0.81142286  1  0.102153  0.001507  0.11824  0.086216  0.00019  1.000346  0.001
H  H49  1  0.81853297  0.81269900  0.31142673  1  0.102281  0.001506  0.118248  0.086327  0.00019  1.000407  0.001
H  H50  1  0.81851384  0.31269525  0.18857290  1  0.102048  0.001507  0.118273  0.086275  0.00019  1.000383  0.001
H  H51  1  0.18147966  0.18730401  0.68858001  1  0.102449  0.001507  0.118268  0.086232  0.00019  1.000298  0.001
H  H52  1  0.40002068  0.04275977  0.79828536  1  0.057354  0.001227  0.111227  0.115782  0.000534  0.993669  0.001
H  H53  1  0.59997337  0.45722723  0.29828299  1  0.057131  0.001227  0.111214  0.115828  0.000535  0.993605  0.001
H  H54  1  0.59996614  0.95721827  0.20171772  1  0.056999  0.001227  0.111278  0.115858  0.000534  0.993688  0.001
H  H55  1  0.40003200  0.54277654  0.70171538  1  0.057082  0.001227  0.111249  0.115852  0.000534  0.993568  0.001
H  H56  1  0.40754314  0.17783919  0.88489135  1  0.105753  0.001677  0.120163  0.088616  0.000409  0.992167  0.001
H  H57  1  0.59245739  0.32214743  0.38488915  1  0.105371  0.001677  0.120147  0.088547  0.000409  0.992155  0.001
H  H58  1  0.59245635  0.82214618  0.11510703  1  0.105299  0.001679  0.120111  0.088468  0.000409  0.992148  0.001
H  H59  1  0.40754447  0.67785120  0.61510662  1  0.105328  0.001678  0.120097  0.088444  0.000409  0.992133  0.001
H  H60  1  0.94589710  0.77321241  0.75402127  1  0.158217  0.001616  0.118029  0.094246  0.000432  1.010657  0.001
H  H61  1  0.05407911  0.72678297  0.25401361  1  0.157322  0.001617  0.118095  0.094323  0.000432  1.010523  0.001
H  H62  1  0.05407570  0.22678335  0.24599069  1  0.157355  0.001616  0.118048  0.094297  0.000432  1.010543  0.001
H  H63  1  0.94591430  0.27321273  0.74598111  1  0.158008  0.001616  0.118106  0.094306  0.000432  1.010641  0.001
H  H64  1  0.81094881  0.58504108  0.57642000  1  0.106435  3.1e-05  0.108155  0.108568  -0.000221  1.012855  0.0
H  H65  1  0.18904030  0.91497123  0.07641954  1  0.106574  3.1e-05  0.108119  0.108542  -0.000221  1.013043  0.0
H  H66  1  0.18905610  0.41497300  0.42357785  1  0.106585  3.1e-05  0.108106  0.108515  -0.000221  1.013109  0.0
H  H67  1  0.81094963  0.08504584  0.92358197  1  0.106404  3.1e-05  0.108174  0.108551  -0.000221  1.013025  0.0
H  H68  1  0.90873538  0.75488705  0.62475165  1  0.081116  0.001031  0.108048  0.117408  0.00041  1.002488  0.0
H  H69  1  0.09125058  0.74512285  0.12474437  1  0.08108  0.001031  0.108034  0.117526  0.00041  1.002283  0.0
H  H70  1  0.09126063  0.24512263  0.37525927  1  0.08096  0.001031  0.108046  0.117493  0.00041  1.002317  0.0
H  H71  1  0.90874333  0.25488906  0.87525035  1  0.080966  0.001031  0.108025  0.117363  0.00041  1.002422  0.0
H  H72  1  0.73052230  0.74698755  0.85091485  1  0.658071  0.000249  0.289194  0.383134  0.00043  0.961532  0.001
H  H73  1  0.26946846  0.75301547  0.35090228  1  0.658193  0.000248  0.289134  0.383036  0.00043  0.96168  0.001
H  H74  1  0.26947136  0.25301772  0.14909084  1  0.658174  0.000247  0.289202  0.383121  0.00043  0.961563  0.001
H  H75  1  0.73053035  0.24698243  0.64909244  1  0.658258  0.000248  0.289185  0.383114  0.00043  0.961556  0.001
H  H76  1  0.66787820  0.63573894  0.89052499  1  0.633847  0.000324  0.291458  0.384789  0.000229  0.956283  0.0
H  H77  1  0.33212006  0.86426537  0.39051576  1  0.633626  0.000325  0.291447  0.384826  0.000229  0.956218  0.0
H  H78  1  0.33211522  0.36426560  0.10947652  1  0.633784  0.000324  0.291452  0.3848  0.000229  0.95627  0.0
H  H79  1  0.66788624  0.13573251  0.60948000  1  0.633779  0.000324  0.291468  0.384897  0.000229  0.956148  0.0
C  C80  1  0.13908344  0.94055289  0.89891314  1  -0.035755  0.012271  -0.015068  -0.085597  0.0065  3.959453  0.01
C  C81  1  0.86091332  0.55944991  0.39891138  1  -0.036213  0.012271  -0.01511  -0.085531  0.0065  3.959047  0.01
C  C82  1  0.86090530  0.05944872  0.10109465  1  -0.035648  0.012268  -0.015086  -0.085439  0.0065  3.959275  0.01
C  C83  1  0.13908947  0.44054872  0.60109118  1  -0.035566  0.012266  -0.015088  -0.08545  0.006499  3.959084  0.01
C  C84  1  0.63514430  0.37947253  0.95721704  1  0.068431  0.010064  -0.013769  -0.078852  0.005177  3.957841  0.008
C  C85  1  0.36486568  0.12052259  0.45721631  1  0.068004  0.010065  -0.013664  -0.078939  0.005178  3.957906  0.008
C  C86  1  0.36485122  0.62052685  0.04277820  1  0.068673  0.010064  -0.013748  -0.078931  0.005177  3.957842  0.008
C  C87  1  0.63515537  0.87947157  0.54277632  1  0.068774  0.010064  -0.013655  -0.078731  0.005177  3.957713  0.008
C  C88  1  0.50575272  0.34467110  0.97561851  1  0.397938  -0.007623  0.053672  0.082625  -0.0088  3.909164  -0.005
C  C89  1  0.49426079  0.15531804  0.47562203  1  0.399632  -0.007628  0.053604  0.082592  -0.008801  3.90902  -0.005
C  C90  1  0.49425076  0.65532089  0.02437829  1  0.397811  -0.007624  0.053714  0.082693  -0.008802  3.909043  -0.005
C  C91  1  0.50575606  0.84468350  0.52436955  1  0.397904  -0.007622  0.053645  0.082735  -0.0088  3.909062  -0.005
C  C92  1  0.06507184  0.49917299  0.91331308  1  0.488556  -0.00988  0.052059  0.079527  -0.010698  3.907106  -0.006
C  C93  1  0.93494243  0.00083114  0.41331218  1  0.487951  -0.009885  0.052105  0.07945  -0.010702  3.907687  -0.006
C  C94  1  0.93491338  0.50082347  0.08668687  1  0.488984  -0.009881  0.051954  0.079406  -0.010698  3.906998  -0.006
C  C95  1  0.06508263  0.99917847  0.58668463  1  0.48943  -0.00988  0.051995  0.079534  -0.010696  3.907382  -0.006
C  C96  1  0.80365000  0.51687744  0.67769121  1  0.037373  0.009313  -0.016739  -0.08164  0.004737  3.970596  0.007
C  C97  1  0.19634376  0.98312927  0.17769692  1  0.037505  0.009315  -0.016707  -0.081452  0.004738  3.970654  0.007
C  C98  1  0.19634742  0.48313077  0.32230038  1  0.037512  0.009313  -0.016673  -0.08139  0.004738  3.970498  0.007
C  C99  1  0.80364545  0.01687970  0.82231034  1  0.037403  0.009316  -0.016675  -0.081662  0.004738  3.970558  0.007
C  C100  1  0.54431916  0.20499245  0.02728575  1  0.45574  -0.009653  0.045328  0.083184  -0.010399  3.943613  -0.006
C  C101  1  0.45569029  0.29499569  0.52729237  1  0.45559  -0.009658  0.045479  0.083282  -0.010403  3.943689  -0.006
C  C102  1  0.45569088  0.79500247  0.97270793  1  0.455469  -0.009654  0.045326  0.083097  -0.010399  3.943837  -0.006
C  C103  1  0.54431765  0.70500145  0.47270234  1  0.455284  -0.009652  0.045443  0.083211  -0.010396  3.943687  -0.006
C  C104  1  0.16451828  0.45032940  0.91564223  1  0.00403  0.014723  -0.015673  -0.080379  0.007423  3.961296  0.012
C  C105  1  0.83549409  0.04967473  0.41563952  1  0.004122  0.014724  -0.015671  -0.080349  0.007423  3.961362  0.012
C  C106  1  0.83546530  0.54967075  0.08436294  1  0.004078  0.014724  -0.015556  -0.080473  0.007423  3.961214  0.012
C  C107  1  0.16452652  0.95033563  0.58435416  1  0.003547  0.014726  -0.015634  -0.080465  0.007423  3.961455  0.012
C  C108  1  0.27746504  0.48999082  0.87780318  1  -0.011109  -0.016042  -0.063607  -0.045942  -0.017338  3.915193  -0.01
C  C109  1  0.72254919  0.01001789  0.37780454  1  -0.011279  -0.016047  -0.063612  -0.045703  -0.017342  3.91534  -0.01
C  C110  1  0.72252628  0.51001593  0.12220146  1  -0.010536  -0.016034  -0.063668  -0.045773  -0.01733  3.915182  -0.01
C  C111  1  0.27747517  0.98999246  0.62219384  1  -0.01109  -0.016042  -0.063622  -0.045987  -0.017338  3.915324  -0.01
C  C112  1  0.15461536  0.01831033  0.94618718  1  0.465868  -0.001348  0.058588  0.087619  -0.002235  3.89483  -0.001
C  C113  1  0.84537790  0.48168782  0.44618556  1  0.466426  -0.001349  0.058578  0.087503  -0.002235  3.894615  -0.001
C  C114  1  0.84537290  0.98168686  0.05381589  1  0.466586  -0.001349  0.058419  0.087254  -0.002235  3.894746  -0.001
C  C115  1  0.15462326  0.51831449  0.55381699  1  0.466434  -0.001347  0.058537  0.087434  -0.002233  3.894617  -0.001
C  C116  1  0.83139382  0.53392873  0.74849598  1  0.417302  -0.006686  0.051501  0.075843  -0.007814  3.907795  -0.004
C  C117  1  0.16859675  0.96607032  0.24849710  1  0.417112  -0.006685  0.051406  0.075707  -0.007813  3.907885  -0.004
C  C118  1  0.16859350  0.46606846  0.25150083  1  0.41723  -0.006684  0.051307  0.075577  -0.007812  3.907906  -0.004
C  C119  1  0.83139714  0.03392980  0.75150441  1  0.417285  -0.006688  0.051482  0.075911  -0.007816  3.907717  -0.004
C  C120  1  0.72218250  0.32355934  0.97653379  1  -0.059274  -0.014168  -0.061373  -0.042197  -0.015258  3.917624  -0.009
C  C121  1  0.27782655  0.17643349  0.47653851  1  -0.059026  -0.014167  -0.06126  -0.042051  -0.015257  3.917691  -0.009
C  C122  1  0.27782286  0.67644149  0.02346301  1  -0.059173  -0.014162  -0.061402  -0.042194  -0.015253  3.917684  -0.009
C  C123  1  0.72218795  0.82356363  0.52345568  1  -0.059401  -0.014156  -0.061379  -0.042268  -0.015246  3.917712  -0.009
C  C124  1  0.67569012  0.23556947  0.01252584  1  -0.053734  0.006497  -0.085543  -0.128279  0.002898  3.98784  0.005
C  C125  1  0.32431552  0.26441801  0.51253136  1  -0.026236  0.006471  -0.085561  -0.128117  0.002898  3.987505  0.005
C  C126  1  0.32431641  0.76442620  0.98746940  1  -0.053868  0.006496  -0.085443  -0.128104  0.002898  3.987641  0.005
C  C127  1  0.67569429  0.73557618  0.48746701  1  -0.054011  0.006497  -0.085661  -0.128318  0.002898  3.987884  0.005
C  C128  1  0.28504017  0.57670423  0.84038708  1  -0.01909  0.007335  -0.085207  -0.130835  0.003417  3.999735  0.006
C  C129  1  0.71497322  0.92330466  0.34038855  1  -0.018854  0.007335  -0.085265  -0.131106  0.003417  4.000088  0.006
C  C130  1  0.71494412  0.42329812  0.15961443  1  -0.019831  0.007334  -0.085167  -0.130848  0.003417  3.999499  0.006
C  C131  1  0.28504973  0.07670422  0.65961087  1  -0.018878  0.007334  -0.085242  -0.130847  0.003417  3.999782  0.006
C  C132  1  0.22874180  0.94848456  0.84448584  1  -0.031716  -0.00493  -0.060178  -0.04209  -0.005518  3.936031  -0.003
C  C133  1  0.77124551  0.55150746  0.34448647  1  -0.032013  -0.004929  -0.06023  -0.042303  -0.005518  3.9359  -0.003
C  C134  1  0.77124199  0.05149865  0.15552037  1  -0.032186  -0.004926  -0.060208  -0.042202  -0.005515  3.936279  -0.003
C  C135  1  0.22875588  0.44849559  0.65551713  1  -0.032269  -0.004927  -0.060278  -0.042415  -0.005516  3.936047  -0.003
C  C136  1  0.17995417  0.61966077  0.83994353  1  0.455017  -0.012703  0.047847  0.087786  -0.014109  3.952607  -0.008
C  C137  1  0.82005383  0.88034594  0.33994105  1  0.454932  -0.012705  0.047786  0.087601  -0.014111  3.952772  -0.008
C  C138  1  0.82003316  0.38033937  0.16005798  1  0.455557  -0.0127  0.04771  0.087654  -0.014104  3.952506  -0.008
C  C139  1  0.17996419  0.11966222  0.66005733  1  0.454973  -0.012704  0.047803  0.087777  -0.01411  3.952426  -0.008
C  C140  1  0.32749981  0.03393439  0.83938073  1  0.012574  0.004253  -0.08561  -0.137763  0.002095  4.004022  0.003
C  C141  1  0.67249470  0.46605538  0.33938021  1  0.012443  0.004252  -0.085617  -0.137833  0.002095  4.004219  0.003
C  C142  1  0.67248656  0.96605102  0.16062235  1  0.012333  0.004252  -0.085708  -0.138042  0.002095  4.004444  0.003
C  C143  1  0.32751114  0.53394397  0.66061921  1  0.01238  0.004252  -0.08563  -0.137892  0.002095  4.004153  0.003
C  C144  1  0.33304926  0.10925261  0.88777372  1  0.454046  -0.003418  0.052937  0.095128  -0.004096  3.938594  -0.002
C  C145  1  0.66694632  0.39073916  0.38777278  1  0.454366  -0.003418  0.052929  0.095271  -0.004096  3.938695  -0.002
C  C146  1  0.66694485  0.89073646  0.11222674  1  0.454579  -0.003417  0.053088  0.095627  -0.004095  3.938581  -0.002
C  C147  1  0.33305483  0.60926020  0.61222403  1  0.454459  -0.003418  0.053052  0.095587  -0.004096  3.938497  -0.002
C  C148  1  0.90690366  0.70153530  0.73027901  1  0.478712  -0.007786  0.049713  0.103038  -0.0084  3.91875  -0.005
C  C149  1  0.09307776  0.79846385  0.23027375  1  0.479617  -0.007789  0.049525  0.102893  -0.008403  3.91831  -0.005
C  C150  1  0.09307664  0.29846338  0.26972930  1  0.479923  -0.007788  0.049544  0.102853  -0.008403  3.918272  -0.005
C  C151  1  0.90691660  0.20153480  0.76972358  1  0.478901  -0.007787  0.049587  0.102893  -0.008403  3.918552  -0.005
C  C152  1  0.83109575  0.59724894  0.63192265  1  -0.069187  -0.012461  -0.06369  -0.040643  -0.013437  3.929384  -0.008
C  C153  1  0.16889785  0.90275870  0.13192122  1  -0.069317  -0.012467  -0.063674  -0.040758  -0.013444  3.92986  -0.008
C  C154  1  0.16890471  0.40276000  0.36807938  1  -0.069482  -0.012467  -0.063681  -0.040726  -0.013444  3.92986  -0.008
C  C155  1  0.83109371  0.09725174  0.86808081  1  -0.069225  -0.012465  -0.063776  -0.040748  -0.013442  3.9296  -0.008
C  C156  1  0.88455353  0.69062285  0.65868089  1  -0.049809  0.006264  -0.083803  -0.125081  0.002884  3.971151  0.005
C  C157  1  0.11543155  0.80938249  0.15867712  1  -0.04976  0.006266  -0.08371  -0.125145  0.002885  3.971109  0.005
C  C158  1  0.11543615  0.30938465  0.34132480  1  -0.04953  0.006265  -0.08372  -0.12512  0.002884  3.971159  0.005
C  C159  1  0.88455836  0.19062279  0.84131969  1  -0.049702  0.006264  -0.083766  -0.124957  0.002884  3.971038  0.005
C  C160  1  0.14847436  0.36286509  0.96305910  1  1.578048  0.00172  0.213498  0.583941  0.000237  4.189857  0.002
C  C161  1  0.85153884  0.13713736  0.46305938  1  1.578117  0.001718  0.213547  0.583757  0.000237  4.190139  0.002
C  C162  1  0.85151062  0.63713358  0.03694032  1  1.578111  0.001714  0.213502  0.583883  0.000234  4.190395  0.002
C  C163  1  0.14848246  0.86286637  0.53693795  1  1.5783  0.001718  0.213507  0.584013  0.000235  4.189893  0.002
C  C164  1  0.02686924  0.85247117  0.90817148  1  1.604307  0.003741  0.218788  0.590323  0.002802  4.184501  0.003
C  C165  1  0.97312739  0.64752275  0.40816717  1  1.6043  0.003741  0.218816  0.5904  0.002802  4.18439  0.003
C  C166  1  0.97311995  0.14752012  0.09183265  1  1.603878  0.003747  0.218799  0.590376  0.002804  4.184214  0.003
C  C167  1  0.02687962  0.35247734  0.59183016  1  1.603641  0.003746  0.218783  0.59044  0.002804  4.184277  0.003
C  C168  1  0.75021123  0.41377045  0.65178431  1  1.586221  0.002757  0.206808  0.577738  0.001802  4.208835  0.002
C  C169  1  0.24979514  0.08623851  0.15178451  1  1.586306  0.00276  0.206685  0.577555  0.001804  4.208879  0.002
C  C170  1  0.24979111  0.58623848  0.34821198  1  1.586234  0.002759  0.206652  0.577456  0.001803  4.20911  0.002
C  C171  1  0.75020696  0.91377263  0.84822066  1  1.586727  0.002758  0.206808  0.577785  0.001804  4.208885  0.002
C  C172  1  0.67572035  0.47615790  0.91903106  1  1.583561  0.000522  0.211933  0.576352  -0.000542  4.19699  0.0
C  C173  1  0.32428751  0.02383518  0.41903004  1  1.583528  0.000524  0.211852  0.576394  -0.00054  4.197195  0.0
C  C174  1  0.32427821  0.52383631  0.08096627  1  1.583403  0.000524  0.211892  0.576323  -0.000542  4.196985  0.0
C  C175  1  0.67572442  0.97616563  0.58096468  1  1.583521  0.000524  0.211857  0.576203  -0.000542  4.197277  0.0
N  N176  1  0.45997211  0.25870756  0.00882869  1  -1.223275  0.06982  -0.329777  -0.25943  0.037203  3.593374  0.059
N  N177  1  0.54003827  0.24128286  0.50883405  1  -1.224888  0.069826  -0.32988  -0.259601  0.037206  3.59354  0.059
N  N178  1  0.54003348  0.74128517  0.99116812  1  -1.223312  0.069826  -0.329848  -0.25945  0.037208  3.59351  0.059
N  N179  1  0.45997740  0.75871793  0.49116171  1  -1.22321  0.069821  -0.329862  -0.259667  0.037203  3.593707  0.059
N  N180  1  0.07083151  0.58114474  0.87586039  1  -1.240264  0.063562  -0.32718  -0.241463  0.033533  3.5902  0.056
N  N181  1  0.92917817  0.91885960  0.37586118  1  -1.240396  0.063568  -0.327205  -0.241339  0.033538  3.590268  0.056
N  N182  1  0.92915324  0.41885320  0.12414007  1  -1.24034  0.063557  -0.327006  -0.241295  0.033533  3.590019  0.056
N  N183  1  0.07084290  0.08114634  0.62414034  1  -1.24034  0.063556  -0.327129  -0.241433  0.033534  3.590113  0.056
N  N184  1  0.24814297  0.10135330  0.94082862  1  -1.213911  0.058527  -0.320084  -0.235037  0.031434  3.561688  0.049
N  N185  1  0.75185855  0.39864412  0.44082896  1  -1.214025  0.058537  -0.320012  -0.234953  0.031435  3.561462  0.049
N  N186  1  0.75185466  0.89864386  0.05917393  1  -1.213913  0.058534  -0.32005  -0.235036  0.031437  3.56179  0.049
N  N187  1  0.24814471  0.60135597  0.55917151  1  -1.214121  0.058529  -0.319992  -0.235045  0.031431  3.56167  0.049
N  N188  1  0.88063071  0.62436208  0.77468197  1  -1.217598  0.067538  -0.325421  -0.255365  0.035953  3.582214  0.058
N  N189  1  0.11935743  0.87563317  0.27468230  1  -1.217539  0.067549  -0.32538  -0.255231  0.035958  3.581624  0.058
N  N190  1  0.11935520  0.37563070  0.22531798  1  -1.217938  0.067538  -0.325258  -0.255052  0.035953  3.581506  0.058
N  N191  1  0.88063715  0.12436326  0.72531764  1  -1.217554  0.067545  -0.325381  -0.255261  0.035956  3.581894  0.058
O  O192  1  0.73845436  0.69943549  0.89080236  1  -1.255356  0.103928  -0.557459  -0.799211  0.056156  2.397278  0.088
O  O193  1  0.26153640  0.80056884  0.39078976  1  -1.255262  0.103933  -0.557411  -0.799218  0.056159  2.397224  0.088
O  O194  1  0.26153555  0.30056685  0.10920229  1  -1.255452  0.103936  -0.557502  -0.799317  0.056161  2.397288  0.088
O  O195  1  0.73847013  0.19942978  0.60920653  1  -1.25543  0.103929  -0.557434  -0.799345  0.05616  2.397201  0.088
O  O196  1  0.22880163  0.30932491  0.95604237  1  -1.154966  0.0907  -0.307761  -0.548855  0.04695  2.398694  0.078
O  O197  1  0.77120603  0.19067464  0.45604652  1  -1.154885  0.090715  -0.307781  -0.548817  0.046959  2.398925  0.078
O  O198  1  0.77119085  0.69067963  0.04396384  1  -1.154818  0.090711  -0.307884  -0.548905  0.046955  2.398636  0.078
O  O199  1  0.22881012  0.80933058  0.54395081  1  -1.155048  0.090699  -0.307764  -0.54886  0.046951  2.398751  0.078
O  O200  1  0.05797050  0.35034014  0.00809032  1  -1.166736  0.052116  -0.315607  -0.567825  0.02629  2.358777  0.042
O  O201  1  0.94204132  0.14966649  0.50809028  1  -1.167011  0.052109  -0.315647  -0.567787  0.026286  2.358969  0.042
O  O202  1  0.94201308  0.64965707  0.99191433  1  -1.166794  0.05211  -0.315573  -0.567715  0.026286  2.359322  0.042
O  O203  1  0.05797788  0.85034240  0.49190914  1  -1.166939  0.052132  -0.31561  -0.567845  0.026293  2.358887  0.042
O  O204  1  0.94490482  0.85831893  0.95458963  1  -1.159035  0.051124  -0.296105  -0.546152  0.026329  2.352559  0.044
O  O205  1  0.05508728  0.64167701  0.45458309  1  -1.158895  0.051113  -0.296122  -0.54623  0.026321  2.352704  0.044
O  O206  1  0.05508671  0.14167383  0.04542129  1  -1.158957  0.051107  -0.29605  -0.546158  0.026319  2.352644  0.044
O  O207  1  0.94491762  0.35832235  0.54541685  1  -1.158726  0.051107  -0.296071  -0.54619  0.026318  2.352802  0.044
O  O208  1  0.02635375  0.77975036  0.86751317  1  -1.161694  0.071831  -0.312488  -0.565454  0.037101  2.386821  0.059
O  O209  1  0.97363611  0.72025038  0.36751035  1  -1.161823  0.071859  -0.312505  -0.565492  0.037115  2.386587  0.059
O  O210  1  0.97363615  0.22025198  0.13249200  1  -1.161844  0.071868  -0.312548  -0.565546  0.037118  2.386393  0.059
O  O211  1  0.02636387  0.27974825  0.63249586  1  -1.161881  0.07187  -0.312521  -0.565529  0.037119  2.386243  0.059
O  O212  1  0.71545463  0.40626379  0.58749079  1  -1.171864  0.068002  -0.325445  -0.582308  0.035665  2.374776  0.055
O  O213  1  0.28455320  0.09373882  0.08749557  1  -1.171732  0.067982  -0.325442  -0.582236  0.035658  2.374957  0.055
O  O214  1  0.28455027  0.59373851  0.41250288  1  -1.171548  0.06798  -0.325336  -0.582088  0.035657  2.37499  0.055
O  O215  1  0.71544937  0.90627085  0.91251534  1  -1.172074  0.068001  -0.32546  -0.582297  0.035664  2.374727  0.055
O  O216  1  0.74601521  0.34270371  0.69347330  1  -1.177068  0.007163  -0.32162  -0.543947  0.002959  2.143856  0.006
O  O217  1  0.25398526  0.15729994  0.19347864  1  -1.177249  0.007167  -0.321532  -0.543871  0.002961  2.143825  0.006
O  O218  1  0.25397680  0.65729936  0.30651620  1  -1.177388  0.007165  -0.32159  -0.543921  0.002959  2.14384  0.006
O  O219  1  0.74601801  0.84271194  0.80653176  1  -1.177284  0.007161  -0.321623  -0.544015  0.002958  2.143964  0.006
O  O220  1  0.79545022  0.50351868  0.90305976  1  -1.172623  0.067364  -0.312232  -0.56726  0.035106  2.408031  0.056
O  O221  1  0.20455444  0.99647671  0.40305917  1  -1.172632  0.067377  -0.312246  -0.567354  0.035105  2.407805  0.056
O  O222  1  0.20453780  0.49647188  0.09693757  1  -1.172536  0.067385  -0.31223  -0.5673  0.035112  2.407907  0.056
O  O223  1  0.79546405  0.00352408  0.59693764  1  -1.172589  0.067385  -0.312271  -0.567297  0.035111  2.40794  0.056
O  O224  1  0.59115742  0.52369027  0.90591356  1  -1.176264  0.004371  -0.312899  -0.537395  0.001588  2.149312  0.004
O  O225  1  0.40884510  0.97630733  0.40591023  1  -1.176235  0.00437  -0.312824  -0.537354  0.001587  2.149833  0.004
O  O226  1  0.40883435  0.47630617  0.09408639  1  -1.176315  0.004369  -0.312827  -0.537286  0.001587  2.149525  0.004
O  O227  1  0.59116846  0.02368979  0.59408449  1  -1.176343  0.004368  -0.312757  -0.537226  0.001586  2.1497  0.004
