# generated using pymatgen
data_Al2H29C30N11O10
_symmetry_space_group_name_H-M   'P 1'
_cell_length_a   6.68363459
_cell_length_b   22.74208573
_cell_length_c   26.35517983
_cell_angle_alpha   78.77672792
_cell_angle_beta   90.75966631
_cell_angle_gamma   90.76138834
_symmetry_Int_Tables_number   1
_chemical_formula_structural   Al2H29C30N11O10
_chemical_formula_sum   'Al4 H58 C60 N22 O20'
_cell_volume   3928.79261528
_cell_formula_units_Z   2
loop_
 _symmetry_equiv_pos_site_id
 _symmetry_equiv_pos_as_xyz
  1  'x, y, z'
loop_
 _atom_site_type_symbol
 _atom_site_label
 _atom_site_symmetry_multiplicity
 _atom_site_fract_x
 _atom_site_fract_y
 _atom_site_fract_z
 _atom_site_occupancy
 _atom_site_pbe_bader_charge
 _atom_site_pbe_bader_spin_density
 _atom_site_pbe_cm5_charge
 _atom_site_pbe_ddec_charge
 _atom_site_pbe_ddec_spin_density
 _atom_site_pbe_ddec_sum_bond_order
 _atom_site_pbe_magmom
Al  Al0  1  0.11984196  0.49860682  0.49852683  1  2.501638  0  0.397473  1.636725  0  2.586289  0
Al  Al1  1  0.61979344  0.49998337  0.50160802  1  2.503201  0  0.396093  1.633008  0  2.589001  0
Al  Al2  1  0.65888403  0.99987880  0.00218488  1  2.501299  0  0.398084  1.631673  0  2.595958  0
Al  Al3  1  0.15925849  0.99961171  0.99811926  1  2.50047  0  0.398794  1.62871  0  2.591337  0
H  H4  1  0.97249955  0.27854227  0.83180379  1  0.002816  0  0.090989  0.086942  0  0.985078  0
H  H5  1  0.46513829  0.72118266  0.16843997  1  0.033394  0  0.091795  0.087899  0  0.98531  0
H  H6  1  0.60692981  0.24172967  0.81509251  1  0.001336  0  0.094263  0.1004  0  0.994721  0
H  H7  1  0.10377798  0.75806871  0.18420094  1  0.02379  0  0.09626  0.103359  0  0.991942  0
H  H8  1  0.57901451  0.19695850  0.76741434  1  0.050577  0  0.099619  0.114477  0  0.978999  0
H  H9  1  0.08242417  0.80274456  0.23183280  1  0.04591  0  0.100242  0.11573  0  0.978153  0
H  H10  1  0.17716861  0.24024497  0.81235453  1  0.046508  0  0.094735  0.097111  0  0.984456  0
H  H11  1  0.67432345  0.75919365  0.18881324  1  0.057097  0  0.094775  0.098208  0  0.983456  0
H  H12  1  0.86499290  0.14537964  0.73860846  1  0.039587  0  0.10038  0.106166  0  0.976746  0
H  H13  1  0.37490510  0.85403669  0.26169702  1  0.042534  0  0.099792  0.105085  0  0.9783  0
H  H14  1  0.62557213  0.07397734  0.12634176  1  0.070224  0  0.103156  0.122741  0  1.02421  0
H  H15  1  0.12428588  0.92675642  0.86794630  1  0.058574  0  0.102301  0.120215  0  1.018664  0
H  H16  1  0.17451983  0.31051824  0.34320920  1  0.071235  0  0.097813  0.103118  0  1.027637  0
H  H17  1  0.67579855  0.64095423  0.69574287  1  0.09625  0  0.098563  0.102886  0  1.03717  0
H  H18  1  0.19414177  0.30220850  0.73156798  1  0.075888  0  0.087647  0.089659  0  1.06678  0
H  H19  1  0.69033831  0.69690185  0.26927124  1  0.093341  0  0.087723  0.08941  0  1.069811  0
H  H20  1  0.55277927  0.15996533  0.22533403  1  0.506344  0  0.29254  0.269586  0  1.058188  0
H  H21  1  0.46814153  0.10092711  0.19546955  1  0.443442  0  0.312737  0.309531  0  0.923672  0
H  H22  1  0.05393382  0.83816819  0.77111113  1  0.502447  0  0.286587  0.269413  0  1.061096  0
H  H23  1  0.96616111  0.89509558  0.79960426  1  0.423522  0  0.301539  0.300129  0  0.938786  0
H  H24  1  0.37139518  0.19584825  0.14918008  1  0.459038  0  0.287891  0.277772  0  1.017051  0
H  H25  1  0.21912949  0.24499309  0.17253350  1  0.490102  0  0.28824  0.267611  0  1.064145  0
H  H26  1  0.72365843  0.75635153  0.83142877  1  0.525882  0  0.295056  0.275877  0  1.057763  0
H  H27  1  0.81645036  0.77815827  0.88832865  1  0.442301  0  0.307725  0.29981  0  0.949979  0
H  H28  1  0.35397317  0.17267968  0.07879652  1  0.438533  0  0.302714  0.290748  0  0.956327  0
H  H29  1  0.28265583  0.10494429  0.06361474  1  0.485638  0  0.300713  0.308511  0  0.981525  0
H  H30  1  0.88755268  0.85794887  0.90218075  1  0.424051  0  0.287947  0.270369  0  1.006944  0
H  H31  1  0.76526406  0.89442920  0.94229992  1  0.485024  0  0.296077  0.306799  0  0.989555  0
H  H32  1  0.54727712  0.34186499  0.31107251  1  0.078671  0  0.105259  0.11434  0  1.02057  0
H  H33  1  0.06671735  0.69283638  0.65748494  1  0.091732  0  0.103382  0.111136  0  1.030837  0
H  H34  1  0.48349383  0.43532393  0.40638654  1  0.515196  0  0.311568  0.323983  0  0.96856  0
H  H35  1  0.37461480  0.40626541  0.35506515  1  0.461053  0  0.309148  0.306654  0  0.953637  0
H  H36  1  0.00053319  0.60055145  0.56082523  1  0.518641  0  0.307959  0.321602  0  0.979024  0
H  H37  1  0.89181362  0.64979973  0.59559746  1  0.450827  0  0.305508  0.301037  0  0.958129  0
H  H38  1  0.15613593  0.37115857  0.41301929  1  0.083031  0  0.104433  0.105461  0  1.029711  0
H  H39  1  0.66518973  0.57859005  0.62707398  1  0.101976  0  0.10746  0.109324  0  1.01055  0
H  H40  1  0.03628369  0.35190995  0.75582763  1  0.024317  0  0.097457  0.102162  0  0.976057  0
H  H41  1  0.52566821  0.64750155  0.24449230  1  0.0148  0  0.097254  0.101186  0  0.977299  0
H  H42  1  0.50033929  0.32568992  0.67509538  1  0.402012  0  0.286654  0.27844  0  0.9552  0
H  H43  1  0.52993458  0.25265188  0.68252926  1  0.420733  0  0.271632  0.261109  0  1.033584  0
H  H44  1  0.99871203  0.67412038  0.32399616  1  0.403795  0  0.285504  0.277508  0  0.954999  0
H  H45  1  0.03426558  0.74712128  0.31659590  1  0.423221  0  0.270529  0.257947  0  1.032832  0
H  H46  1  0.73895293  0.34842757  0.78608718  1  0.381566  0  0.281049  0.267866  0  0.987469  0
H  H47  1  0.50107261  0.34568633  0.76956396  1  0.399324  0  0.286054  0.280072  0  0.964065  0
H  H48  1  0.22710913  0.65148132  0.21333763  1  0.382652  0  0.281872  0.267972  0  0.987794  0
H  H49  1  0.99065387  0.65442726  0.22919607  1  0.407675  0  0.286071  0.280793  0  0.962001  0
H  H50  1  0.09054142  0.24225585  0.67702959  1  0.06087  0  0.097053  0.038309  0  0.97451  0
H  H51  1  0.59609477  0.75688649  0.32366196  1  0.039884  0  0.097074  0.039024  0  0.973115  0
H  H52  1  0.79781964  0.24641609  0.62353875  1  0.370064  0  0.285742  0.268432  0  0.972076  0
H  H53  1  0.83173070  0.17559128  0.64977346  1  0.400181  0  0.287987  0.272661  0  0.964053  0
H  H54  1  0.30661042  0.75296253  0.37643867  1  0.407798  0  0.284867  0.267933  0  0.970822  0
H  H55  1  0.34531014  0.82374532  0.35036416  1  0.38895  0  0.286659  0.269246  0  0.966999  0
H  H56  1  0.11364578  0.16887446  0.74948384  1  0.026918  0  0.098764  0.106088  0  0.974122  0
H  H57  1  0.62083685  0.83054771  0.25135455  1  0.045574  0  0.09855  0.105658  0  0.975581  0
H  H58  1  0.36875548  0.42315835  0.52729622  1  0.606053  0  0.354297  0.430783  0  0.852844  0
H  H59  1  0.86842522  0.57213477  0.46657236  1  0.618205  0  0.350939  0.425298  0  0.862107  0
H  H60  1  0.41399972  0.07285540  0.96739928  1  0.619142  0  0.351331  0.426468  0  0.860876  0
H  H61  1  0.91280506  0.92583144  0.03129978  1  0.62832  0  0.35255  0.42829  0  0.85601  0
C  C62  1  0.37618393  0.56520344  0.56208268  1  1.512589  0  0.258776  0.649574  0  4.094555  0
C  C63  1  0.85579788  0.43177389  0.43882549  1  1.531711  0  0.255298  0.64356  0  4.104095  0
C  C64  1  0.36610493  0.57536784  0.42173794  1  1.654819  0  0.272614  0.728496  0  4.153736  0
C  C65  1  0.87743669  0.42359890  0.57813873  1  1.657337  0  0.276529  0.732591  0  4.150319  0
C  C66  1  0.04773212  0.30592121  0.74923089  1  -0.03962  0  -0.164124  -0.195861  0  3.862617  0
C  C67  1  0.54229203  0.69340585  0.25128653  1  -0.040752  0  -0.163816  -0.194149  0  3.864155  0
C  C68  1  0.67147828  0.28978522  0.73702349  1  0.689816  0  0.167174  0.415988  0  3.786445  0
C  C69  1  0.16857541  0.70990912  0.26242933  1  0.692005  0  0.166878  0.414881  0  3.787268  0
C  C70  1  0.67275917  0.23184812  0.77970715  1  -0.008881  0  -0.153843  -0.306814  0  3.80161  0
C  C71  1  0.17248171  0.76785024  0.21980482  1  -0.02815  0  -0.157283  -0.312993  0  3.805683  0
C  C72  1  0.89667613  0.12117998  0.87560074  1  0.208768  0  -0.056969  -0.24136  0  3.987368  0
C  C73  1  0.40101401  0.87825139  0.12448808  1  0.277996  0  -0.056593  -0.239501  0  3.986292  0
C  C74  1  0.88312050  0.29431140  0.71023224  1  0.116908  0  0.003002  0.016251  0  3.816313  0
C  C75  1  0.38138123  0.70511894  0.28989992  1  0.116945  0  0.00284  0.016375  0  3.815826  0
C  C76  1  0.02994808  0.25910170  0.79985201  1  -0.029313  0  -0.154063  -0.190112  0  3.856618  0
C  C77  1  0.52594213  0.74042337  0.20069498  1  -0.064167  0  -0.153943  -0.191083  0  3.853823  0
C  C78  1  0.88704949  0.20751229  0.79129636  1  0.124217  0  0.002045  0.184701  0  3.903146  0
C  C79  1  0.38809951  0.79210284  0.20889949  1  0.156396  0  0.002989  0.1878  0  3.899646  0
C  C80  1  0.95844376  0.18415126  0.74329803  1  -0.020296  0  -0.150054  -0.248989  0  3.812345  0
C  C81  1  0.46472665  0.81527468  0.25716375  1  -0.039836  0  -0.15124  -0.250714  0  3.817346  0
C  C82  1  0.94073994  0.23383925  0.69431435  1  0.300066  0  0.012253  0.172068  0  3.797455  0
C  C83  1  0.44589200  0.76549463  0.30602226  1  0.324028  0  0.011426  0.169503  0  3.801798  0
C  C84  1  0.89032575  0.15995105  0.83672963  1  -0.488918  0  -0.013964  -0.008  0  4.011914  0
C  C85  1  0.39328186  0.83962608  0.16342134  1  -0.586626  0  -0.014305  -0.010031  0  4.010414  0
C  C86  1  0.88289174  0.34113043  0.66444814  1  -0.511239  0  -0.008518  0.01914  0  4.048499  0
C  C87  1  0.37882589  0.65812666  0.33561933  1  -0.405244  0  -0.008972  0.018672  0  4.043399  0
C  C88  1  0.87937772  0.37841754  0.62453859  1  0.226584  0  -0.056541  -0.250261  0  3.977082  0
C  C89  1  0.37222815  0.62063183  0.37538979  1  0.105676  0  -0.057319  -0.250589  0  3.976802  0
C  C90  1  0.75223578  0.10216102  0.13312517  1  0.016268  0  -0.12721  -0.262201  0  4.05437  0
C  C91  1  0.24790264  0.89730429  0.86381687  1  0.019314  0  -0.133278  -0.280079  0  4.051877  0
C  C92  1  0.73455541  0.13945452  0.16871486  1  0.392752  0  0.08397  0.261951  0  4.122707  0
C  C93  1  0.24175293  0.86446336  0.82441073  1  0.406115  0  0.087096  0.274074  0  4.121828  0
C  C94  1  0.89521073  0.18090213  0.17465542  1  0.001266  0  -0.032002  -0.208533  0  3.920823  0
C  C95  1  0.40350890  0.82366118  0.82078114  1  0.025043  0  -0.03249  -0.21078  0  3.910509  0
C  C96  1  0.07426583  0.17853265  0.14559318  1  0.464273  0  0.096975  0.190817  0  4.01615  0
C  C97  1  0.57265151  0.82367121  0.85506989  1  0.434632  0  0.103291  0.200544  0  4.029252  0
C  C98  1  0.09397989  0.13631269  0.11216792  1  0.456827  0  0.084674  0.163274  0  4.059089  0
C  C99  1  0.58429507  0.86324047  0.89112491  1  0.418848  0  0.078719  0.153308  0  4.042827  0
C  C100  1  0.92657603  0.10066324  0.10438025  1  0.005683  0  -0.032363  -0.130514  0  4.034853  0
C  C101  1  0.41459898  0.89729158  0.89698662  1  -0.005083  0  -0.031816  -0.122979  0  4.022372  0
C  C102  1  0.86481834  0.28835157  0.28154385  1  0.954512  0  0.235291  0.239724  0  4.004685  0
C  C103  1  0.37471183  0.70928922  0.71903604  1  0.977116  0  0.232452  0.23402  0  4.005014  0
C  C104  1  0.88037033  0.22164631  0.21071187  1  0.919403  0  0.228725  0.268879  0  3.949575  0
C  C105  1  0.39170830  0.78202389  0.78545732  1  0.873161  0  0.228414  0.269287  0  3.946667  0
C  C106  1  0.68157170  0.34911488  0.33315480  1  -0.039514  0  -0.100611  -0.244275  0  3.9143  0
C  C107  1  0.19821874  0.66786180  0.65036475  1  -0.005341  0  -0.100726  -0.240754  0  3.915513  0
C  C108  1  0.67055645  0.38561174  0.37081315  1  0.474618  0  0.11886  0.324647  0  4.065644  0
C  C109  1  0.18871986  0.63252220  0.61173080  1  0.443023  0  0.116278  0.320035  0  4.059833  0
C  C110  1  0.84853877  0.39368890  0.39954615  1  0.000528  0  -0.035071  -0.179065  0  3.9341  0
C  C111  1  0.36510348  0.60116896  0.60278395  1  0.030493  0  -0.031697  -0.176251  0  3.927677  0
C  C112  1  0.02551966  0.36542900  0.38927618  1  -0.041735  0  -0.091108  -0.077775  0  4.046516  0
C  C113  1  0.53634780  0.60479552  0.63380097  1  -0.111899  0  -0.087424  -0.071773  0  4.036173  0
C  C114  1  0.03606012  0.33174191  0.35101140  1  -0.034655  0  -0.11396  -0.181832  0  4.040172  0
C  C115  1  0.54292142  0.63898230  0.67180846  1  0.01702  0  -0.113938  -0.175562  0  4.03183  0
C  C116  1  0.86027707  0.32359022  0.32272586  1  0.013475  0  -0.005341  0.053627  0  4.050047  0
C  C117  1  0.37100187  0.67152004  0.67970601  1  -0.04704  0  -0.006593  0.046944  0  4.049055  0
C  C118  1  0.40922366  0.92318173  0.07788778  1  1.669975  0  0.277639  0.733799  0  4.144504  0
C  C119  1  0.90207112  0.07619614  0.92218979  1  1.668142  0  0.277404  0.734466  0  4.144693  0
C  C120  1  0.40409749  0.93426170  0.93739236  1  1.530986  0  0.266078  0.65605  0  4.063391  0
C  C121  1  0.92142082  0.06408378  0.06370069  1  1.525578  0  0.263989  0.654926  0  4.072896  0
N  N122  1  0.03282584  0.26143164  0.21480781  1  -0.590206  0  -0.156027  -0.138115  0  3.280153  0
N  N123  1  0.54950882  0.74515182  0.78186016  1  -0.584377  0  -0.155041  -0.142675  0  3.291365  0
N  N124  1  0.02829724  0.29336534  0.25134982  1  -0.550881  0  -0.164902  -0.162533  0  3.219446  0
N  N125  1  0.54095644  0.70883851  0.74884537  1  -0.554977  0  -0.159475  -0.152034  0  3.244558  0
N  N126  1  0.69976447  0.25612848  0.27355112  1  -0.561068  0  -0.164887  -0.161595  0  3.226956  0
N  N127  1  0.20976494  0.74123018  0.72495799  1  -0.544558  0  -0.157832  -0.151982  0  3.234593  0
N  N128  1  0.70915658  0.22191771  0.23886207  1  -0.598449  0  -0.156361  -0.141535  0  3.281957  0
N  N129  1  0.21803385  0.77736484  0.75802197  1  -0.572295  0  -0.149286  -0.134449  0  3.269663  0
N  N130  1  0.55787825  0.13712386  0.19561667  1  -1.287386  0  -0.589735  -0.603848  0  3.426957  0
N  N131  1  0.08520014  0.87309767  0.78923859  1  -1.239852  0  -0.604783  -0.61734  0  3.361941  0
N  N132  1  0.23506348  0.21638456  0.14715248  1  -1.252172  0  -0.599841  -0.594394  0  3.37094  0
N  N133  1  0.73260882  0.78679791  0.85540547  1  -1.274754  0  -0.585888  -0.584129  0  3.412887  0
N  N134  1  0.27697366  0.13344977  0.08896659  1  -1.243967  0  -0.59376  -0.594551  0  3.361885  0
N  N135  1  0.75785971  0.86118614  0.92129988  1  -1.227218  0  -0.611663  -0.619088  0  3.321173  0
N  N136  1  0.49444307  0.41178578  0.37752531  1  -1.292434  0  -0.582574  -0.599639  0  3.356661  0
N  N137  1  0.01582339  0.63116072  0.58411251  1  -1.285273  0  -0.584938  -0.603117  0  3.344119  0
N  N138  1  0.50236539  0.28655529  0.70202727  1  -1.124802  0  -0.626269  -0.668642  0  3.180466  0
N  N139  1  0.00207538  0.71323704  0.29703619  1  -1.127609  0  -0.624481  -0.664335  0  3.174919  0
N  N140  1  0.64369522  0.34547573  0.75612405  1  -1.093321  0  -0.632969  -0.684117  0  3.150521  0
N  N141  1  0.13411724  0.65434795  0.24309911  1  -1.109188  0  -0.633515  -0.684149  0  3.152486  0
N  N142  1  0.79388918  0.21614400  0.65778128  1  -1.091976  0  -0.623971  -0.641895  0  3.217601  0
N  N143  1  0.30310035  0.78325576  0.34220518  1  -1.12876  0  -0.622109  -0.637003  0  3.219112  0
O  O144  1  0.53229818  0.56186067  0.44519694  1  -1.245619  0  -0.231241  -0.593945  0  2.291999  0
O  O145  1  0.04632787  0.44522650  0.56145188  1  -1.244672  0  -0.231742  -0.588322  0  2.283163  0
O  O146  1  0.21291926  0.55561468  0.53857819  1  -1.271  0  -0.241746  -0.613318  0  2.394194  0
O  O147  1  0.68983213  0.45243865  0.45161839  1  -1.267397  0  -0.239979  -0.606009  0  2.392882  0
O  O148  1  0.19521190  0.55272201  0.43578320  1  -1.239116  0  -0.232148  -0.5879  0  2.269186  0
O  O149  1  0.70718536  0.43798274  0.55725018  1  -1.248949  0  -0.2314  -0.59322  0  2.284092  0
O  O150  1  0.02615354  0.44204384  0.45834974  1  -1.268686  0  -0.247784  -0.612366  0  2.348937  0
O  O151  1  0.54741239  0.54633783  0.55158933  1  -1.259646  0  -0.243345  -0.602382  0  2.33652  0
O  O152  1  0.36932186  0.46203817  0.50429924  1  -1.410649  0  -0.448619  -0.987553  0  2.190398  0
O  O153  1  0.87207753  0.53747749  0.49470469  1  -1.423162  0  -0.447649  -0.979762  0  2.165471  0
O  O154  1  0.23291733  0.95275281  0.94801704  1  -1.253928  0  -0.241232  -0.592973  0  2.326959  0
O  O155  1  0.74948598  0.05162635  0.04654418  1  -1.260897  0  -0.24034  -0.598133  0  2.348045  0
O  O156  1  0.58141814  0.94396956  0.06328019  1  -1.246231  0  -0.229196  -0.584363  0  2.279115  0
O  O157  1  0.07384704  0.06042945  0.94122300  1  -1.245939  0  -0.23058  -0.590093  0  2.287561  0
O  O158  1  0.56785960  0.94492676  0.96004470  1  -1.26915  0  -0.239742  -0.606636  0  2.397345  0
O  O159  1  0.08826269  0.04843602  0.04708709  1  -1.263556  0  -0.239347  -0.603796  0  2.376934  0
O  O160  1  0.73398346  0.05621738  0.94083183  1  -1.245176  0  -0.22936  -0.590339  0  2.286969  0
O  O161  1  0.24327929  0.93806381  0.05486216  1  -1.247193  0  -0.228925  -0.592133  0  2.291394  0
O  O162  1  0.41004492  0.03775170  0.99509137  1  -1.423126  0  -0.448202  -0.980062  0  2.168105  0
O  O163  1  0.90757154  0.96193878  0.00466803  1  -1.43217  0  -0.446489  -0.979129  0  2.165425  0
