# generated using pymatgen
data_CdNiH23(C5N2)4
_symmetry_space_group_name_H-M   'P 1'
_cell_length_a   7.75272066
_cell_length_b   10.28572926
_cell_length_c   29.77037592
_cell_angle_alpha   88.95992815
_cell_angle_beta   82.50361883
_cell_angle_gamma   67.88402168
_symmetry_Int_Tables_number   1
_chemical_formula_structural   CdNiH23(C5N2)4
_chemical_formula_sum   'Cd4 Ni4 H92 C80 N32'
_cell_volume   2179.25686478
_cell_formula_units_Z   4
loop_
 _symmetry_equiv_pos_site_id
 _symmetry_equiv_pos_as_xyz
  1  'x, y, z'
loop_
 _atom_site_type_symbol
 _atom_site_label
 _atom_site_symmetry_multiplicity
 _atom_site_fract_x
 _atom_site_fract_y
 _atom_site_fract_z
 _atom_site_occupancy
 _atom_site_pbe_bader_charge
 _atom_site_pbe_bader_spin_density
 _atom_site_pbe_cm5_charge
 _atom_site_pbe_ddec_charge
 _atom_site_pbe_ddec_spin_density
 _atom_site_pbe_ddec_sum_bond_order
 _atom_site_pbe_magmom
Cd  Cd0  1  0.96607364  0.42229328  0.85945198  1  1.234641  0  0.799977  0.850719  0  2.313468  0
Cd  Cd1  1  0.24775543  0.07730800  0.64049733  1  1.233252  0  0.799928  0.850105  0  2.314818  0
Cd  Cd2  1  0.03392648  0.57770553  0.14054799  1  1.234642  0  0.799959  0.850649  0  2.313519  0
Cd  Cd3  1  0.75225074  0.92269925  0.35950410  1  1.233293  0  0.799863  0.850021  0  2.314729  0
Ni  Ni4  1  0.61221109  0.24955689  0.74997400  1  0.642472  0  0.407479  0.135362  0  3.85144  0
Ni  Ni5  1  0.38779619  0.75043252  0.25002737  1  0.6427  0  0.407489  0.135375  0  3.851574  0
Ni  Ni6  1  0.50000174  0.50000252  0.99999854  1  0.62247  0  0.393021  0.133265  0  3.877472  0
Ni  Ni7  1  0.99999845  0.99999581  0.50000524  1  0.623689  0  0.393212  0.134914  0  3.876134  0
H  H8  1  0.08287511  0.28336787  0.94090813  1  0.454925  0  0.281973  0.275429  0  0.993053  0
H  H9  1  0.30705135  0.21645826  0.55903736  1  0.457189  0  0.281813  0.274996  0  0.993002  0
H  H10  1  0.91712448  0.71662884  0.05909212  1  0.453453  0  0.281961  0.275442  0  0.993026  0
H  H11  1  0.69294994  0.78353840  0.44096120  1  0.457251  0  0.281839  0.275055  0  0.992948  0
H  H12  1  0.20249854  0.17505356  0.89883327  1  0.431627  0  0.285729  0.274149  0  0.974113  0
H  H13  1  0.27672759  0.32460018  0.60113473  1  0.417334  0  0.285542  0.273709  0  0.974375  0
H  H14  1  0.79750211  0.82494419  0.10116669  1  0.431641  0  0.285745  0.274146  0  0.974123  0
H  H15  1  0.72327380  0.67540478  0.39886091  1  0.417493  0  0.285579  0.273727  0  0.974421  0
H  H16  1  0.79718120  0.23970984  0.92168069  1  0.072425  0  0.100026  0.077948  0  1.013846  0
H  H17  1  0.95829448  0.26049494  0.57844232  1  0.070138  0  0.099685  0.07714  0  1.013001  0
H  H18  1  0.20281907  0.76028685  0.07831888  1  0.07256  0  0.100022  0.077959  0  1.013906  0
H  H19  1  0.04171315  0.73949746  0.42155462  1  0.07025  0  0.099731  0.077136  0  1.013027  0
H  H20  1  0.96647798  0.09741375  0.88847385  1  0.05452  0  0.103182  0.08318  0  1.005959  0
H  H21  1  0.95284990  0.40270467  0.61158564  1  0.060229  0  0.103032  0.082832  0  1.006054  0
H  H22  1  0.03352441  0.90258188  0.11152543  1  0.054573  0  0.103203  0.083151  0  1.006014  0
H  H23  1  0.04714572  0.59729294  0.38841032  1  0.06043  0  0.102946  0.082717  0  1.006046  0
H  H24  1  0.20809865  0.90424771  0.92762814  1  0.083019  0  0.094669  0.095817  0  1.043906  0
H  H25  1  0.03977831  0.59600904  0.57232145  1  0.074127  0  0.09448  0.095092  0  1.04525  0
H  H26  1  0.79190520  0.09575002  0.07237124  1  0.082992  0  0.094685  0.095851  0  1.043899  0
H  H27  1  0.96021267  0.40398963  0.42767471  1  0.074105  0  0.094478  0.095083  0  1.04538  0
H  H28  1  0.74189686  0.23486837  0.00242240  1  0.07509  0  0.087832  0.073188  0  1.074712  0
H  H29  1  0.97933617  0.26497698  0.49764019  1  0.036977  0  0.087383  0.0725  0  1.074869  0
H  H30  1  0.25810284  0.76512830  0.99757645  1  0.075052  0  0.087812  0.07318  0  1.074675  0
H  H31  1  0.02065335  0.73501959  0.50235587  1  0.037281  0  0.087359  0.072501  0  1.074798  0
H  H32  1  0.87158321  0.68706308  0.81311312  1  0.418271  0  0.285208  0.263082  0  0.989358  0
H  H33  1  0.37167979  0.81260012  0.68689589  1  0.421516  0  0.285353  0.262437  0  0.990855  0
H  H34  1  0.12841296  0.31293676  0.18688639  1  0.418186  0  0.28518  0.263035  0  0.989408  0
H  H35  1  0.62831978  0.18740180  0.31310309  1  0.421502  0  0.285325  0.262411  0  0.990907  0
H  H36  1  0.72189435  0.61528278  0.80480411  1  0.431056  0  0.28827  0.267977  0  0.981467  0
H  H37  1  0.14196218  0.88428858  0.69530479  1  0.420987  0  0.288611  0.268621  0  0.980304  0
H  H38  1  0.27810432  0.38471392  0.19519575  1  0.431071  0  0.28827  0.267942  0  0.981522  0
H  H39  1  0.85803833  0.11572278  0.30469377  1  0.421518  0  0.288612  0.268716  0  0.980082  0
H  H40  1  0.10583456  0.53959298  0.75716779  1  0.063321  0  0.106199  0.089164  0  0.980873  0
H  H41  1  0.40279574  0.96017681  0.74278477  1  0.059073  0  0.105814  0.088231  0  0.982436  0
H  H42  1  0.89416407  0.46040264  0.24283135  1  0.063274  0  0.106165  0.089129  0  0.980888  0
H  H43  1  0.59721211  0.03982097  0.25721579  1  0.059148  0  0.105821  0.088231  0  0.982505  0
H  H44  1  0.96395683  0.44361220  0.75030223  1  0.058969  0  0.107125  0.091482  0  0.985376  0
H  H45  1  0.15809101  0.05589525  0.74977298  1  0.071428  0  0.10689  0.09097  0  0.985587  0
H  H46  1  0.03603489  0.55638765  0.24969782  1  0.059003  0  0.107138  0.091537  0  0.985322  0
H  H47  1  0.84191453  0.94410462  0.25022755  1  0.071407  0  0.106897  0.090992  0  0.985553  0
H  H48  1  0.92794211  0.82161614  0.74404459  1  0.068093  0  0.094447  0.092126  0  1.040213  0
H  H49  1  0.49412398  0.67800458  0.75591462  1  0.06009  0  0.094304  0.092042  0  1.040733  0
H  H50  1  0.07206192  0.17838056  0.25595512  1  0.068031  0  0.094438  0.092123  0  1.040247  0
H  H51  1  0.50587411  0.32199210  0.24408453  1  0.059883  0  0.094339  0.09208  0  1.040709  0
H  H52  1  0.81205372  0.97077108  0.67937328  1  0.081345  0  0.0984  0.099738  0  1.046388  0
H  H53  1  0.46332062  0.52872275  0.82062360  1  0.091214  0  0.098611  0.100143  0  1.046568  0
H  H54  1  0.18795047  0.02922664  0.32062576  1  0.081332  0  0.098396  0.099716  0  1.046405  0
H  H55  1  0.53666964  0.47127500  0.17937634  1  0.091248  0  0.098586  0.100101  0  1.046595  0
H  H56  1  0.67880574  0.64095260  0.62395597  1  0.072697  0  0.098355  0.098474  0  1.043995  0
H  H57  1  0.94524881  0.85835246  0.87626650  1  0.072237  0  0.098394  0.099098  0  1.043253  0
H  H58  1  0.32119808  0.35904720  0.37604241  1  0.072739  0  0.098358  0.098451  0  1.044073  0
H  H59  1  0.05474226  0.14164836  0.12373111  1  0.072255  0  0.098406  0.099085  0  1.043341  0
H  H60  1  0.79512624  0.49339367  0.68777024  1  0.088176  0  0.099242  0.101719  0  1.038609  0
H  H61  1  0.97729850  0.00599761  0.81242760  1  0.094418  0  0.099209  0.102162  0  1.03785  0
H  H62  1  0.20487400  0.50660508  0.31222834  1  0.088153  0  0.099246  0.101711  0  1.038572  0
H  H63  1  0.02269831  0.99400112  0.18757051  1  0.094428  0  0.099227  0.102204  0  1.037838  0
H  H64  1  0.23439118  0.64647665  0.92331313  1  0.049375  0  0.097429  0.071555  0  1.00668  0
H  H65  1  0.80396764  0.85279581  0.57682117  1  0.04552  0  0.097325  0.071594  0  1.007079  0
H  H66  1  0.76559753  0.35353053  0.07668630  1  0.049298  0  0.097409  0.071502  0  1.00674  0
H  H67  1  0.19603139  0.14720715  0.42317782  1  0.045534  0  0.097346  0.071613  0  1.007039  0
H  H68  1  0.31149312  0.49200433  0.88902005  1  0.065199  0  0.106345  0.091133  0  0.985972  0
H  H69  1  0.69227154  0.00729572  0.61108777  1  0.079983  0  0.106363  0.091196  0  0.985599  0
H  H70  1  0.68849977  0.50800185  0.11098089  1  0.065302  0  0.106339  0.091112  0  0.985957  0
H  H71  1  0.30773115  0.99270416  0.38891301  1  0.079904  0  0.106338  0.091212  0  0.985572  0
H  H72  1  0.01769794  0.54104068  0.93940385  1  0.450893  0  0.289474  0.281086  0  0.969745  0
H  H73  1  0.49827773  0.95849556  0.56059123  1  0.451181  0  0.289554  0.280977  0  0.969996  0
H  H74  1  0.98229669  0.45896338  0.06059640  1  0.45086  0  0.289474  0.281141  0  0.969663  0
H  H75  1  0.50172119  0.04150431  0.43940942  1  0.45115  0  0.289584  0.281023  0  0.969957  0
H  H76  1  0.91088095  0.67606445  0.90981734  1  0.416508  0  0.285425  0.261103  0  1.001119  0
H  H77  1  0.49633895  0.82343330  0.59011731  1  0.416096  0  0.284917  0.259989  0  1.001831  0
H  H78  1  0.08910933  0.32393644  0.09018234  1  0.416605  0  0.28541  0.261129  0  1.001134  0
H  H79  1  0.50365648  0.17657082  0.40988471  1  0.416059  0  0.284921  0.25997  0  1.001833  0
H  H80  1  0.62268180  0.78989793  0.95432906  1  0.469861  0  0.316231  0.266322  0  0.955875  0
H  H81  1  0.36534627  0.70999564  0.54582252  1  0.474409  0  0.31647  0.266928  0  0.954561  0
H  H82  1  0.37731358  0.21010499  0.04566841  1  0.469723  0  0.316245  0.266385  0  0.955998  0
H  H83  1  0.63464650  0.29000745  0.45418008  1  0.474432  0  0.316464  0.266997  0  0.954485  0
H  H84  1  0.54085205  0.74293176  0.87853652  1  0.114083  0  0.106086  0.096744  0  1.076984  0
H  H85  1  0.16116382  0.75679448  0.62166532  1  0.11446  0  0.1059  0.096543  0  1.077344  0
H  H86  1  0.45913870  0.25708370  0.12145936  1  0.113886  0  0.106052  0.096706  0  1.076977  0
H  H87  1  0.83882608  0.24320548  0.37833779  1  0.114493  0  0.105917  0.096574  0  1.077199  0
H  H88  1  0.48928666  0.98071782  0.82973918  1  0.056445  0  0.095235  0.114217  0  1.03496  0
H  H89  1  0.29924877  0.51918962  0.67049329  1  0.057401  0  0.095322  0.114079  0  1.034992  0
H  H90  1  0.51072172  0.01930721  0.17026034  1  0.056902  0  0.095207  0.114173  0  1.035161  0
H  H91  1  0.70074186  0.48080291  0.32950758  1  0.057118  0  0.09533  0.114094  0  1.035045  0
H  H92  1  0.55285726  0.16334301  0.88434393  1  0.075994  0  0.100951  0.123114  0  1.018758  0
H  H93  1  0.60002270  0.33685243  0.61583937  1  0.061663  0  0.100828  0.122851  0  1.018698  0
H  H94  1  0.44715643  0.83666645  0.11566061  1  0.07626  0  0.100922  0.123116  0  1.018741  0
H  H95  1  0.39996280  0.66314315  0.38415861  1  0.061986  0  0.100819  0.122776  0  1.018776  0
H  H96  1  0.63844513  0.02698376  0.96323566  1  0.125828  0  0.109912  0.100833  0  1.043332  0
H  H97  1  0.62752655  0.47314338  0.53689004  1  0.129051  0  0.110049  0.100727  0  1.042874  0
H  H98  1  0.36156308  0.97300880  0.03676583  1  0.125932  0  0.109895  0.100817  0  1.043196  0
H  H99  1  0.37245970  0.52685967  0.46311128  1  0.128913  0  0.11011  0.100797  0  1.042853  0
C  C100  1  0.74657224  0.27880542  0.79240232  1  0.790068  0  0.018661  0.03659  0  3.840807  0
C  C101  1  0.81820814  0.22055679  0.70754804  1  0.808716  0  0.017963  0.034486  0  3.842435  0
C  C102  1  0.25343341  0.72118292  0.20759863  1  0.789243  0  0.018581  0.036527  0  3.840951  0
C  C103  1  0.18179298  0.77944418  0.29245376  1  0.808807  0  0.018046  0.034562  0  3.842405  0
C  C104  1  0.40292718  0.29004586  0.79219777  1  0.805677  0  0.024369  0.048583  0  3.835268  0
C  C105  1  0.48559430  0.20904297  0.70775351  1  0.804313  0  0.023494  0.047462  0  3.835403  0
C  C106  1  0.59707612  0.70993830  0.20780368  1  0.805618  0  0.024349  0.04865  0  3.835298  0
C  C107  1  0.51440869  0.79095896  0.29224594  1  0.804224  0  0.023477  0.047323  0  3.83538  0
C  C108  1  0.59026715  0.50241800  0.94005620  1  0.789611  0  0.016521  0.034616  0  3.840655  0
C  C109  1  0.03253766  0.99738182  0.55994696  1  0.787802  0  0.015974  0.034614  0  3.838175  0
C  C110  1  0.40973181  0.49758595  0.05994107  1  0.789774  0  0.016419  0.034379  0  3.840842  0
C  C111  1  0.96747012  0.00260258  0.44006161  1  0.78863  0  0.015918  0.034435  0  3.838696  0
C  C112  1  0.33892859  0.41379497  0.98828825  1  0.76111  0  -0.000656  -0.002211  0  3.865563  0
C  C113  1  0.74105086  0.08584395  0.51175148  1  0.772472  0  -0.000974  -0.003545  0  3.866395  0
C  C114  1  0.66108136  0.58621529  0.01170922  1  0.761405  0  -0.000539  -0.002015  0  3.865643  0
C  C115  1  0.25895894  0.91415407  0.48825611  1  0.772748  0  -0.000748  -0.003261  0  3.866853  0
C  C116  1  0.94279344  0.16405254  0.91878794  1  0.26741  0  -0.07715  -0.035461  0  3.950408  0
C  C117  1  0.02573271  0.33599777  0.58126478  1  0.262869  0  -0.076259  -0.0334  0  3.948105  0
C  C118  1  0.05720722  0.83594521  0.08121202  1  0.267249  0  -0.077162  -0.035489  0  3.950539  0
C  C119  1  0.97426865  0.66399777  0.41873167  1  0.262501  0  -0.076244  -0.033191  0  3.948013  0
C  C120  1  0.97144697  0.07822091  0.96050257  1  -0.029328  0  -0.016894  0.078539  0  3.98631  0
C  C121  1  0.01022844  0.42180048  0.53953094  1  -0.004903  0  -0.017222  0.077865  0  3.987842  0
C  C122  1  0.02855456  0.92177892  0.03949678  1  -0.02931  0  -0.01687  0.078576  0  3.986314  0
C  C123  1  0.98978002  0.57818979  0.46046493  1  -0.004833  0  -0.017247  0.077589  0  3.988159  0
C  C124  1  0.11626651  0.94574341  0.95936893  1  -0.029891  0  -0.096492  -0.128765  0  3.983198  0
C  C125  1  0.02135197  0.55435802  0.54059319  1  -0.013739  0  -0.0966  -0.128804  0  3.986189  0
C  C126  1  0.88373918  0.05425749  0.04063093  1  -0.029884  0  -0.096438  -0.128721  0  3.983296  0
C  C127  1  0.97865253  0.44563328  0.45940222  1  -0.013595  0  -0.096527  -0.128545  0  3.986185  0
C  C128  1  0.85585828  0.13151923  0.00149356  1  -0.140406  0  -0.097036  -0.130765  0  3.998818  0
C  C129  1  0.98892886  0.36840386  0.49855685  1  -0.133352  0  -0.096356  -0.129646  0  3.998007  0
C  C130  1  0.14414687  0.86847958  0.99850658  1  -0.14043  0  -0.097014  -0.130766  0  3.998714  0
C  C131  1  0.01107724  0.63158743  0.50143827  1  -0.133886  0  -0.096246  -0.129435  0  3.998102  0
C  C132  1  0.95972709  0.54944087  0.75699443  1  0.29413  0  -0.071682  -0.029721  0  3.925226  0
C  C133  1  0.26643275  0.95012353  0.74303256  1  0.278667  0  -0.07153  -0.028293  0  3.925449  0
C  C134  1  0.04027018  0.45055794  0.24300579  1  0.294116  0  -0.071681  -0.029755  0  3.925209  0
C  C135  1  0.73357187  0.04987633  0.25696759  1  0.278638  0  -0.071519  -0.028294  0  3.925554  0
C  C136  1  0.87474934  0.64513817  0.71989857  1  -0.063513  0  -0.019724  0.074004  0  3.978915  0
C  C137  1  0.24046998  0.85432469  0.78015108  1  -0.053938  0  -0.018937  0.075489  0  3.97825  0
C  C138  1  0.12524969  0.35486166  0.28010068  1  -0.063532  0  -0.019704  0.074024  0  3.978875  0
C  C139  1  0.75953083  0.14567409  0.21984822  1  -0.054453  0  -0.01893  0.075498  0  3.978209  0
C  C140  1  0.87451350  0.78152895  0.71744715  1  -0.064157  0  -0.099085  -0.140163  0  3.99492  0
C  C141  1  0.37422667  0.71799478  0.78257083  1  -0.058602  0  -0.098945  -0.140301  0  3.995064  0
C  C142  1  0.12548823  0.21846984  0.28255252  1  -0.064105  0  -0.099113  -0.140254  0  3.994981  0
C  C143  1  0.62577182  0.28200295  0.21742870  1  -0.058373  0  -0.099003  -0.140321  0  3.995087  0
C  C144  1  0.80868326  0.86580702  0.68135151  1  -0.06859  0  -0.093504  -0.135745  0  3.993626  0
C  C145  1  0.35696715  0.63366316  0.81869939  1  -0.107025  0  -0.094018  -0.136172  0  3.994045  0
C  C146  1  0.19132184  0.13419071  0.31864791  1  -0.068584  0  -0.093453  -0.135639  0  3.993608  0
C  C147  1  0.64302631  0.36633457  0.18129997  1  -0.106593  0  -0.093994  -0.136165  0  3.994104  0
C  C148  1  0.74070243  0.81657250  0.64656622  1  -0.054836  0  -0.012839  0.087621  0  3.949766  0
C  C149  1  0.20518468  0.68280698  0.85355241  1  -0.025429  0  -0.012441  0.08789  0  3.951039  0
C  C150  1  0.25929577  0.18342946  0.35343410  1  -0.054806  0  -0.012813  0.087542  0  3.949812  0
C  C151  1  0.79480884  0.31719496  0.14644740  1  -0.025316  0  -0.012468  0.08782  0  3.95102  0
C  C152  1  0.73216882  0.68302965  0.65010534  1  -0.051741  0  -0.094951  -0.137565  0  3.97939  0
C  C153  1  0.06667750  0.81636941  0.85006847  1  -0.051616  0  -0.095459  -0.138859  0  3.981134  0
C  C154  1  0.26783591  0.31697016  0.34989342  1  -0.051753  0  -0.095036  -0.137609  0  3.979401  0
C  C155  1  0.93331593  0.18363039  0.14992989  1  -0.052123  0  -0.095429  -0.138797  0  3.981245  0
C  C156  1  0.79855056  0.59853999  0.68630473  1  -0.07943  0  -0.094235  -0.138162  0  3.988483  0
C  C157  1  0.08443759  0.90088062  0.81384719  1  -0.082288  0  -0.094512  -0.139704  0  3.989351  0
C  C158  1  0.20144954  0.40146088  0.31369424  1  -0.079431  0  -0.094186  -0.13805  0  3.988283  0
C  C159  1  0.91556082  0.09911810  0.18615063  1  -0.081768  0  -0.094561  -0.139796  0  3.989432  0
C  C160  1  0.20084389  0.59685452  0.89486858  1  0.287366  0  -0.073368  -0.027083  0  3.940484  0
C  C161  1  0.69215499  0.90246916  0.60522445  1  0.28293  0  -0.073006  -0.027178  0  3.941285  0
C  C162  1  0.79914857  0.40314953  0.10513125  1  0.287218  0  -0.073305  -0.026894  0  3.940411  0
C  C163  1  0.30784765  0.09752964  0.39477560  1  0.283011  0  -0.073026  -0.027182  0  3.94129  0
C  C164  1  0.55421723  0.84018664  0.88723907  1  0.240557  0  -0.027106  -0.055073  0  4.006293  0
C  C165  1  0.28052321  0.65963013  0.61294255  1  0.242381  0  -0.02716  -0.054952  0  4.009298  0
C  C166  1  0.44578079  0.15982785  0.11275913  1  0.240877  0  -0.027041  -0.055034  0  4.00593  0
C  C167  1  0.71946975  0.34037192  0.38706038  1  0.242388  0  -0.027189  -0.054943  0  4.009014  0
C  C168  1  0.52822292  0.96224313  0.86368779  1  -0.027795  0  -0.136778  -0.199126  0  4.082178  0
C  C169  1  0.35340868  0.53771029  0.63651824  1  -0.008228  0  -0.136446  -0.198706  0  4.082758  0
C  C170  1  0.47178044  0.03777355  0.13631309  1  -0.028615  0  -0.136868  -0.199135  0  4.082064  0
C  C171  1  0.64659026  0.46228751  0.36348340  1  -0.007762  0  -0.136411  -0.198745  0  4.08281  0
C  C172  1  0.56013359  0.05825834  0.89241831  1  -0.04533  0  -0.131353  -0.190176  0  4.068251  0
C  C173  1  0.51006058  0.44183415  0.60776318  1  -0.044617  0  -0.131195  -0.189477  0  4.068119  0
C  C174  1  0.43988032  0.94175103  0.10758344  1  -0.045185  0  -0.131293  -0.190241  0  4.068216  0
C  C175  1  0.48993080  0.55816572  0.39223720  1  -0.045105  0  -0.131121  -0.189292  0  4.067922  0
C  C176  1  0.60422337  0.99193352  0.93270445  1  0.279633  0  -0.015805  -0.030059  0  3.975226  0
C  C177  1  0.52776630  0.50810429  0.56743942  1  0.274443  0  -0.015582  -0.0295  0  3.974062  0
C  C178  1  0.39578815  0.00806744  0.06729736  1  0.279471  0  -0.015697  -0.029808  0  3.974987  0
C  C179  1  0.47222251  0.49189983  0.43256271  1  0.274584  0  -0.015656  -0.029589  0  3.974032  0
N  N180  1  0.83827913  0.29453675  0.81857843  1  -1.327821  0  -0.363415  -0.357192  0  3.217382  0
N  N181  1  0.95178214  0.20515485  0.68138175  1  -1.348621  0  -0.363105  -0.355077  0  3.218923  0
N  N182  1  0.16172635  0.70545890  0.18142165  1  -1.327106  0  -0.363353  -0.357131  0  3.217479  0
N  N183  1  0.04822012  0.79485136  0.31862021  1  -1.348765  0  -0.363144  -0.355114  0  3.218971  0
N  N184  1  0.26599723  0.32344274  0.81839363  1  -1.340018  0  -0.366194  -0.360403  0  3.224678  0
N  N185  1  0.40826152  0.17585068  0.68151495  1  -1.338682  0  -0.365268  -0.359302  0  3.224947  0
N  N186  1  0.73400846  0.67654981  0.18160776  1  -1.339946  0  -0.366186  -0.360452  0  3.224629  0
N  N187  1  0.59174079  0.82415128  0.31848517  1  -1.338643  0  -0.365246  -0.359178  0  3.224734  0
N  N188  1  0.65559920  0.50684297  0.90244114  1  -1.351129  0  -0.371738  -0.376683  0  3.192607  0
N  N189  1  0.06449807  0.99295351  0.59757739  1  -1.346677  0  -0.37149  -0.377085  0  3.190514  0
N  N190  1  0.34439494  0.49316309  0.09755602  1  -1.351166  0  -0.37165  -0.376469  0  3.192599  0
N  N191  1  0.93551655  0.00703626  0.40243469  1  -1.347358  0  -0.371401  -0.376848  0  3.190872  0
N  N192  1  0.23111293  0.36098303  0.98377942  1  -1.334632  0  -0.358476  -0.37499  0  2.98437  0
N  N193  1  0.57598095  0.13856767  0.51625780  1  -1.347148  0  -0.358415  -0.374238  0  2.98517  0
N  N194  1  0.76888612  0.63902307  0.01621930  1  -1.334988  0  -0.358558  -0.375131  0  2.984767  0
N  N195  1  0.42401122  0.86143759  0.48374691  1  -1.347408  0  -0.358631  -0.374483  0  2.986021  0
N  N196  1  0.06905944  0.24256300  0.91088692  1  -1.133555  0  -0.625603  -0.556326  0  3.31147  0
N  N197  1  0.22257229  0.25723512  0.58908276  1  -1.121402  0  -0.625596  -0.556246  0  3.311835  0
N  N198  1  0.93094103  0.75743579  0.08911271  1  -1.132116  0  -0.625607  -0.556297  0  3.311447  0
N  N199  1  0.77742849  0.74276573  0.41091555  1  -1.121682  0  -0.625633  -0.556338  0  3.311946  0
N  N200  1  0.86216090  0.59509317  0.80353609  1  -1.120453  0  -0.620988  -0.559598  0  3.333286  0
N  N201  1  0.26078168  0.90452828  0.69650923  1  -1.112363  0  -0.621618  -0.560083  0  3.333205  0
N  N202  1  0.13783831  0.40490562  0.19646350  1  -1.120382  0  -0.620959  -0.559487  0  3.333245  0
N  N203  1  0.73922151  0.09547575  0.30349028  1  -1.112882  0  -0.621585  -0.560159  0  3.33314  0
N  N204  1  0.01969775  0.58043046  0.90751214  1  -1.132281  0  -0.628826  -0.567615  0  3.337282  0
N  N205  1  0.50738572  0.91902663  0.59247857  1  -1.133989  0  -0.628479  -0.565982  0  3.338396  0
N  N206  1  0.98029469  0.41957044  0.09248796  1  -1.132341  0  -0.628816  -0.567741  0  3.337299  0
N  N207  1  0.49261465  0.08097534  0.40752218  1  -1.133925  0  -0.628472  -0.565966  0  3.338314  0
N  N208  1  0.60175571  0.85962266  0.92894422  1  -1.269532  0  -0.403503  -0.201183  0  3.75356  0
N  N209  1  0.38903505  0.64029245  0.57121011  1  -1.281035  0  -0.403211  -0.202077  0  3.754142  0
N  N210  1  0.39824672  0.14038239  0.07105425  1  -1.269506  0  -0.403569  -0.201373  0  3.753712  0
N  N211  1  0.61095598  0.35971276  0.42879318  1  -1.281127  0  -0.403273  -0.202253  0  3.753917  0
