# generated using pymatgen
data_Cd3H40C48(I3N8)2
_symmetry_space_group_name_H-M   'P 1'
_cell_length_a   8.49177629
_cell_length_b   13.17761977
_cell_length_c   13.90660000
_cell_angle_alpha   71.84031264
_cell_angle_beta   83.15165796
_cell_angle_gamma   80.98059064
_symmetry_Int_Tables_number   1
_chemical_formula_structural   Cd3H40C48(I3N8)2
_chemical_formula_sum   'Cd3 H40 C48 I6 N16'
_cell_volume   1456.26157985
_cell_formula_units_Z   1
loop_
 _symmetry_equiv_pos_site_id
 _symmetry_equiv_pos_as_xyz
  1  'x, y, z'
loop_
 _atom_site_type_symbol
 _atom_site_label
 _atom_site_symmetry_multiplicity
 _atom_site_fract_x
 _atom_site_fract_y
 _atom_site_fract_z
 _atom_site_occupancy
 _atom_site_hle17_bader_spin_density
 _atom_site_hle17_ddec_charge
 _atom_site_hle17_ddec_spin_density
 _atom_site_hle17_ddec_sum_bond_order
 _atom_site_hle17_magmom
 _atom_site_hse06_10hf_bader_spin_density
 _atom_site_hse06_10hf_ddec_charge
 _atom_site_hse06_10hf_ddec_spin_density
 _atom_site_hse06_10hf_ddec_sum_bond_order
 _atom_site_hse06_10hf_magmom
 _atom_site_hse06_bader_spin_density
 _atom_site_hse06_ddec_charge
 _atom_site_hse06_ddec_spin_density
 _atom_site_hse06_ddec_sum_bond_order
 _atom_site_hse06_magmom
 _atom_site_pbe_bader_charge
 _atom_site_pbe_bader_spin_density
 _atom_site_pbe_cm5_charge
 _atom_site_pbe_ddec_charge
 _atom_site_pbe_ddec_spin_density
 _atom_site_pbe_ddec_sum_bond_order
 _atom_site_pbe_magmom
Cd  Cd0  1  0.50000184  0.49999967  0.50000083  1  0  0.93315  0  1.852865  0  0  0.708569  0  2.300743  0  0  0.756917  0  2.265658  0  1.226743  0  0.800219  0.67489  0  2.324278  0
Cd  Cd1  1  0.74246771  0.20892370  0.08788505  1  0  0.680239  0  2.212971  0  0  0.534237  0  2.692826  0  0  0.578483  0  2.658212  0  0.783721  0  0.407363  0.504067  0  2.715445  0
Cd  Cd2  1  0.25753076  0.79107806  0.91211339  1  0  0.68027  0  2.212893  0  0  0.534273  0  2.692727  0  0  0.578516  0  2.658109  0  0.783713  0  0.407362  0.504102  0  2.715335  0
H  H3  1  0.28619382  0.29597685  0.67219839  1  0  0.110945  0  0.951906  0  0  0.117918  0  1.016006  0  0  0.120119  0  1.016154  0  0.095197  0  0.105064  0.116314  0  1.016002  0
H  H4  1  0.71381179  0.70401847  0.32780143  1  0  0.110972  0  0.951869  0  0  0.117891  0  1.016065  0  0  0.120089  0  1.016197  0  0.095338  0  0.105067  0.116289  0  1.016035  0
H  H5  1  0.14558587  0.13159420  0.73058643  1  0  0.091706  0  0.96145  0  0  0.099617  0  1.026048  0  0  0.102105  0  1.02602  0  0.075952  0  0.094455  0.09781  0  1.026179  0
H  H6  1  0.85440728  0.86840434  0.26941479  1  0  0.091754  0  0.961412  0  0  0.099634  0  1.026025  0  0  0.102124  0  1.025991  0  0.076104  0  0.094446  0.097825  0  1.026162  0
H  H7  1  0.99852821  0.08157741  0.61432098  1  0  0.085465  0  0.981301  0  0  0.093174  0  1.050125  0  0  0.095899  0  1.048854  0  0.078168  0  0.088756  0.091184  0  1.051097  0
H  H8  1  0.00145706  0.91842516  0.38567963  1  0  0.0855  0  0.981379  0  0  0.093212  0  1.050228  0  0  0.095938  0  1.048933  0  0.077606  0  0.088755  0.091222  0  1.051178  0
H  H9  1  0.97300921  0.19616789  0.43404141  1  0  0.114579  0  0.958773  0  0  0.121651  0  1.024237  0  0  0.124599  0  1.023963  0  0.095174  0  0.101128  0.119494  0  1.024657  0
H  H10  1  0.02698823  0.80383306  0.56595950  1  0  0.114539  0  0.958679  0  0  0.121626  0  1.024191  0  0  0.124558  0  1.023887  0  0.095212  0  0.1011  0.119451  0  1.024584  0
H  H11  1  0.08747718  0.32337168  0.25341696  1  0  0.096291  0  0.954067  0  0  0.108162  0  1.02481  0  0  0.109999  0  1.021729  0  0.122471  0  0.097939  0.106767  0  1.026246  0
H  H12  1  0.91252381  0.67662928  0.74658225  1  0  0.09626  0  0.954137  0  0  0.108442  0  1.023814  0  0  0.109965  0  1.021779  0  0.12245  0  0.097931  0.106745  0  1.026299  0
H  H13  1  0.14403809  0.45550532  0.20796172  1  0  0.107553  0  0.939216  0  0  0.119477  0  1.007414  0  0  0.121214  0  1.004764  0  0.117991  0  0.107352  0.118049  0  1.008803  0
H  H14  1  0.85596528  0.54449564  0.79203661  1  0  0.10757  0  0.939264  0  0  0.119796  0  1.006492  0  0  0.121237  0  1.004782  0  0.117674  0  0.107356  0.118081  0  1.008829  0
H  H15  1  0.84384806  0.43891223  0.42033993  1  0  0.073872  0  0.968715  0  0  0.074763  0  1.047282  0  0  0.077533  0  1.045256  0  0.102977  0  0.108716  0.072926  0  1.048311  0
H  H16  1  0.15615294  0.56108873  0.57965929  1  0  0.073887  0  0.968698  0  0  0.074929  0  1.046802  0  0  0.077527  0  1.045268  0  0.102909  0  0.108715  0.072923  0  1.048321  0
H  H17  1  0.45009085  0.55990679  0.25052854  1  0  0.07454  0  0.986998  0  0  0.069204  0  1.07792  0  0  0.072446  0  1.074119  0  0.127738  0  0.104269  0.066775  0  1.080726  0
H  H18  1  0.54991060  0.44009176  0.74946991  1  0  0.074582  0  0.986936  0  0  0.069193  0  1.077995  0  0  0.072447  0  1.074105  0  0.127726  0  0.104275  0.066765  0  1.080722  0
H  H19  1  0.61109048  0.54512928  0.09100267  1  0  0.105907  0  0.960636  0  0  0.111433  0  1.025478  0  0  0.11497  0  1.024168  0  0.127078  0  0.097135  0.108858  0  1.026607  0
H  H20  1  0.38891246  0.45486765  0.90899759  1  0  0.105877  0  0.960654  0  0  0.111407  0  1.025504  0  0  0.114939  0  1.024206  0  0.127066  0  0.097124  0.108837  0  1.026615  0
H  H21  1  0.90171260  0.47247764  0.09972267  1  0  0.102639  0  0.926771  0  0  0.115885  0  0.982341  0  0  0.118801  0  0.980247  0  0.100894  0  0.108279  0.113701  0  0.984035  0
H  H22  1  0.09828931  0.52751849  0.90027791  1  0  0.102614  0  0.92683  0  0  0.115875  0  0.982441  0  0  0.118792  0  0.980285  0  0.100859  0  0.108298  0.113691  0  0.984074  0
H  H23  1  0.42632091  0.70251930  0.63194572  1  0  0.113176  0  0.961388  0  0  0.117719  0  1.030213  0  0  0.120338  0  1.029811  0  0.110574  0  0.099293  0.115766  0  1.030626  0
H  H24  1  0.57367622  0.29748326  0.36805474  1  0  0.113128  0  0.961484  0  0  0.117658  0  1.030296  0  0  0.120279  0  1.029919  0  0.110552  0  0.099259  0.115706  0  1.030733  0
H  H25  1  0.37892913  0.88305464  0.65621442  1  0  0.083629  0  0.974849  0  0  0.089677  0  1.044263  0  0  0.092436  0  1.043151  0  0.067229  0  0.086795  0.087677  0  1.045137  0
H  H26  1  0.62107378  0.11694874  0.34378466  1  0  0.08361  0  0.974902  0  0  0.089668  0  1.044306  0  0  0.092428  0  1.043195  0  0.067246  0  0.086794  0.087669  0  1.045179  0
H  H27  1  0.30968357  0.04694922  0.51467440  1  0  0.090811  0  0.962254  0  0  0.104001  0  1.016837  0  0  0.105733  0  1.017996  0  0.114121  0  0.09929  0.102722  0  1.016123  0
H  H28  1  0.69031460  0.95305416  0.48532359  1  0  0.090848  0  0.962239  0  0  0.103996  0  1.016869  0  0  0.105737  0  1.018006  0  0.114147  0  0.099302  0.102718  0  1.016143  0
H  H29  1  0.28829452  0.03803875  0.34069683  1  0  0.111688  0  0.965087  0  0  0.118751  0  1.031263  0  0  0.122341  0  1.028951  0  0.09411  0  0.096497  0.116156  0  1.032955  0
H  H30  1  0.71170158  0.96196301  0.65930323  1  0  0.111665  0  0.965195  0  0  0.11874  0  1.031344  0  0  0.122329  0  1.02903  0  0.09414  0  0.096516  0.116144  0  1.033032  0
H  H31  1  0.23765533  0.95902989  0.19972671  1  0  0.091545  0  0.95434  0  0  0.102481  0  1.023573  0  0  0.104599  0  1.021731  0  0.085963  0  0.101545  0.100849  0  1.025896  0
H  H32  1  0.76234700  0.04097026  0.80027264  1  0  0.091527  0  0.954369  0  0  0.10244  0  1.023604  0  0  0.104557  0  1.021761  0  0.085951  0  0.101532  0.100807  0  1.025927  0
H  H33  1  0.26730377  0.83477855  0.16934630  1  0  0.09505  0  0.979038  0  0  0.103488  0  1.052438  0  0  0.105871  0  1.050289  0  0.135688  0  0.099549  0.101651  0  1.054893  0
H  H34  1  0.73269872  0.16522080  0.83065400  1  0  0.095042  0  0.979033  0  0  0.103467  0  1.052427  0  0  0.105849  0  1.050278  0  0.135672  0  0.099542  0.10163  0  1.054882  0
H  H35  1  0.45268618  0.07277564  0.16536541  1  0  0.070476  0  0.990339  0  0  0.074391  0  1.067404  0  0  0.07758  0  1.064362  0  0.101821  0  0.09484  0.072068  0  1.069505  0
H  H36  1  0.54731260  0.92722452  0.83463492  1  0  0.070499  0  0.990369  0  0  0.074417  0  1.067431  0  0  0.077606  0  1.064389  0  0.10182  0  0.094847  0.072096  0  1.069528  0
H  H37  1  0.88316175  0.99524098  0.01522276  1  0  0.065119  0  0.958728  0  0  0.073892  0  1.02771  0  0  0.07619  0  1.025125  0  0.097013  0  0.106916  0.072153  0  1.029644  0
H  H38  1  0.11683687  0.00475998  0.98477519  1  0  0.065109  0  0.95877  0  0  0.073879  0  1.027756  0  0  0.076177  0  1.025172  0  0.096846  0  0.106896  0.07214  0  1.02969  0
H  H39  1  0.81311506  0.81520081  0.02414704  1  0  0.106094  0  0.977923  0  0  0.111178  0  1.044667  0  0  0.114896  0  1.042925  0  0.132677  0  0.093989  0.108434  0  1.04612  0
H  H40  1  0.18688624  0.18479854  0.97585335  1  0  0.106108  0  0.977902  0  0  0.111189  0  1.04465  0  0  0.114907  0  1.042908  0  0.132669  0  0.093997  0.108447  0  1.046102  0
H  H41  1  0.54688858  0.76256007  0.11065205  1  0  0.103796  0  0.939837  0  0  0.113701  0  1.004109  0  0  0.116012  0  1.00295  0  0.105479  0  0.107461  0.111974  0  1.004916  0
H  H42  1  0.45311509  0.23743928  0.88935103  1  0  0.103788  0  0.939832  0  0  0.113706  0  1.004096  0  0  0.116019  0  1.002939  0  0.105634  0  0.10747  0.111978  0  1.004905  0
C  C43  1  0.20838124  0.33769348  0.51931918  1  0  0.111297  0  3.830014  0  0  0.107698  0  4.083062  0  0  0.108834  0  4.103498  0  0.35531  0  0.0886  0.107102  0  4.06717  0
C  C44  1  0.79161963  0.66230185  0.48068243  1  0  0.111073  0  3.82987  0  0  0.108315  0  4.080152  0  0  0.108607  0  4.103368  0  0.355334  0  0.0885  0.106875  0  4.067041  0
C  C45  1  0.21951752  0.27429448  0.62095543  1  0  -0.117511  0  3.725287  0  0  -0.137801  0  3.978172  0  0  -0.139433  0  3.999237  0  0.066602  0  -0.087976  -0.136696  0  3.964084  0
C  C46  1  0.78048156  0.72570406  0.37904679  1  0  -0.117397  0  3.725249  0  0  -0.137649  0  3.978203  0  0  -0.13929  0  3.999226  0  0.066536  0  -0.087927  -0.13655  0  3.964068  0
C  C47  1  0.14100704  0.18347328  0.65243274  1  0  -0.065755  0  3.747254  0  0  -0.081527  0  4.001369  0  0  -0.084425  0  4.022835  0  -0.081806  0  -0.092902  -0.079655  0  3.986995  0
C  C48  1  0.85898745  0.81652446  0.34756790  1  0  -0.065872  0  3.747268  0  0  -0.081557  0  4.001492  0  0  -0.084454  0  4.022804  0  -0.082186  0  -0.092889  -0.079686  0  3.986961  0
C  C49  1  0.05373447  0.15566220  0.58566089  1  0  -0.046625  0  3.746076  0  0  -0.065459  0  3.999999  0  0  -0.065545  0  4.020582  0  -0.03177  0  -0.088341  -0.065303  0  3.986323  0
C  C50  1  0.94626178  0.84433876  0.41433938  1  0  -0.046665  0  3.746083  0  0  -0.065543  0  4.000229  0  0  -0.065634  0  4.020603  0  -0.030952  0  -0.088347  -0.065389  0  3.986343  0
C  C51  1  0.03967010  0.21805155  0.48539388  1  0  -0.13724  0  3.725467  0  0  -0.15185  0  3.977854  0  0  -0.156039  0  3.995968  0  0.027574  0  -0.089542  -0.149204  0  3.964496  0
C  C52  1  0.96033165  0.78194538  0.51460503  1  0  -0.137215  0  3.725465  0  0  -0.15153  0  3.976551  0  0  -0.156007  0  3.995989  0  0.027826  0  -0.08956  -0.149167  0  3.964512  0
C  C53  1  0.11923873  0.30979785  0.45376766  1  0  0.09163  0  3.786122  0  0  0.067733  0  4.027613  0  0  0.081756  0  4.051721  0  0.301433  0  0.103492  0.065397  0  4.013  0
C  C54  1  0.88076628  0.69020069  0.54623197  1  0  0.091714  0  3.786002  0  0  0.07545  0  4.031509  0  0  0.081852  0  4.051585  0  0.301146  0  0.103525  0.065509  0  4.012871  0
C  C55  1  0.07055517  0.40257634  0.26716435  1  0  -0.059277  0  3.649291  0  0  -0.133522  0  3.885489  0  0  -0.120328  0  3.898898  0  0.293135  0  -0.04749  -0.13529  0  3.878482  0
C  C56  1  0.92944686  0.59742542  0.73283599  1  0  -0.059291  0  3.649449  0  0  -0.126106  0  3.889728  0  0  -0.120285  0  3.898938  0  0.293472  0  -0.047507  -0.135286  0  3.878597  0
C  C57  1  0.89663418  0.44883395  0.26141333  1  0  0.039937  0  3.723369  0  0  0.06329  0  3.96611  0  0  0.058991  0  3.988805  0  -0.033597  0  -0.005565  0.065955  0  3.949546  0
C  C58  1  0.10336696  0.55116621  0.73858539  1  0  0.039903  0  3.723312  0  0  0.063721  0  3.96436  0  0  0.058956  0  3.988722  0  -0.0336  0  -0.005537  0.065935  0  3.949472  0
C  C59  1  0.79799464  0.46082729  0.34558149  1  0  0.05922  0  3.706158  0  0  0.017579  0  3.965755  0  0  0.023809  0  3.982987  0  0.465521  0  0.030813  0.013792  0  3.953533  0
C  C60  1  0.20200651  0.53917287  0.65441795  1  0  0.059258  0  3.706113  0  0  0.017862  0  3.965096  0  0  0.023849  0  3.982952  0  0.465613  0  0.030809  0.013832  0  3.953494  0
C  C61  1  0.57696675  0.52919399  0.25097199  1  0  0.116879  0  3.707942  0  0  0.081018  0  3.967376  0  0  0.08791  0  3.985012  0  0.482092  0  0.039533  0.07657  0  3.95551  0
C  C62  1  0.42303574  0.47080536  0.74902759  1  0  0.116877  0  3.707833  0  0  0.081049  0  3.967376  0  0  0.087932  0  3.984899  0  0.482074  0  0.03956  0.076601  0  3.955413  0
C  C63  1  0.66741510  0.52050252  0.16261901  1  0  -0.107459  0  3.743558  0  0  -0.11308  0  3.987312  0  0  -0.119977  0  4.009194  0  -0.034  0  -0.083941  -0.108724  0  3.972824  0
C  C64  1  0.33258413  0.47949522  0.83738128  1  0  -0.107485  0  3.74359  0  0  -0.113111  0  3.987383  0  0  -0.120012  0  4.009198  0  -0.034012  0  -0.083967  -0.108753  0  3.97283  0
C  C65  1  0.82866160  0.48004754  0.16781406  1  0  -0.046303  0  3.690878  0  0  -0.073078  0  3.935628  0  0  -0.070837  0  3.954687  0  -0.052631  0  -0.064541  -0.074418  0  3.923065  0
C  C66  1  0.17134149  0.51994858  0.83218571  1  0  -0.046252  0  3.690876  0  0  -0.073042  0  3.935784  0  0  -0.070804  0  3.954681  0  -0.052557  0  -0.064565  -0.074389  0  3.923065  0
C  C67  1  0.37963167  0.76813807  0.47124926  1  0  0.114666  0  3.837847  0  0  0.109483  0  4.090786  0  0  0.11022  0  4.114627  0  0.419279  0  0.090603  0.10831  0  4.077356  0
C  C68  1  0.62036443  0.23186370  0.52875295  1  0  0.114528  0  3.837925  0  0  0.109339  0  4.09086  0  0  0.110074  0  4.114739  0  0.419222  0  0.090555  0.108164  0  4.077471  0
C  C69  1  0.39509769  0.77380946  0.56887894  1  0  -0.128043  0  3.722948  0  0  -0.14862  0  3.977643  0  0  -0.150361  0  3.998068  0  -0.104347  0  -0.091248  -0.147192  0  3.963733  0
C  C70  1  0.60489944  0.22619311  0.43112080  1  0  -0.127904  0  3.722855  0  0  -0.148465  0  3.977508  0  0  -0.150206  0  3.99798  0  -0.104361  0  -0.091175  -0.147036  0  3.963641  0
C  C71  1  0.36846064  0.87540824  0.58155663  1  0  -0.064486  0  3.774048  0  0  -0.080089  0  4.027586  0  0  -0.082856  0  4.048858  0  0.023983  0  -0.092727  -0.078275  0  4.013006  0
C  C72  1  0.63154020  0.12459353  0.41844307  1  0  -0.064543  0  3.774145  0  0  -0.080169  0  4.027676  0  0  -0.082937  0  4.048962  0  0.023968  0  -0.092783  -0.078354  0  4.013103  0
C  C73  1  0.32919429  0.96920201  0.50032952  1  0  -0.039774  0  3.744838  0  0  -0.054084  0  3.989167  0  0  -0.054184  0  4.010444  0  -0.051368  0  -0.0835  -0.053732  0  3.974253  0
C  C74  1  0.67080506  0.03080137  0.49966910  1  0  -0.03979  0  3.744993  0  0  -0.054051  0  3.989309  0  0  -0.054158  0  4.010576  0  -0.051355  0  -0.083468  -0.053699  0  3.974386  0
C  C75  1  0.31721625  0.96534620  0.40295521  1  0  -0.144232  0  3.734876  0  0  -0.159209  0  3.983943  0  0  -0.163393  0  4.003197  0  -0.014289  0  -0.092996  -0.156257  0  3.972258  0
C  C76  1  0.68278045  0.03465234  0.59704359  1  0  -0.144144  0  3.734956  0  0  -0.159121  0  3.984003  0  0  -0.163305  0  4.003257  0  -0.014276  0  -0.093022  -0.156171  0  3.97232  0
C  C77  1  0.34337871  0.86246323  0.39019805  1  0  0.087125  0  3.793955  0  0  0.073025  0  4.041035  0  0  0.076881  0  4.063707  0  0.3417  0  0.102726  0.062254  0  4.024026  0
C  C78  1  0.65662080  0.13753934  0.60980151  1  0  0.087101  0  3.793973  0  0  0.072973  0  4.041091  0  0  0.07683  0  4.06377  0  0.341758  0  0.102721  0.062196  0  4.024091  0
C  C79  1  0.32147200  0.88568905  0.20239752  1  0  -0.065296  0  3.65061  0  0  -0.12748  0  3.887817  0  0  -0.123956  0  3.897745  0  0.27302  0  -0.049004  -0.13758  0  3.879204  0
C  C80  1  0.67852915  0.11431111  0.79760263  1  0  -0.065254  0  3.650608  0  0  -0.127374  0  3.88776  0  0  -0.123848  0  3.897688  0  0.273362  0  -0.048969  -0.137481  0  3.879148  0
C  C81  1  0.48081151  0.91242286  0.14754304  1  0  0.030562  0  3.728072  0  0  0.052469  0  3.968486  0  0  0.047129  0  3.99382  0  -0.018489  0  -0.006583  0.055448  0  3.953418  0
C  C82  1  0.51918845  0.08757730  0.85245864  1  0  0.030553  0  3.728175  0  0  0.052452  0  3.968571  0  0  0.047111  0  3.993906  0  -0.018501  0  -0.006604  0.055433  0  3.953504  0
C  C83  1  0.53001141  0.01162459  0.13748880  1  0  0.07428  0  3.68753  0  0  0.039899  0  3.931305  0  0  0.045937  0  3.950053  0  0.474978  0  0.038826  0.036119  0  3.918434  0
C  C84  1  0.46998959  0.98837637  0.86250969  1  0  0.074251  0  3.687669  0  0  0.039828  0  3.931479  0  0  0.045868  0  3.950226  0  0.475019  0  0.038813  0.036045  0  3.918611  0
C  C85  1  0.76993726  0.96895161  0.05274157  1  0  0.118946  0  3.714891  0  0  0.085985  0  3.968333  0  0  0.092397  0  3.987634  0  0.423478  0  0.042024  0.081916  0  3.955119  0
C  C86  1  0.23006270  0.03104854  0.94725867  1  0  0.118939  0  3.714913  0  0  0.085963  0  3.968356  0  0  0.092375  0  3.987656  0  0.423495  0  0.042028  0.081894  0  3.955143  0
C  C87  1  0.73004190  0.86874330  0.05784740  1  0  -0.107139  0  3.736819  0  0  -0.116272  0  3.983534  0  0  -0.122984  0  4.004846  0  0.001104  0  -0.081235  -0.112005  0  3.969225  0
C  C88  1  0.26996043  0.13125685  0.94215411  1  0  -0.107145  0  3.736903  0  0  -0.116277  0  3.983624  0  0  -0.12299  0  4.004938  0  0.001111  0  -0.081253  -0.11201  0  3.969314  0
C  C89  1  0.58300052  0.83995720  0.10618456  1  0  -0.03939  0  3.660136  0  0  -0.065567  0  3.905109  0  0  -0.06267  0  3.923634  0  -0.034314  0  -0.06223  -0.067117  0  3.892399  0
C  C90  1  0.41700093  0.16004134  0.89381750  1  0  -0.039353  0  3.660327  0  0  -0.065548  0  3.905298  0  0  -0.062653  0  3.923829  0  -0.034494  0  -0.062216  -0.067099  0  3.892589  0
I  I91  1  0.86148382  0.31154339  0.89381648  1  0  -0.49242  0  1.043568  0  0  -0.439793  0  1.348228  0  0  -0.459307  0  1.328249  0  -0.511575  0  -0.248595  -0.425603  0  1.361488  0
I  I92  1  0.13851599  0.68845757  0.10618282  1  0  -0.492439  0  1.043557  0  0  -0.439814  0  1.348186  0  0  -0.45933  0  1.328231  0  -0.511552  0  -0.248601  -0.425625  0  1.361467  0
I  I93  1  0.99095635  0.13660297  0.21702875  1  0  -0.506171  0  1.032077  0  0  -0.450351  0  1.343837  0  0  -0.468365  0  1.322789  0  -0.538442  0  -0.249372  -0.437263  0  1.357982  0
I  I94  1  0.00904580  0.86340443  0.78296560  1  0  -0.506161  0  1.032045  0  0  -0.450366  0  1.343819  0  0  -0.46838  0  1.322783  0  -0.538447  0  -0.249363  -0.437259  0  1.357942  0
I  I95  1  0.44451215  0.29760726  0.14673098  1  0  -0.487217  0  1.016546  0  0  -0.43027  0  1.317919  0  0  -0.448726  0  1.297727  0  -0.517672  0  -0.252792  -0.417085  0  1.331369  0
I  I96  1  0.55548930  0.70239129  0.85327179  1  0  -0.48722  0  1.016498  0  0  -0.430269  0  1.317774  0  0  -0.448737  0  1.297663  0  -0.517672  0  -0.25279  -0.417095  0  1.331303  0
N  N97  1  0.13562532  0.38907740  0.36306789  1  0  0.011981  0  3.51402  0  0  0.124233  0  3.705894  0  0  0.082504  0  3.766506  0  -0.776627  0  -0.122118  0.131104  0  3.690831  0
N  N98  1  0.86437494  0.61092115  0.63693281  1  0  0.01197  0  3.514044  0  0  0.097962  0  3.742508  0  0  0.082473  0  3.76653  0  -0.776573  0  -0.122094  0.131031  0  3.690924  0
N  N99  1  0.22826865  0.46022746  0.37062019  1  0  -0.037423  0  2.855302  0  0  -0.056944  0  3.131555  0  0  -0.039126  0  3.146186  0  -0.053798  0  -0.065499  -0.061659  0  3.125267  0
N  N100  1  0.77173295  0.53977028  0.62938136  1  0  -0.037297  0  2.855444  0  0  -0.049128  0  3.138013  0  0  -0.038995  0  3.146346  0  -0.053871  0  -0.065443  -0.061508  0  3.125431  0
N  N101  1  0.27275992  0.43031496  0.46355956  1  0  -0.269737  0  3.131078  0  0  -0.218523  0  3.429138  0  0  -0.230219  0  3.438664  0  -0.629671  0  -0.21002  -0.210059  0  3.419852  0
N  N102  1  0.72724436  0.56968116  0.53644084  1  0  -0.269711  0  3.13123  0  0  -0.217607  0  3.426169  0  0  -0.230204  0  3.438837  0  -0.629728  0  -0.210002  -0.21004  0  3.42002  0
N  N103  1  0.64168337  0.49985233  0.34090673  1  0  -0.328417  0  3.26969  0  0  -0.245595  0  3.532768  0  0  -0.264664  0  3.552755  0  -1.243661  0  -0.335077  -0.23261  0  3.518847  0
N  N104  1  0.35831659  0.50014782  0.65909279  1  0  -0.328438  0  3.269686  0  0  -0.245606  0  3.532801  0  0  -0.264678  0  3.55273  0  -1.243698  0  -0.335083  -0.232617  0  3.518804  0
N  N105  1  0.33879659  0.82515956  0.30896660  1  0  0.017424  0  3.509882  0  0  0.099709  0  3.737721  0  0  0.087397  0  3.76236  0  -0.795887  0  -0.119969  0.13201  0  3.69132  0
N  N106  1  0.66120337  0.17484059  0.69103437  1  0  0.017433  0  3.509883  0  0  0.099712  0  3.737695  0  0  0.087402  0  3.762334  0  -0.796233  0  -0.119966  0.132033  0  3.691282  0
N  N107  1  0.37016978  0.71722274  0.33592223  1  0  -0.048472  0  2.873523  0  0  -0.058772  0  3.160172  0  0  -0.051119  0  3.170146  0  -0.013256  0  -0.06999  -0.07166  0  3.148975  0
N  N108  1  0.62983137  0.28277742  0.66407864  1  0  -0.048536  0  2.873601  0  0  -0.058839  0  3.160256  0  0  -0.051185  0  3.170224  0  -0.013314  0  -0.07001  -0.071733  0  3.149047  0
N  N109  1  0.39377274  0.68214045  0.43297500  1  0  -0.272409  0  3.169478  0  0  -0.218397  0  3.468064  0  0  -0.231231  0  3.482129  0  -0.657787  0  -0.216171  -0.209837  0  3.461141  0
N  N110  1  0.60622825  0.31786051  0.56702637  1  0  -0.272298  0  3.169553  0  0  -0.218262  0  3.468083  0  0  -0.231103  0  3.482187  0  -0.657739  0  -0.216139  -0.209703  0  3.46118  0
N  N111  1  0.67171633  0.03944855  0.09134594  1  0  -0.304872  0  3.303188  0  0  -0.224942  0  3.562434  0  0  -0.244652  0  3.584584  0  -1.239564  0  -0.333945  -0.211622  0  3.546988  0
N  N112  1  0.32828466  0.96055241  0.90865327  1  0  -0.304888  0  3.303246  0  0  -0.224898  0  3.562426  0  0  -0.244606  0  3.584574  0  -1.239584  0  -0.333914  -0.21158  0  3.546985  0
