# generated using pymatgen
data_Zn2H10C9N4O3
_symmetry_space_group_name_H-M   'P 1'
_cell_length_a   4.68804842
_cell_length_b   10.56389961
_cell_length_c   12.30513004
_cell_angle_alpha   90.00004954
_cell_angle_beta   89.99995738
_cell_angle_gamma   89.99997014
_symmetry_Int_Tables_number   1
_chemical_formula_structural   Zn2H10C9N4O3
_chemical_formula_sum   'Zn4 H20 C18 N8 O6'
_cell_volume   609.40015674
_cell_formula_units_Z   2
loop_
 _symmetry_equiv_pos_site_id
 _symmetry_equiv_pos_as_xyz
  1  'x, y, z'
loop_
 _atom_site_type_symbol
 _atom_site_label
 _atom_site_symmetry_multiplicity
 _atom_site_fract_x
 _atom_site_fract_y
 _atom_site_fract_z
 _atom_site_occupancy
 _atom_site_hle17_bader_spin_density
 _atom_site_hle17_ddec_charge
 _atom_site_hle17_ddec_spin_density
 _atom_site_hle17_ddec_sum_bond_order
 _atom_site_hle17_magmom
 _atom_site_hse06_10hf_bader_spin_density
 _atom_site_hse06_10hf_ddec_charge
 _atom_site_hse06_10hf_ddec_spin_density
 _atom_site_hse06_10hf_ddec_sum_bond_order
 _atom_site_hse06_10hf_magmom
 _atom_site_hse06_bader_spin_density
 _atom_site_hse06_ddec_charge
 _atom_site_hse06_ddec_spin_density
 _atom_site_hse06_ddec_sum_bond_order
 _atom_site_hse06_magmom
 _atom_site_pbe_bader_spin_density
 _atom_site_pbe_cm5_charge
 _atom_site_pbe_ddec_charge
 _atom_site_pbe_ddec_spin_density
 _atom_site_pbe_ddec_sum_bond_order
 _atom_site_pbe_magmom
Zn  Zn0  1  0.94754124  0.05234805  0.13845271  1  0  1.04008  0  1.90242  0  0  0.857099  0  2.37993  0  0  0.898414  0  2.328265  0  0  0.714929  0.827456  0  2.415998  0
Zn  Zn1  1  0.94754214  0.94765132  0.86154739  1  0  1.040095  0  1.902386  0  0  0.857123  0  2.379899  0  0  0.898434  0  2.328225  0  0  0.714947  0.827479  0  2.415962  0
Zn  Zn2  1  0.94754073  0.55234818  0.36154765  1  0  1.04009  0  1.902414  0  0  0.857105  0  2.379932  0  0  0.898417  0  2.32827  0  0  0.714926  0.827461  0  2.416007  0
Zn  Zn3  1  0.94754052  0.44765119  0.63845326  1  0  1.040067  0  1.902449  0  0  0.857102  0  2.379988  0  0  0.898401  0  2.3283  0  0  0.71493  0.827441  0  2.416038  0
H  H4  1  0.30748382  0.28230861  0.04082775  1  0  0.096301  0  0.962516  0  0  0.1116  0  1.016112  0  0  0.113215  0  1.016256  0  0  0.111886  0.11042  0  1.016095  0
H  H5  1  0.30748480  0.71769186  0.95917253  1  0  0.096307  0  0.962507  0  0  0.11161  0  1.016097  0  0  0.113224  0  1.016241  0  0  0.111887  0.110429  0  1.016078  0
H  H6  1  0.30748312  0.78230789  0.45917215  1  0  0.096298  0  0.962495  0  0  0.111598  0  1.016098  0  0  0.113215  0  1.016242  0  0  0.111873  0.11042  0  1.016076  0
H  H7  1  0.30748337  0.21769163  0.54082732  1  0  0.096272  0  0.962499  0  0  0.111571  0  1.016102  0  0  0.113186  0  1.016246  0  0  0.111866  0.110389  0  1.016085  0
H  H8  1  0.28639805  0.51760624  0.14098688  1  0  0.092697  0  0.967349  0  0  0.107815  0  1.022408  0  0  0.109611  0  1.022298  0  0  0.112051  0.106433  0  1.022768  0
H  H9  1  0.28639737  0.48239328  0.85901260  1  0  0.092698  0  0.967347  0  0  0.107817  0  1.022407  0  0  0.109612  0  1.022296  0  0  0.112051  0.106434  0  1.022766  0
H  H10  1  0.28639813  0.01760634  0.35901364  1  0  0.092706  0  0.967328  0  0  0.107824  0  1.022388  0  0  0.10962  0  1.022277  0  0  0.11205  0.10644  0  1.022748  0
H  H11  1  0.28639729  0.98239319  0.64098664  1  0  0.092702  0  0.967341  0  0  0.107821  0  1.022401  0  0  0.109617  0  1.02229  0  0  0.112048  0.106438  0  1.02276  0
H  H12  1  0.74926856  0.29059452  0.41784280  1  0  0.123232  0  0.958815  0  0  0.142195  0  1.022878  0  0  0.144154  0  1.021783  0  0  0.095889  0.140817  0  1.023632  0
H  H13  1  0.74926815  0.70940490  0.58215817  1  0  0.123242  0  0.958811  0  0  0.142208  0  1.022868  0  0  0.144168  0  1.021773  0  0  0.095897  0.140831  0  1.02362  0
H  H14  1  0.74926646  0.79059531  0.08215779  1  0  0.123238  0  0.958807  0  0  0.1422  0  1.02287  0  0  0.14416  0  1.021774  0  0  0.095891  0.140824  0  1.023621  0
H  H15  1  0.74926598  0.20940505  0.91784237  1  0  0.123235  0  0.958816  0  0  0.142195  0  1.022877  0  0  0.144155  0  1.02178  0  0  0.095887  0.140818  0  1.02363  0
H  H16  1  0.76107320  0.14251753  0.34962973  1  0  0.117209  0  0.958683  0  0  0.136562  0  1.022881  0  0  0.138685  0  1.021578  0  0  0.095111  0.135134  0  1.023653  0
H  H17  1  0.76107461  0.85748188  0.65037042  1  0  0.117206  0  0.958696  0  0  0.136564  0  1.022884  0  0  0.138687  0  1.021581  0  0  0.095113  0.135137  0  1.023655  0
H  H18  1  0.76107310  0.64251840  0.15036994  1  0  0.117213  0  0.958681  0  0  0.136568  0  1.022873  0  0  0.138691  0  1.02157  0  0  0.095116  0.135141  0  1.023646  0
H  H19  1  0.76107258  0.35748197  0.84962940  1  0  0.11722  0  0.95868  0  0  0.136573  0  1.022871  0  0  0.138698  0  1.021566  0  0  0.095119  0.135146  0  1.023642  0
H  H20  1  0.49600978  0.25607504  0.31415843  1  0  0.132677  0  0.948536  0  0  0.151288  0  1.009549  0  0  0.152753  0  1.010598  0  0  0.096508  0.150227  0  1.008879  0
H  H21  1  0.49600913  0.74392538  0.68584099  1  0  0.132719  0  0.948513  0  0  0.151303  0  1.009554  0  0  0.152767  0  1.010604  0  0  0.096515  0.150242  0  1.008886  0
H  H22  1  0.49600961  0.75607405  0.18584140  1  0  0.132712  0  0.948516  0  0  0.151292  0  1.009563  0  0  0.152757  0  1.010611  0  0  0.096512  0.15023  0  1.008893  0
H  H23  1  0.49600929  0.24392543  0.81415802  1  0  0.132718  0  0.948488  0  0  0.151301  0  1.009529  0  0  0.152764  0  1.01058  0  0  0.096514  0.150239  0  1.008861  0
C  C24  1  0.91661767  0.29793735  0.25586725  1  0  0.409263  0  3.758785  0  0  0.395012  0  4.015998  0  0  0.409993  0  4.033552  0  0  0.19896  0.384988  0  4.003601  0
C  C25  1  0.91661695  0.70206298  0.74413286  1  0  0.409326  0  3.758732  0  0  0.395039  0  4.016  0  0  0.410019  0  4.033553  0  0  0.198972  0.385013  0  4.003607  0
C  C26  1  0.91661738  0.79793736  0.24413249  1  0  0.409249  0  3.758867  0  0  0.395002  0  4.016068  0  0  0.409983  0  4.033621  0  0  0.198953  0.384977  0  4.003671  0
C  C27  1  0.91661723  0.20206202  0.75586762  1  0  0.409292  0  3.75876  0  0  0.394982  0  4.016049  0  0  0.409961  0  4.033604  0  0  0.198935  0.384956  0  4.003656  0
C  C28  1  0.19026865  0.31348560  0.11178924  1  0  -0.011886  0  3.793098  0  0  -0.045759  0  4.054703  0  0  -0.044172  0  4.076428  0  0  -0.021087  -0.046847  0  4.039815  0
C  C29  1  0.19026980  0.68651395  0.88821026  1  0  -0.01194  0  3.793172  0  0  -0.045818  0  4.054786  0  0  -0.044231  0  4.07651  0  0  -0.021123  -0.046904  0  4.039897  0
C  C30  1  0.19027235  0.81348765  0.38821153  1  0  -0.011906  0  3.793062  0  0  -0.045781  0  4.054677  0  0  -0.044198  0  4.076404  0  0  -0.0211  -0.046873  0  4.039788  0
C  C31  1  0.19027036  0.18651380  0.61178878  1  0  -0.011831  0  3.793015  0  0  -0.045705  0  4.054618  0  0  -0.044119  0  4.076342  0  0  -0.021071  -0.046792  0  4.039726  0
C  C32  1  0.18069525  0.42964159  0.16168392  1  0  -0.025998  0  3.809618  0  0  -0.059232  0  4.072677  0  0  -0.058035  0  4.094408  0  0  -0.023373  -0.060124  0  4.058196  0
C  C33  1  0.18069663  0.57035891  0.83831559  1  0  -0.02595  0  3.809677  0  0  -0.059179  0  4.072725  0  0  -0.057982  0  4.094454  0  0  -0.023344  -0.06007  0  4.058242  0
C  C34  1  0.18069478  0.92964075  0.33831531  1  0  -0.025962  0  3.809696  0  0  -0.059197  0  4.072748  0  0  -0.058  0  4.094478  0  0  -0.023343  -0.060088  0  4.058265  0
C  C35  1  0.18069497  0.07035880  0.66168419  1  0  -0.026031  0  3.809683  0  0  -0.059268  0  4.072739  0  0  -0.058071  0  4.09447  0  0  -0.023367  -0.060157  0  4.058256  0
C  C36  1  0.42462387  0.99999999  0.00000031  1  0  0.940459  0  3.938394  0  0  0.865618  0  4.23782  0  0  0.908499  0  4.219682  0  0  0.277342  0.836238  0  4.249572  0
C  C37  1  0.42462154  0.50000022  0.50000053  1  0  0.940576  0  3.938321  0  0  0.8657  0  4.237789  0  0  0.908582  0  4.21965  0  0  0.277398  0.836323  0  4.249535  0
C  C38  1  0.72001982  0.24412395  0.33893586  1  0  -0.394489  0  3.707501  0  0  -0.472206  0  3.94072  0  0  -0.475755  0  3.94627  0  0  -0.237662  -0.469514  0  3.93657  0
C  C39  1  0.72001920  0.75587642  0.66106430  1  0  -0.39455  0  3.707501  0  0  -0.472241  0  3.940747  0  0  -0.47579  0  3.946297  0  0  -0.237684  -0.46955  0  3.936598  0
C  C40  1  0.72001970  0.74412388  0.16106471  1  0  -0.394517  0  3.707529  0  0  -0.472206  0  3.940747  0  0  -0.475755  0  3.946296  0  0  -0.237661  -0.469513  0  3.936596  0
C  C41  1  0.72001932  0.25587555  0.83893546  1  0  -0.394549  0  3.707475  0  0  -0.472223  0  3.94072  0  0  -0.475771  0  3.946269  0  0  -0.237663  -0.46953  0  3.936572  0
N  N42  1  0.00789831  0.41930362  0.25251841  1  0  -0.485117  0  3.309588  0  0  -0.400705  0  3.603251  0  0  -0.423242  0  3.615636  0  0  -0.383251  -0.384894  0  3.594513  0
N  N43  1  0.00789773  0.58069692  0.74748195  1  0  -0.485155  0  3.309654  0  0  -0.400738  0  3.603342  0  0  -0.42327  0  3.615719  0  0  -0.383249  -0.38492  0  3.594589  0
N  N44  1  0.00790016  0.91930363  0.24748167  1  0  -0.485136  0  3.309687  0  0  -0.400723  0  3.603343  0  0  -0.423261  0  3.61573  0  0  -0.383271  -0.384912  0  3.594599  0
N  N45  1  0.00790016  0.08069596  0.75251788  1  0  -0.485113  0  3.309674  0  0  -0.400681  0  3.603349  0  0  -0.423218  0  3.615735  0  0  -0.383245  -0.38487  0  3.594609  0
N  N46  1  0.02371105  0.23089683  0.17169758  1  0  -0.480616  0  3.303417  0  0  -0.395046  0  3.596123  0  0  -0.417301  0  3.607819  0  0  -0.381684  -0.379176  0  3.587701  0
N  N47  1  0.02371223  0.76910371  0.82830197  1  0  -0.480633  0  3.303398  0  0  -0.395051  0  3.596119  0  0  -0.417305  0  3.607812  0  0  -0.381683  -0.379178  0  3.587696  0
N  N48  1  0.02371061  0.73089598  0.32830237  1  0  -0.48063  0  3.303377  0  0  -0.395055  0  3.596081  0  0  -0.417312  0  3.607777  0  0  -0.381671  -0.379185  0  3.587664  0
N  N49  1  0.02371054  0.26910361  0.67169718  1  0  -0.480646  0  3.303366  0  0  -0.395054  0  3.596096  0  0  -0.417303  0  3.607779  0  0  -0.381678  -0.379175  0  3.58766  0
O  O50  1  0.54515211  0.04231674  0.08573247  1  0  -0.712132  0  2.044404  0  0  -0.640404  0  2.327945  0  0  -0.666597  0  2.307628  0  0  -0.341024  -0.622364  0  2.34179  0
O  O51  1  0.54515076  0.95768273  0.91426693  1  0  -0.712091  0  2.044318  0  0  -0.640359  0  2.327853  0  0  -0.66655  0  2.307533  0  0  -0.340977  -0.622318  0  2.341696  0
O  O52  1  0.54515149  0.54231692  0.41426799  1  0  -0.712154  0  2.044325  0  0  -0.640411  0  2.327875  0  0  -0.666605  0  2.30756  0  0  -0.341029  -0.622374  0  2.341722  0
O  O53  1  0.54515138  0.45768349  0.58573222  1  0  -0.712137  0  2.044336  0  0  -0.640398  0  2.327898  0  0  -0.666584  0  2.30757  0  0  -0.341022  -0.622355  0  2.341733  0
O  O54  1  0.14073601  0.00000002  0.00000035  1  0  -0.74295  0  2.153738  0  0  -0.642113  0  2.462172  0  0  -0.672  0  2.43679  0  0  -0.351909  -0.621414  0  2.479224  0
O  O55  1  0.14073582  0.49999931  0.50000057  1  0  -0.742982  0  2.153742  0  0  -0.64213  0  2.462181  0  0  -0.672015  0  2.436795  0  0  -0.351906  -0.621422  0  2.479224  0
