# generated using pymatgen
data_KH11C10NO4
_symmetry_space_group_name_H-M   'P 1'
_cell_length_a   8.05362590
_cell_length_b   8.63898446
_cell_length_c   16.21795486
_cell_angle_alpha   96.55978512
_cell_angle_beta   89.98992997
_cell_angle_gamma   90.01520160
_symmetry_Int_Tables_number   1
_chemical_formula_structural   KH11C10NO4
_chemical_formula_sum   'K4 H44 C40 N4 O16'
_cell_volume   1120.97937684
_cell_formula_units_Z   4
loop_
 _symmetry_equiv_pos_site_id
 _symmetry_equiv_pos_as_xyz
  1  'x, y, z'
loop_
 _atom_site_type_symbol
 _atom_site_label
 _atom_site_symmetry_multiplicity
 _atom_site_fract_x
 _atom_site_fract_y
 _atom_site_fract_z
 _atom_site_occupancy
 _atom_site_hle17_bader_spin_density
 _atom_site_hle17_ddec_charge
 _atom_site_hle17_ddec_spin_density
 _atom_site_hle17_ddec_sum_bond_order
 _atom_site_hle17_magmom
 _atom_site_hse06_10hf_bader_spin_density
 _atom_site_hse06_10hf_ddec_charge
 _atom_site_hse06_10hf_ddec_spin_density
 _atom_site_hse06_10hf_ddec_sum_bond_order
 _atom_site_hse06_10hf_magmom
 _atom_site_hse06_bader_spin_density
 _atom_site_hse06_ddec_charge
 _atom_site_hse06_ddec_spin_density
 _atom_site_hse06_ddec_sum_bond_order
 _atom_site_hse06_magmom
 _atom_site_pbe_bader_spin_density
 _atom_site_pbe_cm5_charge
 _atom_site_pbe_ddec_charge
 _atom_site_pbe_ddec_spin_density
 _atom_site_pbe_ddec_sum_bond_order
 _atom_site_pbe_magmom
K  K0  1  0.29821180  0.42815754  0.10049894  1  0  0.933381  0  0.462969  0  0  0.893229  0  0.641679  0  0  0.907174  0  0.61872  0  0  0.777173  0.882368  0  0.65836  0
K  K1  1  0.79823324  0.07138444  0.89975091  1  0  0.933347  0  0.463296  0  0  0.893129  0  0.642103  0  0  0.907144  0  0.619068  0  0  0.777471  0.88229  0  0.658764  0
K  K2  1  0.70179353  0.57139831  0.89964358  1  0  0.933444  0  0.463015  0  0  0.893159  0  0.641836  0  0  0.907132  0  0.618863  0  0  0.777304  0.882339  0  0.65849  0
K  K3  1  0.20172119  0.92814677  0.10031518  1  0  0.933258  0  0.463479  0  0  0.893187  0  0.64212  0  0  0.907039  0  0.619322  0  0  0.777611  0.882315  0  0.658801  0
H  H4  1  0.41738388  0.72505873  0.02009725  1  0  0.395421  0  0.924715  0  0  0.361956  0  0.995284  0  0  0.37586  0  0.974618  0  0  0.273543  0.352377  0  1.009459  0
H  H5  1  0.91740612  0.77436206  0.97988261  1  0  0.395113  0  0.925062  0  0  0.36165  0  0.995662  0  0  0.375521  0  0.975041  0  0  0.273383  0.352096  0  1.009812  0
H  H6  1  0.58255566  0.27444977  0.97984937  1  0  0.395271  0  0.924964  0  0  0.361821  0  0.995569  0  0  0.37574  0  0.974881  0  0  0.273444  0.352229  0  1.009756  0
H  H7  1  0.08258681  0.22515450  0.02009297  1  0  0.395242  0  0.924984  0  0  0.361749  0  0.995595  0  0  0.375622  0  0.974974  0  0  0.273512  0.352186  0  1.009742  0
H  H8  1  0.58294840  0.70440831  0.07101870  1  0  0.410897  0  0.901857  0  0  0.378876  0  0.969288  0  0  0.389881  0  0.95321  0  0  0.278943  0.371191  0  0.980489  0
H  H9  1  0.08296029  0.79510778  0.92893895  1  0  0.410309  0  0.902668  0  0  0.378194  0  0.970142  0  0  0.389205  0  0.954098  0  0  0.27873  0.370526  0  0.981287  0
H  H10  1  0.41701971  0.29515733  0.92893087  1  0  0.410267  0  0.902716  0  0  0.378179  0  0.970162  0  0  0.389189  0  0.95412  0  0  0.278705  0.370504  0  0.981317  0
H  H11  1  0.91697678  0.20449837  0.07101915  1  0  0.410746  0  0.902089  0  0  0.378765  0  0.969458  0  0  0.389739  0  0.953444  0  0  0.278824  0.371098  0  0.980621  0
H  H12  1  0.30505972  0.80743485  0.30722292  1  0  0.135347  0  0.965205  0  0  0.138269  0  1.03303  0  0  0.145228  0  1.025422  0  0  0.114696  0.133351  0  1.038103  0
H  H13  1  0.80486029  0.69319049  0.69293144  1  0  0.135522  0  0.965439  0  0  0.138474  0  1.033194  0  0  0.145357  0  1.025816  0  0  0.114694  0.133547  0  1.038238  0
H  H14  1  0.69508606  0.19297325  0.69280879  1  0  0.135423  0  0.96532  0  0  0.138294  0  1.03314  0  0  0.145262  0  1.025588  0  0  0.114686  0.133339  0  1.038291  0
H  H15  1  0.19522461  0.30691218  0.30705690  1  0  0.13526  0  0.965626  0  0  0.138427  0  1.033148  0  0  0.145364  0  1.025759  0  0  0.114693  0.133472  0  1.038232  0
H  H16  1  0.44956474  0.95196712  0.42739380  1  0  0.083045  0  0.960277  0  0  0.096175  0  1.020214  0  0  0.099111  0  1.019826  0  0  0.098964  0.094378  0  1.020476  0
H  H17  1  0.94871604  0.54838230  0.57267778  1  0  0.082164  0  0.960567  0  0  0.09558  0  1.020253  0  0  0.098403  0  1.019967  0  0  0.098565  0.093838  0  1.020444  0
H  H18  1  0.55089889  0.04828814  0.57260694  1  0  0.08254  0  0.960332  0  0  0.096024  0  1.019823  0  0  0.098889  0  1.019447  0  0  0.098839  0.094263  0  1.020057  0
H  H19  1  0.05145206  0.45179232  0.42729610  1  0  0.082228  0  0.960347  0  0  0.095597  0  1.020106  0  0  0.098211  0  1.020026  0  0  0.098715  0.093909  0  1.020247  0
H  H20  1  0.64294015  0.81175618  0.51584596  1  0  0.083174  0  0.967078  0  0  0.091088  0  1.037925  0  0  0.093319  0  1.034483  0  0  0.094812  0.089359  0  1.040237  0
H  H21  1  0.14232974  0.68811867  0.48404619  1  0  0.082928  0  0.967125  0  0  0.090953  0  1.037895  0  0  0.093152  0  1.034566  0  0  0.094527  0.089197  0  1.040155  0
H  H22  1  0.35743032  0.18823986  0.48407102  1  0  0.082961  0  0.966733  0  0  0.090965  0  1.037414  0  0  0.093236  0  1.033982  0  0  0.094655  0.0892  0  1.039749  0
H  H23  1  0.85774277  0.31221375  0.51595283  1  0  0.0835  0  0.966645  0  0  0.091242  0  1.037641  0  0  0.093514  0  1.034305  0  0  0.094568  0.089506  0  1.039893  0
H  H24  1  0.70124548  0.53192500  0.47719495  1  0  0.085736  0  0.968918  0  0  0.095637  0  1.03592  0  0  0.098001  0  1.036425  0  0  0.098478  0.094218  0  1.035579  0
H  H25  1  0.20125983  0.96791699  0.52255065  1  0  0.085612  0  0.968833  0  0  0.095782  0  1.035437  0  0  0.097935  0  1.036121  0  0  0.098425  0.094456  0  1.035021  0
H  H26  1  0.29885183  0.46804689  0.52266045  1  0  0.085553  0  0.968717  0  0  0.095531  0  1.035714  0  0  0.097853  0  1.036223  0  0  0.098397  0.094133  0  1.035363  0
H  H27  1  0.79860782  0.03247393  0.47744650  1  0  0.085641  0  0.968346  0  0  0.095679  0  1.035154  0  0  0.09784  0  1.035819  0  0  0.098398  0.094335  0  1.034783  0
H  H28  1  0.65379526  0.29033216  0.39573113  1  0  0.036948  0  0.984249  0  0  0.057672  0  1.052988  0  0  0.051438  0  1.060488  0  0  0.102263  0.061169  0  1.048769  0
H  H29  1  0.15482671  0.20960624  0.60426060  1  0  0.036899  0  0.984961  0  0  0.058139  0  1.053131  0  0  0.051912  0  1.060697  0  0  0.102327  0.06162  0  1.048906  0
H  H30  1  0.34580412  0.70969114  0.60425388  1  0  0.03712  0  0.984222  0  0  0.057849  0  1.052891  0  0  0.051666  0  1.060439  0  0  0.102234  0.061324  0  1.048667  0
H  H31  1  0.84496269  0.79070127  0.39571996  1  0  0.036849  0  0.984782  0  0  0.058193  0  1.052969  0  0  0.051991  0  1.060608  0  0  0.102386  0.061651  0  1.048737  0
H  H32  1  0.44737556  0.04804196  0.24999896  1  0  0.084797  0  0.945355  0  0  0.102914  0  1.00696  0  0  0.10519  0  1.005619  0  0  0.118587  0.100291  0  1.008743  0
H  H33  1  0.94744574  0.45199199  0.75006051  1  0  0.085077  0  0.945281  0  0  0.103412  0  1.006645  0  0  0.10571  0  1.005375  0  0  0.118738  0.100774  0  1.00841  0
H  H34  1  0.55257149  0.95206788  0.75006392  1  0  0.084956  0  0.945277  0  0  0.103288  0  1.006642  0  0  0.105587  0  1.005253  0  0  0.118717  0.100651  0  1.008437  0
H  H35  1  0.05259073  0.54823841  0.25005068  1  0  0.085556  0  0.945505  0  0  0.103523  0  1.007195  0  0  0.10582  0  1.005897  0  0  0.118856  0.10086  0  1.008993  0
H  H36  1  0.62805418  0.05441752  0.31380694  1  0  0.032037  0  0.959636  0  0  0.055173  0  1.025474  0  0  0.046256  0  1.034225  0  0  0.093129  0.060139  0  1.020228  0
H  H37  1  0.12816785  0.44597512  0.68627046  1  0  0.032889  0  0.958537  0  0  0.056112  0  1.024118  0  0  0.04737  0  1.032698  0  0  0.093498  0.060986  0  1.018959  0
H  H38  1  0.37188295  0.94577397  0.68625947  1  0  0.032404  0  0.959321  0  0  0.055559  0  1.025143  0  0  0.04676  0  1.033792  0  0  0.093179  0.060502  0  1.019911  0
H  H39  1  0.87189718  0.55427362  0.31384886  1  0  0.032625  0  0.958901  0  0  0.055908  0  1.024413  0  0  0.047292  0  1.032882  0  0  0.093418  0.060745  0  1.019279  0
H  H40  1  0.68610930  0.94654574  0.16506567  1  0  0.12333  0  0.925509  0  0  0.139751  0  0.982487  0  0  0.142221  0  0.981506  0  0  0.114516  0.137737  0  0.983432  0
H  H41  1  0.18628529  0.55332103  0.83504332  1  0  0.123392  0  0.925742  0  0  0.139818  0  0.982578  0  0  0.142379  0  0.981512  0  0  0.114457  0.137768  0  0.983556  0
H  H42  1  0.31376693  0.05325334  0.83504720  1  0  0.123107  0  0.926148  0  0  0.139654  0  0.982836  0  0  0.142242  0  0.981754  0  0  0.114398  0.137616  0  0.983803  0
H  H43  1  0.81372256  0.44658964  0.16516162  1  0  0.12331  0  0.925904  0  0  0.139992  0  0.982559  0  0  0.142614  0  0.981453  0  0  0.114548  0.137917  0  0.983542  0
H  H44  1  0.80298905  0.11805398  0.19527623  1  0  0.104074  0  0.927932  0  0  0.121538  0  0.98404  0  0  0.120249  0  0.986261  0  0  0.104571  0.121788  0  0.983073  0
H  H45  1  0.30306915  0.38186347  0.80467690  1  0  0.104569  0  0.927901  0  0  0.121814  0  0.984076  0  0  0.120535  0  0.986302  0  0  0.104838  0.122049  0  0.983126  0
H  H46  1  0.19694929  0.88175733  0.80469383  1  0  0.104484  0  0.927441  0  0  0.121713  0  0.983669  0  0  0.120406  0  0.985947  0  0  0.104791  0.121975  0  0.982699  0
H  H47  1  0.69693252  0.61811407  0.19539169  1  0  0.104301  0  0.927926  0  0  0.121633  0  0.984131  0  0  0.120353  0  0.986386  0  0  0.10478  0.121875  0  0.983168  0
C  C48  1  0.41613233  0.58331842  0.32329196  1  0  0.363148  0  3.815116  0  0  0.353512  0  4.077562  0  0  0.371009  0  4.073945  0  0  0.122017  0.340239  0  4.077588  0
C  C49  1  0.91635698  0.91711038  0.67672062  1  0  0.36378  0  3.81627  0  0  0.354358  0  4.078561  0  0  0.371954  0  4.075487  0  0  0.122727  0.340848  0  4.078643  0
C  C50  1  0.58384829  0.41697817  0.67667175  1  0  0.363936  0  3.814848  0  0  0.354923  0  4.076351  0  0  0.372032  0  4.073362  0  0  0.123219  0.341556  0  4.076456  0
C  C51  1  0.08360872  0.08305721  0.32327927  1  0  0.362461  0  3.817861  0  0  0.353579  0  4.079237  0  0  0.371237  0  4.076061  0  0  0.122233  0.34007  0  4.079303  0
C  C52  1  0.39300269  0.74892277  0.34449502  1  0  -0.15194  0  3.599818  0  0  -0.180246  0  3.855562  0  0  -0.172903  0  3.857766  0  0  -0.08731  -0.184489  0  3.853947  0
C  C53  1  0.89278716  0.75156016  0.65557486  1  0  -0.154249  0  3.60107  0  0  -0.182712  0  3.856973  0  0  -0.176066  0  3.859998  0  0  -0.088196  -0.186459  0  3.854998  0
C  C54  1  0.60719150  0.25139629  0.65548945  1  0  -0.153467  0  3.60053  0  0  -0.181652  0  3.856111  0  0  -0.17464  0  3.858733  0  0  -0.087948  -0.185691  0  3.854385  0
C  C55  1  0.10726794  0.24859634  0.34441188  1  0  -0.154066  0  3.601047  0  0  -0.182571  0  3.856625  0  0  -0.176565  0  3.859981  0  0  -0.088136  -0.186331  0  3.854654  0
C  C56  1  0.47196540  0.82738119  0.41229339  1  0  -0.064376  0  3.794856  0  0  -0.076386  0  4.058907  0  0  -0.084001  0  4.076236  0  0  -0.092882  -0.072021  0  4.046893  0
C  C57  1  0.97145158  0.67295558  0.58773017  1  0  -0.062355  0  3.794305  0  0  -0.074537  0  4.058395  0  0  -0.08191  0  4.076248  0  0  -0.0924  -0.070282  0  4.046102  0
C  C58  1  0.52835420  0.17285546  0.58767886  1  0  -0.06372  0  3.794614  0  0  -0.076011  0  4.058633  0  0  -0.083399  0  4.07602  0  0  -0.092745  -0.071729  0  4.046554  0
C  C59  1  0.02866313  0.32724830  0.41226867  1  0  -0.062048  0  3.794217  0  0  -0.074233  0  4.058295  0  0  -0.081268  0  4.076277  0  0  -0.092661  -0.070036  0  4.046006  0
C  C60  1  0.58205259  0.75011786  0.46169781  1  0  -0.069369  0  3.756539  0  0  -0.1025  0  4.034289  0  0  -0.08499  0  4.038724  0  0  -0.09942  -0.112253  0  4.029718  0
C  C61  1  0.08160627  0.74995404  0.53818660  1  0  -0.070609  0  3.757666  0  0  -0.104132  0  4.036056  0  0  -0.087611  0  4.041304  0  0  -0.099902  -0.113285  0  4.031066  0
C  C62  1  0.41826327  0.24997557  0.53821028  1  0  -0.069696  0  3.756407  0  0  -0.102613  0  4.034294  0  0  -0.085659  0  4.038948  0  0  -0.09951  -0.112123  0  4.029595  0
C  C63  1  0.91848113  0.25031984  0.46181491  1  0  -0.073045  0  3.758824  0  0  -0.105828  0  4.03698  0  0  -0.09006  0  4.042601  0  0  -0.10053  -0.115013  0  4.032  0
C  C64  1  0.61319327  0.59150016  0.44061143  1  0  -0.103882  0  3.793593  0  0  -0.119711  0  4.049478  0  0  -0.130261  0  4.065681  0  0  -0.088964  -0.11444  0  4.038077  0
C  C65  1  0.11316902  0.90848268  0.55920067  1  0  -0.104406  0  3.794276  0  0  -0.120247  0  4.050325  0  0  -0.130421  0  4.066886  0  0  -0.089247  -0.115164  0  4.03873  0
C  C66  1  0.38692640  0.40855020  0.55926637  1  0  -0.103901  0  3.793649  0  0  -0.119743  0  4.049635  0  0  -0.130156  0  4.065856  0  0  -0.088778  -0.114538  0  4.038182  0
C  C67  1  0.88678304  0.09182435  0.44079094  1  0  -0.103431  0  3.7938  0  0  -0.11916  0  4.049352  0  0  -0.129337  0  4.065969  0  0  -0.088961  -0.114073  0  4.037795  0
C  C68  1  0.53629219  0.50730223  0.37269178  1  0  -0.047086  0  3.729465  0  0  -0.043037  0  3.970589  0  0  -0.026804  0  3.971033  0  0  -0.018888  -0.050176  0  3.968054  0
C  C69  1  0.03651817  0.99284501  0.62716100  1  0  -0.047038  0  3.731271  0  0  -0.043286  0  3.97281  0  0  -0.027487  0  3.973673  0  0  -0.019112  -0.05002  0  3.97005  0
C  C70  1  0.46372071  0.49284360  0.62719364  1  0  -0.047599  0  3.73078  0  0  -0.043776  0  3.972034  0  0  -0.027541  0  3.972601  0  0  -0.019435  -0.05074  0  3.969387  0
C  C71  1  0.96337429  0.00740268  0.37282442  1  0  -0.047913  0  3.731533  0  0  -0.043707  0  3.972492  0  0  -0.027907  0  3.973141  0  0  -0.019207  -0.050549  0  3.969788  0
C  C72  1  0.57887738  0.34578019  0.34931211  1  0  0.09786  0  3.776268  0  0  0.06735  0  4.023689  0  0  0.065276  0  4.046369  0  0  0.07688  0.065629  0  4.010998  0
C  C73  1  0.07938006  0.15428694  0.65055902  1  0  0.097246  0  3.777216  0  0  0.066559  0  4.02468  0  0  0.064849  0  4.0473  0  0  0.077042  0.064668  0  4.012024  0
C  C74  1  0.42098774  0.65428909  0.65058620  1  0  0.09698  0  3.77626  0  0  0.066726  0  4.023723  0  0  0.064732  0  4.046289  0  0  0.076725  0.064969  0  4.011029  0
C  C75  1  0.92046646  0.84600765  0.34942305  1  0  0.097619  0  3.7768  0  0  0.066473  0  4.024396  0  0  0.064803  0  4.046881  0  0  0.076878  0.064585  0  4.011789  0
C  C76  1  0.56962602  0.10382384  0.26093980  1  0  0.029959  0  3.728894  0  0  -0.026075  0  3.990203  0  0  -0.022043  0  4.006719  0  0  -0.057794  -0.027825  0  3.978993  0
C  C77  1  0.06973681  0.39629316  0.73907525  1  0  0.028787  0  3.728885  0  0  -0.0274  0  3.990152  0  0  -0.023401  0  4.006584  0  0  -0.057586  -0.029128  0  3.979  0
C  C78  1  0.43034215  0.89623185  0.73907964  1  0  0.029364  0  3.729488  0  0  -0.026955  0  3.9909  0  0  -0.023025  0  4.007365  0  0  -0.057741  -0.028669  0  3.979698  0
C  C79  1  0.93027854  0.60386129  0.26100941  1  0  0.029042  0  3.729045  0  0  -0.026847  0  3.990072  0  0  -0.022992  0  4.00654  0  0  -0.0575  -0.028523  0  3.978903  0
C  C80  1  0.67663785  0.07303217  0.18317141  1  0  -0.282089  0  3.639838  0  0  -0.322834  0  3.893393  0  0  -0.327314  0  3.901016  0  0  -0.154863  -0.319645  0  3.888263  0
C  C81  1  0.17675650  0.42686348  0.81684351  1  0  -0.282686  0  3.640579  0  0  -0.322925  0  3.893582  0  0  -0.327399  0  3.901172  0  0  -0.155056  -0.319746  0  3.888501  0
C  C82  1  0.32326944  0.92679988  0.81685754  1  0  -0.28238  0  3.639972  0  0  -0.322785  0  3.893016  0  0  -0.327364  0  3.900728  0  0  -0.15496  -0.319583  0  3.887867  0
C  C83  1  0.82325385  0.57307958  0.18326450  1  0  -0.282084  0  3.63983  0  0  -0.322883  0  3.893205  0  0  -0.32743  0  3.900855  0  0  -0.155026  -0.319695  0  3.888104  0
C  C84  1  0.60247216  0.14513643  0.10927181  1  0  0.712132  0  3.871214  0  0  0.666474  0  4.181392  0  0  0.700252  0  4.178618  0  0  0.212991  0.643638  0  4.182899  0
C  C85  1  0.10257408  0.35459735  0.89072323  1  0  0.711884  0  3.871399  0  0  0.665871  0  4.182068  0  0  0.699581  0  4.179315  0  0  0.213494  0.643078  0  4.183554  0
C  C86  1  0.39741152  0.85454658  0.89071845  1  0  0.711907  0  3.87172  0  0  0.666178  0  4.182074  0  0  0.699929  0  4.179286  0  0  0.213703  0.643372  0  4.183543  0
C  C87  1  0.89744867  0.64515129  0.10931563  1  0  0.711977  0  3.87103  0  0  0.666306  0  4.181383  0  0  0.700016  0  4.178507  0  0  0.213187  0.643522  0  4.182888  0
N  N88  1  0.53902289  0.26853158  0.28045657  1  0  -0.204621  0  3.023348  0  0  -0.139614  0  3.280912  0  0  -0.150212  0  3.299287  0  0  -0.259831  -0.133331  0  3.269031  0
N  N89  1  0.03921845  0.23164332  0.71933855  1  0  -0.200735  0  3.023198  0  0  -0.136144  0  3.280874  0  0  -0.146463  0  3.299123  0  0  -0.25826  -0.129827  0  3.269008  0
N  N90  1  0.46097759  0.73159875  0.71943574  1  0  -0.202043  0  3.023087  0  0  -0.137554  0  3.280716  0  0  -0.147866  0  3.298875  0  0  -0.258749  -0.131296  0  3.268856  0
N  N91  1  0.96069386  0.76855459  0.28068885  1  0  -0.200866  0  3.023836  0  0  -0.135511  0  3.281054  0  0  -0.14571  0  3.299175  0  0  -0.25781  -0.129553  0  3.26934  0
O  O92  1  0.33346438  0.50771150  0.26549722  1  0  -0.492485  0  1.933259  0  0  -0.455167  0  2.155965  0  0  -0.464739  0  2.148849  0  0  -0.309808  -0.441853  0  2.157412  0
O  O93  1  0.83417250  0.99298814  0.73463034  1  0  -0.492257  0  1.932311  0  0  -0.455295  0  2.154857  0  0  -0.465473  0  2.148076  0  0  -0.309625  -0.441457  0  2.1563  0
O  O94  1  0.66622074  0.49273194  0.73455313  1  0  -0.492943  0  1.932195  0  0  -0.455552  0  2.154556  0  0  -0.465318  0  2.147776  0  0  -0.310251  -0.442045  0  2.155963  0
O  O95  1  0.16572738  0.00709069  0.26536798  1  0  -0.491812  0  1.933168  0  0  -0.454201  0  2.155236  0  0  -0.464838  0  2.148548  0  0  -0.309126  -0.440642  0  2.156707  0
O  O96  1  0.44696304  0.14101395  0.10032019  1  0  -0.675584  0  1.892399  0  0  -0.641536  0  2.133384  0  0  -0.683247  0  2.133955  0  0  -0.438017  -0.615559  0  2.133835  0
O  O97  1  0.94703497  0.35844372  0.89960948  1  0  -0.674818  0  1.892701  0  0  -0.641108  0  2.133668  0  0  -0.682539  0  2.134172  0  0  -0.43808  -0.615282  0  2.134154  0
O  O98  1  0.55294918  0.85844970  0.89961019  1  0  -0.674141  0  1.892794  0  0  -0.641376  0  2.133801  0  0  -0.682896  0  2.134309  0  0  -0.438106  -0.615466  0  2.134257  0
O  O99  1  0.05297783  0.64111895  0.10040648  1  0  -0.674554  0  1.892393  0  0  -0.640876  0  2.133361  0  0  -0.682054  0  2.133696  0  0  -0.437673  -0.615119  0  2.133884  0
O  O100  1  0.70215758  0.20629722  0.06069676  1  0  -0.687894  0  1.979242  0  0  -0.622345  0  2.197137  0  0  -0.652348  0  2.187351  0  0  -0.35381  -0.601341  0  2.203071  0
O  O101  1  0.20226348  0.29364896  0.93933556  1  0  -0.686844  0  1.979103  0  0  -0.621146  0  2.197011  0  0  -0.651002  0  2.1872  0  0  -0.353299  -0.600236  0  2.202964  0
O  O102  1  0.29770004  0.79351421  0.93932266  1  0  -0.68715  0  1.979426  0  0  -0.621701  0  2.197271  0  0  -0.651582  0  2.187433  0  0  -0.354024  -0.60077  0  2.203235  0
O  O103  1  0.79775928  0.70611921  0.06071090  1  0  -0.687994  0  1.979057  0  0  -0.622342  0  2.19689  0  0  -0.652104  0  2.186967  0  0  -0.354012  -0.601457  0  2.202902  0
O  O104  1  0.46026372  0.69269227  0.07306637  1  0  -0.932922  0  1.763805  0  0  -0.891331  0  1.929792  0  0  -0.911785  0  1.894643  0  0  -0.72134  -0.876534  0  1.953921  0
O  O105  1  0.96025289  0.80666967  0.92687688  1  0  -0.932105  0  1.764497  0  0  -0.890338  0  1.93068  0  0  -0.910826  0  1.895509  0  0  -0.721134  -0.875551  0  1.954774  0
O  O106  1  0.53973665  0.30667353  0.92683092  1  0  -0.932133  0  1.764261  0  0  -0.890438  0  1.930325  0  0  -0.910967  0  1.895103  0  0  -0.721118  -0.875657  0  1.954573  0
O  O107  1  0.03965187  0.19270650  0.07304955  1  0  -0.932801  0  1.764269  0  0  -0.891212  0  1.930278  0  0  -0.911664  0  1.895216  0  0  -0.721257  -0.876431  0  1.954387  0
