# generated using pymatgen
data_Zn4H10C26S4O13F2
_symmetry_space_group_name_H-M   'P 1'
_cell_length_a   19.68905324
_cell_length_b   19.67854887
_cell_length_c   33.42623051
_cell_angle_alpha   79.08746475
_cell_angle_beta   79.05458786
_cell_angle_gamma   63.85486357
_symmetry_Int_Tables_number   1
_chemical_formula_structural   Zn4H10C26S4O13F2
_chemical_formula_sum   'Zn16 H40 C104 S16 O52 F8'
_cell_volume   11332.12839823
_cell_formula_units_Z   4
loop_
 _symmetry_equiv_pos_site_id
 _symmetry_equiv_pos_as_xyz
  1  'x, y, z'
loop_
 _atom_site_type_symbol
 _atom_site_label
 _atom_site_symmetry_multiplicity
 _atom_site_fract_x
 _atom_site_fract_y
 _atom_site_fract_z
 _atom_site_occupancy
 _atom_site_pbe_bader_charge
 _atom_site_pbe_bader_spin_density
 _atom_site_pbe_cm5_charge
 _atom_site_pbe_ddec_charge
 _atom_site_pbe_ddec_spin_density
 _atom_site_pbe_ddec_sum_bond_order
 _atom_site_pbe_magmom
Zn  Zn0  1  0.05640200  0.39956399  0.47790823  1  1.318936  0  0.672335  0.972731  0  2.346435  0
Zn  Zn1  1  0.98427351  0.48359102  0.55968980  1  1.320116  0  0.669871  0.948614  0  2.394559  0
Zn  Zn2  1  0.05905877  0.56070507  0.48226714  1  1.320065  0  0.673503  0.96087  0  2.388804  0
Zn  Zn3  1  0.90101249  0.55525752  0.47915988  1  1.318956  0  0.674091  0.961301  0  2.38812  0
Zn  Zn4  1  0.69398067  0.35009545  0.27174262  1  1.318766  0  0.671871  0.971171  0  2.348705  0
Zn  Zn5  1  0.68899890  0.18950870  0.26677677  1  1.311442  0  0.67143  0.967444  0  2.358578  0
Zn  Zn6  1  0.76823021  0.26665126  0.19030280  1  1.315504  0  0.673243  0.959742  0  2.387066  0
Zn  Zn7  1  0.84748560  0.19401638  0.27158364  1  1.318593  0  0.672763  0.955559  0  2.396957  0
Zn  Zn8  1  0.26677975  0.76683488  0.68927697  1  1.306494  0  0.671308  0.964133  0  2.363885  0
Zn  Zn9  1  0.34878138  0.69591495  0.77144614  1  1.313912  0  0.670766  0.959569  0  2.373041  0
Zn  Zn10  1  0.19276950  0.84937268  0.77138017  1  1.319114  0  0.674859  0.972679  0  2.363893  0
Zn  Zn11  1  0.19126635  0.68928740  0.76743800  1  1.318575  0  0.673176  0.959749  0  2.38641  0
Zn  Zn12  1  0.56030411  0.06078612  0.98333935  1  1.313078  0  0.67103  0.966241  0  2.357755  0
Zn  Zn13  1  0.40083533  0.05536874  0.97808983  1  1.313253  0  0.670934  0.963012  0  2.362268  0
Zn  Zn14  1  0.55634423  0.90116873  0.97879047  1  1.319542  0  0.674197  0.970539  0  2.369574  0
Zn  Zn15  1  0.48229085  0.98267712  0.06000136  1  1.319381  0  0.673679  0.966151  0  2.377091  0
H  H16  1  0.74875320  0.45213986  0.35034701  1  0.165107  0  0.122499  0.153659  0  0.971474  0
H  H17  1  0.00135956  0.29767104  0.39953008  1  0.16128  0  0.122254  0.153451  0  0.972119  0
H  H18  1  0.20051120  0.70038758  0.59873577  1  0.129665  0  0.121886  0.152174  0  0.972753  0
H  H19  1  0.04950394  0.54957583  0.65123217  1  0.125854  0  0.120067  0.149509  0  0.97688  0
H  H20  1  0.46362477  0.23924380  0.34079049  1  0.128599  0  0.120321  0.146108  0  0.970131  0
H  H21  1  0.47905634  0.70270201  0.60137957  1  0.112986  0  0.120953  0.147063  0  0.968844  0
H  H22  1  0.20296750  0.97880344  0.60123134  1  0.104447  0  0.120549  0.14631  0  0.969458  0
H  H23  1  0.94892296  0.97080097  0.34786092  1  0.136264  0  0.120421  0.145946  0  0.969116  0
H  H24  1  0.65125907  0.15142939  0.04954403  1  0.151094  0  0.121643  0.151889  0  0.973607  0
H  H25  1  0.59879152  0.09862978  0.20038686  1  0.150316  0  0.121887  0.152187  0  0.973094  0
H  H26  1  0.54704317  0.77153325  0.14851603  1  0.107197  0  0.121559  0.148282  0  0.967337  0
H  H27  1  0.16258171  0.14162576  0.04007463  1  0.129185  0  0.119949  0.145705  0  0.970743  0
H  H28  1  0.29773359  0.00136236  0.89963944  1  0.159836  0  0.121603  0.152474  0  0.973619  0
H  H29  1  0.45224375  0.74872200  0.85032306  1  0.161762  0  0.120899  0.151344  0  0.975023  0
H  H30  1  0.30067190  0.27954332  0.90214782  1  0.132716  0  0.12028  0.145896  0  0.970509  0
H  H31  1  0.78639605  0.01089977  0.90916843  1  0.12652  0  0.120392  0.146117  0  0.970184  0
H  H32  1  0.23133110  0.57555521  0.39909283  1  0.098298  0  0.102811  0.14892  0  0.976142  0
H  H33  1  0.33066502  0.55094912  0.39689556  1  0.039064  0  0.090741  0.127678  0  1.000304  0
H  H34  1  0.27596464  0.53577221  0.44399277  1  0.098033  0  0.102904  0.149441  0  0.974382  0
H  H35  1  0.82120145  0.47692252  0.65351596  1  0.074452  0  0.100586  0.14458  0  0.982102  0
H  H36  1  0.75710552  0.53671966  0.69094830  1  0.027233  0  0.09073  0.127274  0  1.00047  0
H  H37  1  0.82381819  0.56421949  0.65592797  1  0.077877  0  0.1022  0.147713  0  0.976087  0
H  H38  1  0.06436848  0.32366789  0.65603987  1  0.078343  0  0.101617  0.146778  0  0.97654  0
H  H39  1  0.03654678  0.25703114  0.69090636  1  0.029211  0  0.091059  0.127611  0  1.000013  0
H  H40  1  0.97706081  0.32135426  0.65346282  1  0.073919  0  0.100068  0.143464  0  0.983022  0
H  H41  1  0.79826871  0.72191980  0.38988649  1  0.073023  0  0.104026  0.15111  0  0.972538  0
H  H42  1  0.73205396  0.81992077  0.38630705  1  0.047351  0  0.09115  0.128172  0  0.999584  0
H  H43  1  0.75853708  0.76673174  0.43477688  1  0.099754  0  0.102922  0.149061  0  0.976125  0
H  H44  1  0.77300682  0.42877425  0.09663228  1  0.080102  0  0.102961  0.149057  0  0.97624  0
H  H45  1  0.71324061  0.49289345  0.05925829  1  0.033814  0  0.090694  0.127412  0  0.999909  0
H  H46  1  0.68588788  0.42604167  0.09420985  1  0.079362  0  0.10348  0.150026  0  0.974109  0
H  H47  1  0.07201088  0.14828134  0.23977943  1  0.066251  0  0.10351  0.149695  0  0.974376  0
H  H48  1  0.15772803  0.06976141  0.22390356  1  0.001612  0  0.090877  0.127344  0  0.999781  0
H  H49  1  0.06938210  0.06109905  0.23723630  1  0.077317  0  0.101976  0.147354  0  0.977024  0
H  H50  1  0.49173677  0.48297359  0.81524562  1  0.094707  0  0.102172  0.147819  0  0.977427  0
H  H51  1  0.51804233  0.42999886  0.86379616  1  0.044832  0  0.090993  0.127839  0  1.000022  0
H  H52  1  0.45174479  0.52798793  0.86008852  1  0.06949  0  0.10254  0.148362  0  0.975606  0
H  H53  1  0.97376326  0.71428960  0.80599121  1  0.096688  0  0.102925  0.149384  0  0.974065  0
H  H54  1  0.91937301  0.69878693  0.85315498  1  0.036498  0  0.09092  0.127628  0  0.999691  0
H  H55  1  0.01868597  0.67450941  0.85079239  1  0.099112  0  0.102803  0.149022  0  0.975759  0
C  C56  1  0.06147369  0.31576336  0.56153294  1  1.561676  0  0.214996  0.612805  0  4.217681  0
C  C57  1  0.06903993  0.56919136  0.56901492  1  1.587461  0  0.229573  0.621675  0  4.164592  0
C  C58  1  0.18429870  0.43830253  0.43839783  1  1.525365  0  0.215196  0.613623  0  4.214823  0
C  C59  1  0.93842111  0.68446345  0.43855607  1  1.548726  0  0.215358  0.612696  0  4.215592  0
C  C60  1  0.93071472  0.43093013  0.43088661  1  1.591244  0  0.230339  0.621009  0  4.16668  0
C  C61  1  0.81596200  0.56175057  0.56167978  1  1.567462  0  0.215141  0.612296  0  4.217093  0
C  C62  1  0.56548386  0.31102504  0.31147866  1  1.565103  0  0.217146  0.611302  0  4.21826  0
C  C63  1  0.68113974  0.18080015  0.18089926  1  1.602413  0  0.230732  0.622884  0  4.162119  0
C  C64  1  0.68870854  0.43458910  0.18869502  1  1.51176  0  0.21512  0.613811  0  4.215073  0
C  C65  1  0.93444906  0.18858732  0.18861751  1  1.553252  0  0.215434  0.611693  0  4.217335  0
C  C66  1  0.81924941  0.31880303  0.31903780  1  1.594407  0  0.230322  0.620939  0  4.163515  0
C  C67  1  0.81176569  0.06530619  0.31131886  1  1.539154  0  0.217198  0.610182  0  4.217115  0
C  C68  1  0.43419417  0.68873152  0.68821332  1  1.563699  0  0.217169  0.610241  0  4.218746  0
C  C69  1  0.31902032  0.81923861  0.81899641  1  1.593495  0  0.230696  0.622306  0  4.160815  0
C  C70  1  0.18873774  0.93404298  0.68797866  1  1.555721  0  0.217517  0.609549  0  4.219986  0
C  C71  1  0.06541728  0.81146527  0.81146902  1  1.532378  0  0.215569  0.613325  0  4.21648  0
C  C72  1  0.18095848  0.68080525  0.68097487  1  1.587796  0  0.229989  0.621866  0  4.164695  0
C  C73  1  0.31171789  0.56581321  0.81154314  1  1.544349  0  0.214594  0.61164  0  4.214549  0
C  C74  1  0.43793903  0.18438501  0.93855646  1  1.543176  0  0.218023  0.611374  0  4.214811  0
C  C75  1  0.43095663  0.93083118  0.93094687  1  1.592532  0  0.230771  0.622171  0  4.161436  0
C  C76  1  0.68444228  0.93925718  0.93871763  1  1.560586  0  0.216942  0.609562  0  4.221772  0
C  C77  1  0.56128588  0.81579398  0.06176721  1  1.563597  0  0.216553  0.607107  0  4.222483  0
C  C78  1  0.56897043  0.06913412  0.06911800  1  1.605925  0  0.230638  0.621984  0  4.164112  0
C  C79  1  0.31511434  0.06166326  0.06106263  1  1.516011  0  0.216677  0.60906  0  4.218344  0
C  C80  1  0.90085798  0.40367321  0.40213863  1  -0.024738  0  -0.014851  -0.110843  0  3.95715  0
C  C81  1  0.84933937  0.34620452  0.34763424  1  0.091092  0  -0.014496  -0.109826  0  3.953175  0
C  C82  1  0.82951977  0.44585017  0.38749118  1  0.481843  0  0.106469  0.270501  0  4.04073  0
C  C83  1  0.92072661  0.30407976  0.36224105  1  0.471219  0  0.106125  0.269489  0  4.040963  0
C  C84  1  0.80434413  0.41796218  0.36100209  1  -0.056319  0  -0.086346  -0.201694  0  3.971791  0
C  C85  1  0.94584347  0.33189360  0.38879398  1  0.073069  0  -0.086476  -0.201966  0  3.973229  0
C  C86  1  0.09853827  0.59840662  0.59696877  1  0.060441  0  -0.015096  -0.111644  0  3.954967  0
C  C87  1  0.15147528  0.65154203  0.65298959  1  0.062318  0  -0.014474  -0.111261  0  3.952876  0
C  C88  1  0.14161773  0.64134759  0.58324969  1  0.476718  0  0.106844  0.271173  0  4.039955  0
C  C89  1  0.10841865  0.60859207  0.66670178  1  0.478165  0  0.105942  0.27058  0  4.039957  0
C  C90  1  0.16736232  0.66726066  0.61044834  1  0.002299  0  -0.086442  -0.200029  0  3.969214  0
C  C91  1  0.08266323  0.58268872  0.63950145  1  0.001506  0  -0.087343  -0.201876  0  3.974099  0
C  C92  1  0.30363264  0.45532955  0.40130388  1  0.041221  0  -0.002265  0.146246  0  3.96722  0
C  C93  1  0.44613241  0.29606240  0.34887712  1  0.032272  0  -0.088594  -0.133289  0  3.96635  0
C  C94  1  0.25900449  0.41444465  0.41373071  1  -0.148297  0  -0.02941  -0.196395  0  3.93934  0
C  C95  1  0.49071147  0.33628018  0.33644563  1  -0.167207  0  -0.025692  -0.119892  0  3.987677  0
C  C96  1  0.37792352  0.33873882  0.37253933  1  -0.140608  0  -0.023435  -0.0042  0  4.097986  0
C  C97  1  0.37159776  0.41095517  0.37771320  1  -0.143775  0  -0.023173  -0.08067  0  4.04491  0
C  C98  1  0.72722179  0.57534092  0.62968556  1  0.075181  0  -0.004363  0.142758  0  3.97249  0
C  C99  1  0.52411686  0.67363343  0.62110699  1  -0.001818  0  -0.088274  -0.133148  0  3.964992  0
C  C100  1  0.74183339  0.58587682  0.58698269  1  -0.152341  0  -0.028708  -0.194384  0  3.937633  0
C  C101  1  0.50921260  0.66349939  0.66346595  1  -0.087086  0  -0.025654  -0.118493  0  3.986277  0
C  C102  1  0.60327031  0.64177471  0.60843749  1  -0.148602  0  -0.023011  -0.004531  0  4.095528  0
C  C103  1  0.64748050  0.60782426  0.64143541  1  -0.182496  0  -0.023258  -0.079516  0  4.045801  0
C  C104  1  0.07541087  0.22714930  0.62960254  1  0.078174  0  -0.003873  0.14329  0  3.968759  0
C  C105  1  0.17391367  0.02393854  0.62095219  1  0.001155  0  -0.088614  -0.133637  0  3.966204  0
C  C106  1  0.08584179  0.24167797  0.58687217  1  -0.147864  0  -0.028823  -0.195208  0  3.937678  0
C  C107  1  0.16374665  0.00910592  0.66331140  1  -0.091874  0  -0.025566  -0.119658  0  3.986895  0
C  C108  1  0.14198213  0.10309970  0.60831708  1  -0.151288  0  -0.023171  -0.003648  0  4.096554  0
C  C109  1  0.10799420  0.14736690  0.64133220  1  -0.174721  0  -0.023756  -0.08187  0  4.046247  0
C  C110  1  0.84335101  0.79983388  0.39747489  1  0.109287  0  -0.002514  0.146192  0  3.971313  0
C  C111  1  0.90499142  0.94982940  0.35250320  1  0.100056  0  -0.087762  -0.131866  0  3.96175  0
C  C112  1  0.91269867  0.75882383  0.41355559  1  -0.177142  0  -0.028995  -0.196918  0  3.940393  0
C  C113  1  0.83629982  0.99067722  0.33640874  1  -0.214797  0  -0.025666  -0.119883  0  3.987643  0
C  C114  1  0.90832384  0.88018371  0.37476232  1  -0.201666  0  -0.023175  -0.004348  0  4.094607  0
C  C115  1  0.84192490  0.86920484  0.37531317  1  -0.170331  0  -0.02273  -0.079576  0  4.043613  0
C  C116  1  0.65297390  0.15306726  0.15150722  1  0.011334  0  -0.014995  -0.112783  0  3.955599  0
C  C117  1  0.59702233  0.09705432  0.09844195  1  0.006975  0  -0.014413  -0.11127  0  3.95544  0
C  C118  1  0.66660732  0.16693105  0.10852056  1  0.482732  0  0.106566  0.271016  0  4.040372  0
C  C119  1  0.58329308  0.08326424  0.14142864  1  0.497023  0  0.106657  0.270708  0  4.041198  0
C  C120  1  0.63950989  0.13968501  0.08266468  1  0.018692  0  -0.086512  -0.200796  0  3.971248  0
C  C121  1  0.61047444  0.11045670  0.16726594  1  0.008005  0  -0.086075  -0.19978  0  3.970981  0
C  C122  1  0.67451462  0.52288059  0.12053531  1  0.017932  0  -0.002454  0.1467  0  3.968314  0
C  C123  1  0.57607299  0.72625849  0.12887989  1  -0.002669  0  -0.087703  -0.133554  0  3.96308  0
C  C124  1  0.66396685  0.50858224  0.16327430  1  -0.075124  0  -0.029067  -0.196209  0  3.937653  0
C  C125  1  0.58636666  0.74084646  0.08649818  1  -0.084758  0  -0.025443  -0.118916  0  3.987136  0
C  C126  1  0.60789140  0.64715030  0.14165230  1  -0.162138  0  -0.023074  -0.002754  0  4.095482  0
C  C127  1  0.64195451  0.60265902  0.10873504  1  -0.170932  0  -0.023202  -0.082226  0  4.045325  0
C  C128  1  0.08083207  0.12427379  0.17831272  1  0.027838  0  -0.002332  0.145383  0  3.969952  0
C  C129  1  0.16959403  0.12534470  0.07247550  1  0.025814  0  -0.088565  -0.133448  0  3.967733  0
C  C130  1  0.00947181  0.16343313  0.16423643  1  -0.084006  0  -0.029052  -0.195226  0  3.937153  0
C  C131  1  0.24056532  0.08658130  0.08623309  1  -0.117775  0  -0.025687  -0.120147  0  3.987061  0
C  C132  1  0.11098531  0.13943456  0.10569215  1  -0.232343  0  -0.023459  -0.003494  0  4.096084  0
C  C133  1  0.13833522  0.11105667  0.14431415  1  -0.181783  0  -0.023489  -0.081742  0  4.045302  0
C  C134  1  0.34629473  0.84928153  0.84767189  1  0.094018  0  -0.014696  -0.110778  0  3.954055  0
C  C135  1  0.40367709  0.90084077  0.90224590  1  -0.021481  0  -0.014421  -0.110627  0  3.953361  0
C  C136  1  0.30414355  0.92067684  0.86233152  1  0.480424  0  0.106357  0.270143  0  4.040841  0
C  C137  1  0.44582374  0.82944998  0.88758089  1  0.480875  0  0.106257  0.27083  0  4.040286  0
C  C138  1  0.33194520  0.94581223  0.88889788  1  0.067898  0  -0.086535  -0.201665  0  3.972053  0
C  C139  1  0.41800607  0.80429057  0.86104162  1  -0.058105  0  -0.08736  -0.203156  0  3.974487  0
C  C140  1  0.40679220  0.45004424  0.85251883  1  0.103023  0  -0.002957  0.145742  0  3.970422  0
C  C141  1  0.34474760  0.30031255  0.89748192  1  0.089358  0  -0.088754  -0.133859  0  3.966144  0
C  C142  1  0.33748907  0.49124167  0.83641140  1  -0.173516  0  -0.029497  -0.196829  0  3.937996  0
C  C143  1  0.41338523  0.25922296  0.91359390  1  -0.197637  0  -0.025222  -0.1187  0  3.985023  0
C  C144  1  0.34165580  0.36986922  0.87518652  1  -0.197107  0  -0.023  -0.003184  0  4.09443  0
C  C145  1  0.40813364  0.38066747  0.87466497  1  -0.168147  0  -0.022905  -0.079998  0  4.043088  0
C  C146  1  0.94607421  0.79461860  0.84873574  1  0.085861  0  -0.003026  0.145255  0  3.968486  0
C  C147  1  0.80374885  0.95410543  0.90109717  1  0.034992  0  -0.088791  -0.133911  0  3.96706  0
C  C148  1  0.99080603  0.83538450  0.83625940  1  -0.143285  0  -0.028856  -0.195997  0  3.938505  0
C  C149  1  0.75907779  0.91400141  0.91362295  1  -0.162908  0  -0.02583  -0.119894  0  3.987143  0
C  C150  1  0.87190584  0.91127229  0.87744120  1  -0.156629  0  -0.023005  -0.003269  0  4.09663  0
C  C151  1  0.87811685  0.83906006  0.87232576  1  -0.174142  0  -0.023211  -0.081347  0  4.045066  0
C  C152  1  0.28469002  0.53354606  0.41073104  1  -0.084677  0  -0.230983  -0.396189  0  3.959835  0
C  C153  1  0.78520152  0.53626168  0.65926470  1  -0.057342  0  -0.231794  -0.39433  0  3.964849  0
C  C154  1  0.03631872  0.28515213  0.65923623  1  -0.059617  0  -0.231765  -0.3933  0  3.963945  0
C  C155  1  0.77945661  0.77611824  0.40226031  1  -0.096274  0  -0.231918  -0.397488  0  3.959447  0
C  C156  1  0.71368412  0.46480629  0.09094255  1  -0.063379  0  -0.231731  -0.396865  0  3.960071  0
C  C157  1  0.09616576  0.09938247  0.22209900  1  -0.00551  0  -0.230713  -0.393856  0  3.960113  0
C  C158  1  0.47070931  0.47371447  0.84776219  1  -0.087829  0  -0.232463  -0.39675  0  3.963338  0
C  C159  1  0.96517531  0.71639922  0.83926231  1  -0.083458  0  -0.231541  -0.396494  0  3.958951  0
S  S160  1  0.29930549  0.32450529  0.39700882  1  0.252953  0  0.072834  0.113188  0  2.756837  0
S  S161  1  0.45012736  0.42584198  0.35331692  1  0.249905  0  0.079274  0.119656  0  2.764921  0
S  S162  1  0.66017559  0.63401344  0.56207126  1  0.248454  0  0.076  0.116774  0  2.753612  0
S  S163  1  0.59098890  0.61539425  0.68806787  1  0.248538  0  0.076774  0.115378  0  2.765755  0
S  S164  1  0.13409041  0.15995832  0.56196375  1  0.246214  0  0.074636  0.115434  0  2.75622  0
S  S165  1  0.11557921  0.09088683  0.68795092  1  0.248656  0  0.081205  0.122789  0  2.761782  0
S  S166  1  0.97409808  0.80408677  0.40182191  1  0.263092  0  0.07284  0.113111  0  2.754444  0
S  S167  1  0.77556539  0.94502848  0.34826779  1  0.26543  0  0.078839  0.118849  0  2.766329  0
S  S168  1  0.61561148  0.59046486  0.18806833  1  0.255668  0  0.072744  0.112713  0  2.754677  0
S  S169  1  0.63463040  0.65885479  0.06203086  1  0.246828  0  0.080662  0.121555  0  2.762324  0
S  S170  1  0.01297245  0.18329096  0.11094133  1  0.298994  0  0.073566  0.113192  0  2.754428  0
S  S171  1  0.23652325  0.06705537  0.13941765  1  0.260325  0  0.081285  0.122734  0  2.761033  0
S  S172  1  0.27600150  0.44606149  0.84809931  1  0.264557  0  0.073622  0.113711  0  2.753639  0
S  S173  1  0.47433114  0.30468782  0.90176381  1  0.254184  0  0.078269  0.118034  0  2.764543  0
S  S174  1  0.95062855  0.92534990  0.85296171  1  0.254852  0  0.07453  0.115238  0  2.753244  0
S  S175  1  0.79952067  0.82435290  0.89681446  1  0.247636  0  0.081111  0.122272  0  2.761826  0
O  O176  1  0.00070673  0.49869258  0.49967297  1  -1.242181  0  -0.571364  -1.027717  0  2.534851  0
O  O177  1  0.07767453  0.31484806  0.52257939  1  -1.181894  0  -0.321844  -0.550611  0  2.333723  0
O  O178  1  0.03060312  0.53127004  0.58646291  1  -1.156724  0  -0.314553  -0.542943  0  2.321246  0
O  O179  1  0.15570101  0.50464791  0.45011138  1  -1.173113  0  -0.310614  -0.533817  0  2.349684  0
O  O180  1  0.02611296  0.37497979  0.58045233  1  -1.176443  0  -0.314156  -0.538093  0  2.350814  0
O  O181  1  0.15395770  0.39064735  0.44609379  1  -1.159005  0  -0.324043  -0.553781  0  2.33332  0
O  O182  1  0.08435180  0.58436996  0.53066292  1  -1.161343  0  -0.308624  -0.537047  0  2.370101  0
O  O183  1  0.00541325  0.65753374  0.44949137  1  -1.1727  0  -0.323347  -0.549668  0  2.336792  0
O  O184  1  0.88827626  0.49620981  0.44238072  1  -1.165397  0  -0.31074  -0.537482  0  2.371782  0
O  O185  1  0.89221874  0.65269073  0.44745524  1  -1.157665  0  -0.310475  -0.534927  0  2.349417  0
O  O186  1  0.99652114  0.38583509  0.44136680  1  -1.167117  0  -0.312001  -0.540564  0  2.316669  0
O  O187  1  0.87527455  0.52590893  0.58040813  1  -1.17998  0  -0.313118  -0.53886  0  2.347659  0
O  O188  1  0.81491877  0.57876337  0.52275635  1  -1.178316  0  -0.321486  -0.547356  0  2.337235  0
O  O189  1  0.74849918  0.25054686  0.25047070  1  -1.225643  0  -0.570393  -1.028684  0  2.528177  0
O  O190  1  0.59655769  0.35792707  0.30362022  1  -1.18526  0  -0.321039  -0.550043  0  2.335425  0
O  O191  1  0.66399707  0.16309565  0.21903859  1  -1.169364  0  -0.31292  -0.542178  0  2.317409  0
O  O192  1  0.72464545  0.37533001  0.16991734  1  -1.169739  0  -0.310425  -0.533776  0  2.349006  0
O  O193  1  0.59255379  0.24473132  0.29992866  1  -1.169304  0  -0.317804  -0.541315  0  2.314474  0
O  O194  1  0.67225915  0.43557396  0.22768903  1  -1.147393  0  -0.323924  -0.553765  0  2.332078  0
O  O195  1  0.71946580  0.21922435  0.16558631  1  -1.149505  0  -0.309875  -0.537007  0  2.369287  0
O  O196  1  0.87644445  0.22487144  0.16870885  1  -1.172388  0  -0.322637  -0.54918  0  2.337239  0
O  O197  1  0.86160969  0.25347908  0.30760070  1  -1.165134  0  -0.310263  -0.537274  0  2.372529  0
O  O198  1  0.93286828  0.17232828  0.22759827  1  -1.19202  0  -0.311185  -0.534978  0  2.349032  0
O  O199  1  0.75334536  0.36379799  0.30865871  1  -1.166655  0  -0.311915  -0.54029  0  2.315039  0
O  O200  1  0.74527491  0.09293982  0.29985395  1  -1.177144  0  -0.321269  -0.551706  0  2.334331  0
O  O201  1  0.85904620  0.09575977  0.30317119  1  -1.150232  0  -0.317284  -0.537536  0  2.317503  0
O  O202  1  0.25039700  0.75054474  0.74947031  1  -1.223799  0  -0.570676  -1.029218  0  2.527602  0
O  O203  1  0.37597983  0.72398553  0.66868907  1  -1.17143  0  -0.31776  -0.541156  0  2.314051  0
O  O204  1  0.36426821  0.75323568  0.80860137  1  -1.168668  0  -0.314528  -0.543085  0  2.31829  0
O  O205  1  0.17239635  0.93407870  0.72692023  1  -1.166815  0  -0.319311  -0.545655  0  2.33737  0
O  O206  1  0.43426956  0.67287301  0.72719684  1  -1.176406  0  -0.322084  -0.550362  0  2.337725  0
O  O207  1  0.22426687  0.87577780  0.66841510  1  -1.164056  0  -0.318768  -0.542203  0  2.314741  0
O  O208  1  0.25383357  0.86132920  0.80748455  1  -1.166459  0  -0.308273  -0.536156  0  2.366612  0
O  O209  1  0.09540031  0.85944971  0.80344627  1  -1.160033  0  -0.322351  -0.550192  0  2.334174  0
O  O210  1  0.16553248  0.66555395  0.71932508  1  -1.161191  0  -0.309016  -0.536904  0  2.370588  0
O  O211  1  0.09449984  0.74497528  0.79990057  1  -1.174609  0  -0.310999  -0.53534  0  2.34851  0
O  O212  1  0.21931767  0.71874799  0.66355276  1  -1.155455  0  -0.313073  -0.542209  0  2.318791  0
O  O213  1  0.35767762  0.59794766  0.80295417  1  -1.156508  0  -0.312003  -0.53838  0  2.343467  0
O  O214  1  0.24487846  0.59263311  0.80045932  1  -1.170475  0  -0.322099  -0.547265  0  2.336753  0
O  O215  1  0.49965038  0.00080307  0.99977122  1  -1.230457  0  -0.570047  -1.030864  0  2.522511  0
O  O216  1  0.50429694  0.15712394  0.95015180  1  -1.17309  0  -0.321639  -0.550669  0  2.334839  0
O  O217  1  0.38588718  0.99686913  0.94126901  1  -1.169177  0  -0.313545  -0.542576  0  2.317157  0
O  O218  1  0.65375701  0.89201858  0.94692845  1  -1.18011  0  -0.318933  -0.545188  0  2.340143  0
O  O219  1  0.39103285  0.15351677  0.94638056  1  -1.157369  0  -0.31779  -0.540448  0  2.312422  0
O  O220  1  0.65696840  0.00572802  0.95008675  1  -1.172993  0  -0.317818  -0.541726  0  2.312971  0
O  O221  1  0.49607015  0.88849747  0.94255299  1  -1.164405  0  -0.308704  -0.536263  0  2.365295  0
O  O222  1  0.57806194  0.81579103  0.02281510  1  -1.177285  0  -0.31934  -0.54642  0  2.337915  0
O  O223  1  0.53060918  0.03076250  0.08448142  1  -1.151933  0  -0.309512  -0.53651  0  2.369095  0
O  O224  1  0.52505921  0.87411781  0.08120922  1  -1.16884  0  -0.316301  -0.53703  0  2.315723  0
O  O225  1  0.58625800  0.08658063  0.03095803  1  -1.169874  0  -0.312729  -0.541844  0  2.317949  0
O  O226  1  0.31501986  0.07779271  0.02217409  1  -1.140549  0  -0.318335  -0.542374  0  2.314243  0
O  O227  1  0.37351662  0.02587792  0.08055359  1  -1.162069  0  -0.318989  -0.545162  0  2.338197  0
F  F228  1  0.78213095  0.51579534  0.39869415  1  -0.623621  0  -0.10036  -0.135636  0  1.348305  0
F  F229  1  0.96821639  0.23418645  0.35097298  1  -0.62573  0  -0.10093  -0.136091  0  1.347792  0
F  F230  1  0.15989079  0.65924975  0.54271472  1  -0.622848  0  -0.099493  -0.134769  0  1.347361  0
F  F231  1  0.09011339  0.59061445  0.70723769  1  -0.62291  0  -0.100549  -0.13584  0  1.346714  0
F  F232  1  0.70698452  0.20769278  0.09045018  1  -0.627163  0  -0.100842  -0.1362  0  1.347835  0
F  F233  1  0.54280781  0.04266456  0.15950364  1  -0.627867  0  -0.099679  -0.134095  0  1.348582  0
F  F234  1  0.23432101  0.96810122  0.85110546  1  -0.623447  0  -0.098746  -0.133132  0  1.34822  0
F  F235  1  0.51564476  0.78199065  0.89879596  1  -0.622436  0  -0.098958  -0.133435  0  1.347815  0
