# generated using pymatgen
data_YbPH11C9SNO9
_symmetry_space_group_name_H-M   'P 1'
_cell_length_a   6.68700824
_cell_length_b   7.45683089
_cell_length_c   13.28064069
_cell_angle_alpha   90.64951380
_cell_angle_beta   93.31410001
_cell_angle_gamma   101.99379852
_symmetry_Int_Tables_number   1
_chemical_formula_structural   YbPH11C9SNO9
_chemical_formula_sum   'Yb2 P2 H22 C18 S2 N2 O18'
_cell_volume   646.49991370
_cell_formula_units_Z   2
loop_
 _symmetry_equiv_pos_site_id
 _symmetry_equiv_pos_as_xyz
  1  'x, y, z'
loop_
 _atom_site_type_symbol
 _atom_site_label
 _atom_site_symmetry_multiplicity
 _atom_site_fract_x
 _atom_site_fract_y
 _atom_site_fract_z
 _atom_site_occupancy
 _atom_site_hle17_bader_spin_density
 _atom_site_hle17_ddec_charge
 _atom_site_hle17_ddec_spin_density
 _atom_site_hle17_ddec_sum_bond_order
 _atom_site_hle17_magmom
 _atom_site_hse06_10hf_bader_spin_density
 _atom_site_hse06_10hf_ddec_charge
 _atom_site_hse06_10hf_ddec_spin_density
 _atom_site_hse06_10hf_ddec_sum_bond_order
 _atom_site_hse06_10hf_magmom
 _atom_site_hse06_bader_spin_density
 _atom_site_hse06_ddec_charge
 _atom_site_hse06_ddec_spin_density
 _atom_site_hse06_ddec_sum_bond_order
 _atom_site_hse06_magmom
 _atom_site_pbe_bader_spin_density
 _atom_site_pbe_cm5_charge
 _atom_site_pbe_ddec_charge
 _atom_site_pbe_ddec_spin_density
 _atom_site_pbe_ddec_sum_bond_order
 _atom_site_pbe_magmom
Yb  Yb0  1  0.28379738  0.76872049  0.45580228  1  0  2.375296  0  1.550001  0  0  2.320702  0  1.846936  0  0  2.362138  0  1.810769  0  0  1.615913  2.206066  0  2.028245  0
Yb  Yb1  1  0.71620074  0.23127906  0.54419695  1  0  2.375322  0  1.549983  0  0  2.320729  0  1.846917  0  0  2.362163  0  1.810749  0  0  1.615935  2.206099  0  2.028223  0
P  P2  1  0.25366803  0.38544784  0.61874724  1  0  1.546393  0  4.900721  0  0  1.384048  0  5.407451  0  0  1.436947  0  5.36177  0  0  0.375391  1.344701  0  5.431796  0
P  P3  1  0.74633317  0.61455173  0.38125274  1  0  1.54633  0  4.900797  0  0  1.383994  0  5.407524  0  0  1.436889  0  5.361827  0  0  0.375361  1.34465  0  5.431859  0
H  H4  1  0.16730453  0.10316250  0.77306427  1  0  0.13321  0  0.93263  0  0  0.143784  0  0.986276  0  0  0.147665  0  0.984525  0  0  0.123237  0.140658  0  0.988442  0
H  H5  1  0.83269379  0.89683711  0.22693647  1  0  0.133215  0  0.932618  0  0  0.143781  0  0.986273  0  0  0.147666  0  0.984515  0  0  0.123233  0.140655  0  0.988437  0
H  H6  1  0.16619042  0.12227586  0.96085984  1  0  0.095616  0  0.93049  0  0  0.11035  0  0.987032  0  0  0.112651  0  0.985363  0  0  0.11263  0.108633  0  0.988252  0
H  H7  1  0.83380695  0.87772647  0.03914014  1  0  0.095608  0  0.930442  0  0  0.110314  0  0.987024  0  0  0.112636  0  0.985329  0  0  0.112612  0.108593  0  0.988254  0
H  H8  1  0.21413017  0.31803518  0.12047822  1  0  0.115208  0  0.957659  0  0  0.123292  0  1.020284  0  0  0.126919  0  1.017715  0  0  0.104866  0.120663  0  1.022147  0
H  H9  1  0.78587028  0.68196717  0.87952251  1  0  0.115214  0  0.957664  0  0  0.123277  0  1.020309  0  0  0.126903  0  1.017743  0  0  0.104877  0.120652  0  1.022168  0
H  H10  1  0.27223004  0.62876467  0.19982212  1  0  0.123561  0  0.952916  0  0  0.13248  0  1.01323  0  0  0.135758  0  1.011853  0  0  0.11313  0.129969  0  1.014325  0
H  H11  1  0.72777055  0.37123899  0.80017711  1  0  0.123588  0  0.952874  0  0  0.132507  0  1.013218  0  0  0.135797  0  1.011808  0  0  0.113141  0.12998  0  1.014335  0
H  H12  1  0.32786030  0.90328985  0.09609209  1  0  0.096603  0  0.950557  0  0  0.106708  0  1.01172  0  0  0.109673  0  1.00975  0  0  0.104454  0.104406  0  1.013453  0
H  H13  1  0.67214137  0.09671240  0.90390638  1  0  0.096613  0  0.950509  0  0  0.106702  0  1.011697  0  0  0.109664  0  1.009727  0  0  0.104467  0.1044  0  1.013432  0
H  H14  1  0.33414530  0.87504417  0.90721514  1  0  0.119341  0  0.969474  0  0  0.1278  0  1.032285  0  0  0.131097  0  1.031101  0  0  0.108378  0.125439  0  1.033126  0
H  H15  1  0.66585786  0.12495807  0.09278333  1  0  0.119371  0  0.969471  0  0  0.127823  0  1.032285  0  0  0.131117  0  1.031107  0  0  0.108387  0.125461  0  1.033125  0
H  H16  1  0.31299086  0.68042248  0.76537290  1  0  0.316798  0  0.903688  0  0  0.291795  0  0.970585  0  0  0.301384  0  0.962895  0  0  0.317067  0.284804  0  0.976634  0
H  H17  1  0.68701057  0.31957843  0.23462633  1  0  0.316827  0  0.903656  0  0  0.291814  0  0.970562  0  0  0.301401  0  0.962874  0  0  0.317084  0.284823  0  0.97661  0
H  H18  1  0.23098836  0.39447998  0.34558837  1  0  0.463487  0  0.822272  0  0  0.435827  0  0.878267  0  0  0.446172  0  0.863157  0  0  0.307912  0.427872  0  0.889866  0
H  H19  1  0.76900985  0.60551961  0.65441161  1  0  0.463488  0  0.82227  0  0  0.435828  0  0.878264  0  0  0.446172  0  0.863155  0  0  0.307906  0.427874  0  0.889862  0
H  H20  1  0.02273483  0.41938740  0.38813077  1  0  0.433409  0  0.86236  0  0  0.404407  0  0.927246  0  0  0.414528  0  0.912103  0  0  0.310364  0.397415  0  0.937122  0
H  H21  1  0.97726488  0.58061218  0.61186920  1  0  0.433425  0  0.862344  0  0  0.404404  0  0.927265  0  0  0.414527  0  0.912116  0  0  0.310351  0.397412  0  0.937142  0
H  H22  1  0.23445156  0.92137311  0.64440454  1  0  0.421695  0  0.890389  0  0  0.391203  0  0.954465  0  0  0.401488  0  0.93926  0  0  0.296512  0.383879  0  0.965031  0
H  H23  1  0.76554815  0.07862647  0.35559543  1  0  0.421695  0  0.890385  0  0  0.391197  0  0.954469  0  0  0.40148  0  0.939267  0  0  0.296515  0.383872  0  0.965035  0
H  H24  1  0.10992684  0.03686077  0.57455267  1  0  0.447774  0  0.848665  0  0  0.421059  0  0.905222  0  0  0.431503  0  0.889958  0  0  0.3073  0.413375  0  0.916071  0
H  H25  1  0.89007138  0.96313881  0.42544731  1  0  0.447769  0  0.848676  0  0  0.421053  0  0.905236  0  0  0.431498  0  0.889968  0  0  0.3073  0.413368  0  0.916087  0
C  C26  1  0.24058953  0.39597399  0.75686810  1  0  0.020854  0  3.541214  0  0  0.027741  0  3.793778  0  0  0.034756  0  3.804486  0  0  0.149386  0.022355  0  3.789265  0
C  C27  1  0.75941167  0.60402558  0.24313187  1  0  0.020814  0  3.541189  0  0  0.027669  0  3.793804  0  0  0.034713  0  3.804464  0  0  0.149372  0.022285  0  3.789285  0
C  C28  1  0.19751708  0.23471323  0.81298944  1  0  -0.070385  0  3.669292  0  0  -0.093051  0  3.925894  0  0  -0.100324  0  3.944203  0  0  -0.061384  -0.088927  0  3.915308  0
C  C29  1  0.80248422  0.76528638  0.18701129  1  0  -0.07043  0  3.66932  0  0  -0.093077  0  3.925916  0  0  -0.100362  0  3.944225  0  0  -0.061388  -0.088953  0  3.915325  0
C  C30  1  0.19682679  0.24635354  0.91655071  1  0  -0.020717  0  3.669258  0  0  -0.048631  0  3.921272  0  0  -0.042728  0  3.937029  0  0  -0.049349  -0.052249  0  3.910753  0
C  C31  1  0.80317176  0.75364741  0.08344927  1  0  -0.020607  0  3.669195  0  0  -0.0485  0  3.921184  0  0  -0.042613  0  3.936943  0  0  -0.049303  -0.05212  0  3.910664  0
C  C32  1  0.23464082  0.41858000  0.96755453  1  0  0.004077  0  3.815272  0  0  0.024111  0  4.041398  0  0  0.019536  0  4.067152  0  0  0.000328  0.026841  0  4.0243  0
C  C33  1  0.76536048  0.58141960  0.03244621  1  0  0.004011  0  3.81538  0  0  0.024065  0  4.041475  0  0  0.019489  0  4.067235  0  0  0.000309  0.026794  0  4.024378  0
C  C34  1  0.23705468  0.43929722  0.07382683  1  0  -0.10056  0  3.710438  0  0  -0.124656  0  3.966414  0  0  -0.126155  0  3.987537  0  0  -0.083635  -0.123333  0  3.952233  0
C  C35  1  0.76294460  0.56070651  0.92617391  1  0  -0.100559  0  3.710461  0  0  -0.124614  0  3.966448  0  0  -0.126115  0  3.987574  0  0  -0.08363  -0.123293  0  3.952267  0
C  C36  1  0.27114980  0.61168698  0.11829081  1  0  -0.047955  0  3.694549  0  0  -0.068259  0  3.95323  0  0  -0.072174  0  3.97597  0  0  -0.082101  -0.06597  0  3.938941  0
C  C37  1  0.72885112  0.38831805  0.88170841  1  0  -0.04794  0  3.69434  0  0  -0.068302  0  3.953095  0  0  -0.072216  0  3.975842  0  0  -0.082124  -0.066001  0  3.938823  0
C  C38  1  0.30356020  0.76936630  0.05824262  1  0  -0.032072  0  3.745331  0  0  -0.04943  0  4.002178  0  0  -0.048853  0  4.02342  0  0  -0.079066  -0.049642  0  3.988202  0
C  C39  1  0.69644133  0.23063465  0.94175736  1  0  -0.032114  0  3.745201  0  0  -0.049447  0  4.002069  0  0  -0.048865  0  4.023307  0  0  -0.079095  -0.049661  0  3.988093  0
C  C40  1  0.30543035  0.75519580  0.95452504  1  0  -0.179011  0  3.71853  0  0  -0.199246  0  3.973641  0  0  -0.205938  0  3.994866  0  0  -0.092345  -0.194821  0  3.959251  0
C  C41  1  0.69457248  0.24480507  0.04547343  1  0  -0.179068  0  3.718628  0  0  -0.199288  0  3.973719  0  0  -0.205981  0  3.994946  0  0  -0.092362  -0.19486  0  3.959325  0
C  C42  1  0.27150375  0.57903389  0.90833920  1  0  0.218205  0  3.718522  0  0  0.208561  0  3.954973  0  0  0.215628  0  3.976696  0  0  0.125267  0.203948  0  3.940441  0
C  C43  1  0.72850054  0.42096570  0.09166154  1  0  0.21822  0  3.718645  0  0  0.208577  0  3.955081  0  0  0.215643  0  3.976806  0  0  0.125291  0.203965  0  3.940544  0
S  S44  1  0.39048703  0.07711651  0.31075902  1  0  1.584551  0  5.839454  0  0  1.458099  0  6.399011  0  0  1.514343  0  6.359664  0  0  0.55351  1.41948  0  6.413382  0
S  S45  1  0.60951278  0.92288310  0.68924171  1  0  1.584529  0  5.839461  0  0  1.458093  0  6.399016  0  0  1.514343  0  6.359663  0  0  0.553508  1.419473  0  6.413392  0
N  N46  1  0.27390177  0.55854507  0.80554528  1  0  -0.234266  0  3.438982  0  0  -0.169796  0  3.65052  0  0  -0.184939  0  3.666199  0  0  -0.325926  -0.160224  0  3.641342  0
N  N47  1  0.72609944  0.44145450  0.19445469  1  0  -0.23424  0  3.438968  0  0  -0.169766  0  3.650527  0  0  -0.184918  0  3.666197  0  0  -0.32592  -0.160196  0  3.641343  0
O  O48  1  0.25415486  0.58146584  0.58574321  1  0  -0.972769  0  2.062902  0  0  -0.90721  0  2.334845  0  0  -0.932321  0  2.312216  0  0  -0.472797  -0.875786  0  2.352803  0
O  O49  1  0.74584494  0.41853377  0.41425753  1  0  -0.972764  0  2.062907  0  0  -0.907212  0  2.33485  0  0  -0.932323  0  2.312224  0  0  -0.472832  -0.875791  0  2.352811  0
O  O50  1  0.44673851  0.31622582  0.60239295  1  0  -0.94163  0  2.006168  0  0  -0.882543  0  2.286802  0  0  -0.909152  0  2.265099  0  0  -0.471035  -0.84951  0  2.306494  0
O  O51  1  0.55326227  0.68377235  0.39760628  1  0  -0.941642  0  2.006305  0  0  -0.882559  0  2.286948  0  0  -0.90917  0  2.265247  0  0  -0.471006  -0.849516  0  2.306633  0
O  O52  1  0.05806852  0.24955771  0.58196016  1  0  -0.945182  0  2.05825  0  0  -0.871049  0  2.314655  0  0  -0.899096  0  2.295215  0  0  -0.445959  -0.839156  0  2.33089  0
O  O53  1  0.94192960  0.75044184  0.41803906  1  0  -0.945142  0  2.058275  0  0  -0.871002  0  2.314667  0  0  -0.899049  0  2.295228  0  0  -0.445942  -0.83911  0  2.330903  0
O  O54  1  0.26082519  0.89140395  0.29010342  1  0  -0.79119  0  1.999883  0  0  -0.754019  0  2.275207  0  0  -0.775599  0  2.259761  0  0  -0.406353  -0.728706  0  2.28462  0
O  O55  1  0.73917462  0.10859566  0.70989731  1  0  -0.791178  0  1.999875  0  0  -0.753992  0  2.275168  0  0  -0.775575  0  2.259718  0  0  -0.40634  -0.728676  0  2.28458  0
O  O56  1  0.42979711  0.08393334  0.42473126  1  0  -0.920589  0  2.120984  0  0  -0.879255  0  2.400877  0  0  -0.900849  0  2.382996  0  0  -0.461395  -0.843612  0  2.410144  0
O  O57  1  0.57020419  0.91606626  0.57526947  1  0  -0.920575  0  2.120999  0  0  -0.879232  0  2.400862  0  0  -0.90082  0  2.382969  0  0  -0.461383  -0.843587  0  2.410128  0
O  O58  1  0.29006317  0.22411726  0.27589520  1  0  -0.686439  0  1.938658  0  0  -0.62597  0  2.172451  0  0  -0.647017  0  2.154413  0  0  -0.338404  -0.612572  0  2.185996  0
O  O59  1  0.70993472  0.77588095  0.72410477  1  0  -0.686465  0  1.938709  0  0  -0.625982  0  2.172484  0  0  -0.647033  0  2.154446  0  0  -0.33841  -0.612586  0  2.186034  0
O  O60  1  0.59042671  0.09430660  0.26219658  1  0  -0.729092  0  1.986237  0  0  -0.664425  0  2.225278  0  0  -0.687014  0  2.209013  0  0  -0.343739  -0.649052  0  2.236219  0
O  O61  1  0.40957151  0.90569298  0.73780340  1  0  -0.729078  0  1.986221  0  0  -0.664462  0  2.225294  0  0  -0.687062  0  2.20904  0  0  -0.343748  -0.649087  0  2.236236  0
O  O62  1  0.15885907  0.48760892  0.37163055  1  0  -0.933523  0  1.887962  0  0  -0.897982  0  2.086219  0  0  -0.915794  0  2.054355  0  0  -0.649271  -0.873652  0  2.114014  0
O  O63  1  0.84114064  0.51239065  0.62836943  1  0  -0.933546  0  1.887919  0  0  -0.897999  0  2.086172  0  0  -0.915813  0  2.054306  0  0  -0.649252  -0.873668  0  2.113966  0
O  O64  1  0.14383635  0.91340058  0.58182874  1  0  -0.910693  0  1.890375  0  0  -0.876419  0  2.085249  0  0  -0.89421  0  2.053932  0  0  -0.662895  -0.853269  0  2.112369  0
O  O65  1  0.85616187  0.08659901  0.41817124  1  0  -0.910696  0  1.890407  0  0  -0.876418  0  2.085288  0  0  -0.894207  0  2.053972  0  0  -0.662902  -0.853275  0  2.112422  0
