# generated using pymatgen
data_Zn4H25C45N2O17
_symmetry_space_group_name_H-M   'P 1'
_cell_length_a   18.28285581
_cell_length_b   18.23676735
_cell_length_c   18.26304697
_cell_angle_alpha   60.34852165
_cell_angle_beta   60.33726598
_cell_angle_gamma   60.13745110
_symmetry_Int_Tables_number   1
_chemical_formula_structural   Zn4H25C45N2O17
_chemical_formula_sum   'Zn8 H50 C90 N4 O34'
_cell_volume   4332.46833941
_cell_formula_units_Z   2
loop_
 _symmetry_equiv_pos_site_id
 _symmetry_equiv_pos_as_xyz
  1  'x, y, z'
loop_
 _atom_site_type_symbol
 _atom_site_label
 _atom_site_symmetry_multiplicity
 _atom_site_fract_x
 _atom_site_fract_y
 _atom_site_fract_z
 _atom_site_occupancy
 _atom_site_pbe_bader_charge
 _atom_site_pbe_bader_spin_density
 _atom_site_pbe_cm5_charge
 _atom_site_pbe_ddec_charge
 _atom_site_pbe_ddec_spin_density
 _atom_site_pbe_ddec_sum_bond_order
 _atom_site_pbe_magmom
Zn  Zn0  1  0.61939556  0.79739155  0.79430748  1  1.301838  0  0.669251  0.952923  0  2.402085  0
Zn  Zn1  1  0.38060481  0.20260968  0.20569249  1  1.301852  0  0.669249  0.952899  0  2.402055  0
Zn  Zn2  1  0.79301745  0.62142332  0.79268335  1  1.314564  0  0.675926  0.970135  0  2.360548  0
Zn  Zn3  1  0.20698189  0.37857723  0.20731691  1  1.314385  0  0.675925  0.970193  0  2.3605  0
Zn  Zn4  1  0.79525120  0.79910754  0.78834367  1  1.321179  0  0.673678  0.959778  0  2.397752  0
Zn  Zn5  1  0.20474778  0.20089033  0.21165974  1  1.321138  0  0.673697  0.959834  0  2.397758  0
Zn  Zn6  1  0.79175612  0.79739936  0.61658546  1  1.292458  0  0.665738  0.958186  0  2.385232  0
Zn  Zn7  1  0.20824078  0.20259718  0.38341525  1  1.292151  0  0.665759  0.958199  0  2.385258  0
H  H8  1  0.40241767  0.14109810  0.53073077  1  0.137931  0  0.123753  0.129713  0  0.951282  0
H  H9  1  0.59758063  0.85890178  0.46927144  1  0.13796  0  0.123751  0.129709  0  0.951259  0
H  H10  1  0.59878256  0.03352703  0.34329793  1  0.112977  0  0.117013  0.125229  0  0.979011  0
H  H11  1  0.40121448  0.96647285  0.65670436  1  0.1129  0  0.116997  0.125198  0  0.979058  0
H  H12  1  0.52771560  0.14271757  0.92424336  1  0.067461  0  0.098337  0.088814  0  0.994838  0
H  H13  1  0.47228334  0.85728231  0.07575853  1  0.067437  0  0.098343  0.088829  0  0.994841  0
H  H14  1  0.47158405  0.07323211  0.85796154  1  0.070225  0  0.099484  0.085938  0  0.991172  0
H  H15  1  0.52841447  0.92676710  0.14203979  1  0.070198  0  0.099493  0.085972  0  0.991108  0
H  H16  1  0.34351469  0.02700163  0.02924600  1  0.110065  0  0.097198  0.091598  0  1.008741  0
H  H17  1  0.65648361  0.97299825  0.97075565  1  0.110106  0  0.097209  0.091604  0  1.008739  0
H  H18  1  0.12556007  0.93666912  0.38489085  1  0.084269  0  0.103132  0.09214  0  0.985424  0
H  H19  1  0.87443315  0.06333278  0.61510686  1  0.084305  0  0.103148  0.092169  0  0.985536  0
H  H20  1  0.94238228  0.00426267  0.40095290  1  0.062762  0  0.098135  0.086807  0  1.002979  0
H  H21  1  0.05760819  0.99573990  0.59904585  1  0.062822  0  0.098119  0.086546  0  1.002986  0
H  H22  1  0.92150782  0.15586344  0.42719542  1  0.06096  0  0.09839  0.08401  0  1.001289  0
H  H23  1  0.07848306  0.84413980  0.57280224  1  0.060829  0  0.098409  0.084082  0  1.001248  0
H  H24  1  0.11745382  0.39337447  0.84999327  1  0.056989  0  0.096981  0.090951  0  1.014159  0
H  H25  1  0.88251510  0.60659859  0.15002355  1  0.057502  0  0.096891  0.090816  0  1.014188  0
H  H26  1  0.10544386  0.54342413  0.73219419  1  0.047176  0  0.097  0.090967  0  1.008921  0
H  H27  1  0.89460718  0.45652370  0.26777953  1  0.047762  0  0.097032  0.09101  0  1.008609  0
H  H28  1  0.06004872  0.58165257  0.60679077  1  0.050522  0  0.099687  0.100108  0  0.999095  0
H  H29  1  0.94000317  0.41830398  0.39317716  1  0.050947  0  0.099679  0.100092  0  0.999018  0
H  H30  1  0.03790648  0.32050194  0.71556391  1  0.055154  0  0.102169  0.102642  0  0.994928  0
H  H31  1  0.96199216  0.67950979  0.28448188  1  0.056069  0  0.102123  0.102599  0  0.994916  0
H  H32  1  0.08390118  0.28174477  0.84108062  1  0.072506  0  0.101387  0.097639  0  0.997526  0
H  H33  1  0.91598858  0.71826156  0.15897605  1  0.073374  0  0.101452  0.097646  0  0.997663  0
H  H34  1  0.12063145  0.35943948  0.54232036  1  0.076126  0  0.106974  0.113105  0  0.997685  0
H  H35  1  0.87934959  0.64055370  0.45768330  1  0.075639  0  0.106915  0.11309  0  0.997833  0
H  H36  1  0.02574042  0.92023878  0.76660973  1  0.043145  0  0.09835  0.090954  0  1.007732  0
H  H37  1  0.97431415  0.07973978  0.23337398  1  0.046838  0  0.098303  0.090924  0  1.007689  0
H  H38  1  0.13338848  0.79516488  0.70511373  1  0.050188  0  0.099097  0.092131  0  1.003986  0
H  H39  1  0.86661247  0.20481773  0.29485569  1  0.049885  0  0.099062  0.092059  0  1.004046  0
H  H40  1  0.11973289  0.64329332  0.78977905  1  0.046546  0  0.09529  0.093078  0  1.012721  0
H  H41  1  0.88024176  0.35670198  0.21019497  1  0.046719  0  0.095314  0.093119  0  1.012741  0
H  H42  1  0.89282563  0.74040250  0.99765346  1  0.072475  0  0.100489  0.100268  0  0.999352  0
H  H43  1  0.10723308  0.25958999  0.00236186  1  0.07255  0  0.100553  0.100379  0  0.99933  0
H  H44  1  0.90587995  0.89209151  0.91381781  1  0.080232  0  0.101818  0.100425  0  0.999426  0
H  H45  1  0.09420141  0.10789165  0.08618978  1  0.074126  0  0.101752  0.100291  0  0.999427  0
H  H46  1  0.09017743  0.55507684  0.01362903  1  0.100393  0  0.110431  0.122662  0  0.995557  0
H  H47  1  0.90982425  0.44492237  0.98637403  1  0.100445  0  0.110456  0.122684  0  0.995551  0
H  H48  1  0.27367863  0.94527916  0.84208550  1  0.116658  0  0.113517  0.120168  0  1.000255  0
H  H49  1  0.72631784  0.05471869  0.15792135  1  0.116687  0  0.11353  0.120165  0  1.000219  0
H  H50  1  0.39013372  0.72389634  0.03921872  1  0.138007  0  0.116413  0.12856  0  0.992483  0
H  H51  1  0.60986361  0.27610085  0.96078804  1  0.137236  0  0.116409  0.128567  0  0.992526  0
H  H52  1  0.40889930  0.68136714  0.81709754  1  0.07063  0  0.11032  0.111917  0  0.978585  0
H  H53  1  0.59110300  0.31863207  0.18290575  1  0.070683  0  0.110314  0.111894  0  0.978608  0
H  H54  1  0.32433701  0.84188414  0.75946349  1  0.10393  0  0.103701  0.105383  0  1.015894  0
H  H55  1  0.67566215  0.15811506  0.24054081  1  0.104258  0  0.103695  0.105405  0  1.015879  0
H  H56  1  0.33591308  0.56126654  0.03787743  1  0.088705  0  0.112774  0.126915  0  0.99357  0
H  H57  1  0.66408797  0.43873267  0.96212430  1  0.088666  0  0.112763  0.126895  0  0.993662  0
C  C58  1  0.89063806  0.61585889  0.60733582  1  1.54481  0  0.228658  0.610034  0  4.177937  0
C  C59  1  0.10934980  0.38413833  0.39266192  1  1.54461  0  0.228619  0.610012  0  4.17823  0
C  C60  1  0.61230966  0.88959341  0.89119018  1  1.546096  0  0.227763  0.611462  0  4.168866  0
C  C61  1  0.38769053  0.11040648  0.10880999  1  1.546235  0  0.227828  0.611498  0  4.168788  0
C  C62  1  0.61015542  0.61380697  0.88573884  1  1.568922  0  0.229049  0.604405  0  4.167727  0
C  C63  1  0.38984671  0.38619090  0.11426356  1  1.568894  0  0.229133  0.604556  0  4.167556  0
C  C64  1  0.88418823  0.89767586  0.60362890  1  1.50208  0  0.228307  0.60984  0  4.173846  0
C  C65  1  0.11580561  0.10232604  0.39637014  1  1.502344  0  0.228384  0.609988  0  4.173805  0
C  C66  1  0.89051373  0.61356251  0.88540148  1  1.535767  0  0.229581  0.606208  0  4.166581  0
C  C67  1  0.10948646  0.38643737  0.11460143  1  1.535639  0  0.229739  0.606499  0  4.165989  0
C  C68  1  0.60669399  0.88956870  0.61375274  1  1.624061  0  0.224684  0.603708  0  4.210749  0
C  C69  1  0.39330261  0.11043252  0.38624966  1  1.623958  0  0.224618  0.6036  0  4.210959  0
C  C70  1  0.55033874  0.04188607  0.48641669  1  0.287384  0  0.097878  0.066751  0  3.605987  0
C  C71  1  0.44965767  0.95811381  0.51358591  1  0.287655  0  0.097877  0.06675  0  3.605948  0
C  C72  1  0.44528353  0.07745976  0.51819059  1  -0.026517  0  -0.052024  -0.076141  0  3.569648  0
C  C73  1  0.55471352  0.92254012  0.48181169  1  -0.02672  0  -0.052002  -0.07608  0  3.569605  0
C  C74  1  0.45124116  0.05317678  0.44355872  1  0.052549  0  0.004585  -0.042357  0  3.639859  0
C  C75  1  0.54875566  0.94682377  0.55644335  1  0.052645  0  0.00456  -0.042461  0  3.639982  0
C  C76  1  0.55549038  0.01789683  0.41277204  1  -0.038073  0  -0.063016  -0.08903  0  3.603841  0
C  C77  1  0.44450644  0.98210372  0.58723002  1  -0.037986  0  -0.062985  -0.08893  0  3.603869  0
C  C78  1  0.48339421  0.04145526  0.92176860  1  -0.010028  0  -0.070361  -0.059308  0  3.617609  0
C  C79  1  0.51660495  0.95854396  0.07823241  1  -0.009906  0  -0.07032  -0.059342  0  3.617566  0
C  C80  1  0.51586355  0.07881216  0.95717911  1  -0.032076  0  -0.072035  -0.059236  0  3.620324  0
C  C81  1  0.48413623  0.92118705  0.04282105  1  -0.03186  0  -0.072046  -0.059251  0  3.620306  0
C  C82  1  0.44406275  0.05322995  0.05164357  1  -0.026443  0  -0.009726  -0.035772  0  3.655831  0
C  C83  1  0.55593641  0.94676927  0.94835690  1  -0.026566  0  -0.009713  -0.035795  0  3.655891  0
C  C84  1  0.41302188  0.01513662  0.01596144  1  -0.038862  0  -0.079437  -0.068681  0  3.635067  0
C  C85  1  0.58697728  0.98486260  0.98403958  1  -0.038967  0  -0.079506  -0.068712  0  3.635125  0
C  C86  1  0.96830924  0.00273304  0.44444820  1  -0.008835  0  -0.077331  -0.068769  0  3.646183  0
C  C87  1  0.03168312  0.99726953  0.55554906  1  -0.00848  0  -0.07727  -0.067692  0  3.64512  0
C  C88  1  0.06901679  0.96415590  0.43649824  1  -0.034025  0  -0.071156  -0.062041  0  3.62521  0
C  C89  1  0.93097471  0.03584734  0.56349857  1  -0.034425  0  -0.071186  -0.062361  0  3.625396  0
C  C90  1  0.05693729  0.04718770  0.45274433  1  0.022876  0  -0.007708  -0.032572  0  3.65618  0
C  C91  1  0.94305507  0.95281488  0.54725293  1  0.023367  0  -0.007719  -0.032308  0  3.656634  0
C  C92  1  0.95533213  0.08593306  0.46034293  1  -0.028092  0  -0.069536  -0.059052  0  3.616031  0
C  C93  1  0.04466000  0.91407018  0.53965411  1  -0.027952  0  -0.069535  -0.059418  0  3.61589  0
C  C94  1  0.09071512  0.49428172  0.72881407  1  -0.053814  0  -0.096168  -0.080012  0  4.04015  0
C  C95  1  0.90930991  0.50567607  0.27117477  1  -0.099861  0  -0.096527  -0.080474  0  4.040019  0
C  C96  1  0.06466041  0.51602895  0.65857327  1  0.013622  0  -0.095053  -0.134835  0  3.983541  0
C  C97  1  0.93536439  0.48393890  0.34140909  1  0.01443  0  -0.094645  -0.134369  0  3.98363  0
C  C98  1  0.04548793  0.45372629  0.65283696  1  -0.049689  0  -0.010327  0.07114  0  4.009399  0
C  C99  1  0.95449186  0.54625751  0.34717028  1  -0.049583  0  -0.010439  0.071016  0  4.009349  0
C  C100  1  0.05374666  0.36893539  0.71881332  1  0.007983  0  -0.091227  -0.131745  0  3.97597  0
C  C101  1  0.94618667  0.63106303  0.28121524  1  0.007872  0  -0.091009  -0.131405  0  3.975543  0
C  C102  1  0.07930394  0.34740796  0.78944781  1  -0.078799  0  -0.094234  -0.084208  0  4.037969  0
C  C103  1  0.92062216  0.65258575  0.21058884  1  -0.078668  0  -0.094492  -0.084556  0  4.037727  0
C  C104  1  0.09790358  0.40996273  0.79463342  1  -0.070551  0  -0.095084  -0.085478  0  4.027229  0
C  C105  1  0.90206883  0.59001303  0.20537759  1  -0.029125  0  -0.094899  -0.085112  0  4.026691  0
C  C106  1  0.06638378  0.42079060  0.52515752  1  -0.006212  0  -0.079881  -0.139087  0  3.947091  0
C  C107  1  0.93359582  0.57920124  0.47484532  1  -0.005358  0  -0.079767  -0.13906  0  3.947186  0
C  C108  1  0.04869389  0.44346095  0.44894807  1  -0.036043  0  -0.010119  -0.062022  0  3.938912  0
C  C109  1  0.95128778  0.55653224  0.55105308  1  -0.035082  0  -0.010251  -0.062247  0  3.939073  0
C  C110  1  0.98060835  0.52329839  0.42286095  1  0.03485  0  0.002685  0.056243  0  3.971238  0
C  C111  1  0.01937147  0.47669279  0.57714155  1  0.033397  0  0.002747  0.056418  0  3.97123  0
C  C112  1  0.08034733  0.78349112  0.76918119  1  -0.092454  0  -0.096573  -0.083732  0  4.052682  0
C  C113  1  0.91966384  0.21649480  0.23079795  1  -0.091081  0  -0.096503  -0.083495  0  4.052837  0
C  C114  1  0.07284585  0.69814771  0.81663698  1  -0.036099  0  -0.098797  -0.145102  0  3.99817  0
C  C115  1  0.92715094  0.30184356  0.18334229  1  -0.035898  0  -0.098796  -0.145247  0  3.998302  0
C  C116  1  0.00506400  0.68208469  0.89892082  1  -0.048234  0  -0.009184  0.078128  0  4.006548  0
C  C117  1  0.99494616  0.31790987  0.10107320  1  -0.048914  0  -0.009118  0.078324  0  4.006408  0
C  C118  1  0.94591691  0.75242552  0.93374810  1  -0.042006  0  -0.090706  -0.124341  0  3.974579  0
C  C119  1  0.05412609  0.24756500  0.06625626  1  -0.041316  0  -0.090731  -0.124676  0  3.974566  0
C  C120  1  0.95317398  0.83771703  0.88637986  1  -0.044636  0  -0.091613  -0.078638  0  4.023957  0
C  C121  1  0.04688764  0.16226681  0.11362185  1  -0.016816  0  -0.091499  -0.078198  0  4.023608  0
C  C122  1  0.02032384  0.85345679  0.80377557  1  0.041829  0  -0.096239  -0.09139  0  4.035371  0
C  C123  1  0.97971994  0.14652576  0.19621261  1  0.014853  0  -0.096392  -0.091672  0  4.035346  0
C  C124  1  0.05030183  0.53144537  0.00690151  1  0.041851  0  -0.078955  -0.141646  0  3.953398  0
C  C125  1  0.94970007  0.46855317  0.99310012  1  0.041675  0  -0.078942  -0.141655  0  3.953504  0
C  C126  1  0.05193474  0.44279222  0.05638923  1  -0.02527  0  -0.009328  -0.069053  0  3.934271  0
C  C127  1  0.94806802  0.55720566  0.94361121  1  -0.024684  0  -0.009334  -0.068974  0  3.934362  0
C  C128  1  0.00057778  0.40992484  0.04989715  1  -0.051533  0  0.00642  0.059159  0  3.957999  0
C  C129  1  0.99942583  0.59007238  0.95010319  1  -0.052343  0  0.006473  0.059184  0  3.957863  0
C  C130  1  0.32968867  0.83852618  0.94403532  1  0.149976  0  0.074846  0.074848  0  3.942389  0
C  C131  1  0.67030843  0.16147167  0.05597122  1  0.150044  0  0.07485  0.074832  0  3.942317  0
C  C132  1  0.37650020  0.74817039  0.97798934  1  0.028637  0  -0.073612  -0.161014  0  3.915511  0
C  C133  1  0.62349838  0.25182680  0.02201624  1  0.029804  0  -0.073558  -0.160913  0  3.915472  0
C  C134  1  0.40663029  0.69117965  0.93124265  1  -0.012083  0  0.003655  0.095861  0  3.986303  0
C  C135  1  0.59337054  0.30882023  0.06876050  1  -0.012551  0  0.003601  0.095716  0  3.986362  0
C  C136  1  0.38624025  0.72584335  0.85323128  1  0.013985  0  -0.072834  -0.104267  0  3.919618  0
C  C137  1  0.61376057  0.27415653  0.14677187  1  0.013836  0  -0.07276  -0.104136  0  3.919614  0
C  C138  1  0.33865980  0.81654968  0.82063761  1  -0.054796  0  -0.083679  -0.064401  0  4.003348  0
C  C139  1  0.66133999  0.18344952  0.17936638  1  -0.055051  0  -0.08372  -0.064481  0  4.00342  0
C  C140  1  0.31046653  0.87419323  0.86558805  1  0.005967  0  -0.080225  -0.128926  0  3.978432  0
C  C141  1  0.68953205  0.12580396  0.13441808  1  0.005942  0  -0.080249  -0.128928  0  3.978376  0
C  C142  1  0.40835121  0.53516247  0.02058587  1  -0.039806  0  -0.076727  -0.137218  0  3.938366  0
C  C143  1  0.59165024  0.46483742  0.97941587  1  -0.039145  0  -0.076718  -0.137238  0  3.938339  0
C  C144  1  0.44918789  0.44258144  0.05545040  1  -0.004146  0  -0.007259  -0.065271  0  3.925384  0
C  C145  1  0.55081293  0.55741844  0.94455220  1  -0.003902  0  -0.007179  -0.065097  0  3.925258  0
C  C146  1  0.54297951  0.40606644  0.03462059  1  0.046317  0  0.008518  0.061111  0  3.950547  0
C  C147  1  0.45702153  0.59393278  0.96538058  1  0.046785  0  0.008399  0.060926  0  3.950638  0
N  N148  1  0.60055903  0.09202095  0.47392922  1  0.395059  0  0.058491  0.511446  0  4.230336  0
N  N149  1  0.39943761  0.90797825  0.52607414  1  0.395023  0  0.058526  0.511479  0  4.230293  0
N  N150  1  0.29954942  0.89863324  0.99279568  1  0.376452  0  0.060523  0.521176  0  4.195098  0
N  N151  1  0.70044602  0.10136394  0.00721202  1  0.376106  0  0.060622  0.521253  0  4.194975  0
O  O152  1  0.74981204  0.75296404  0.74725724  1  -1.20894  0  -0.572914  -1.032101  0  2.545416  0
O  O153  1  0.25018604  0.24703651  0.25274365  1  -1.208866  0  -0.572917  -1.032076  0  2.54528  0
O  O154  1  0.87229445  0.70003174  0.56600542  1  -1.162822  0  -0.31646  -0.546154  0  2.325084  0
O  O155  1  0.12768837  0.29996548  0.43399098  1  -1.162952  0  -0.316442  -0.546189  0  2.325205  0
O  O156  1  0.57041945  0.86327852  0.87464660  1  -1.17045  0  -0.32424  -0.556474  0  2.323328  0
O  O157  1  0.42958084  0.13671734  0.12535715  1  -1.170518  0  -0.324226  -0.556442  0  2.323353  0
O  O158  1  0.69388695  0.57262385  0.87065970  1  -1.174341  0  -0.310031  -0.536287  0  2.331698  0
O  O159  1  0.30611518  0.42737401  0.12934379  1  -1.17422  0  -0.310064  -0.536364  0  2.331607  0
O  O160  1  0.86875549  0.87032394  0.68751415  1  -1.155045  0  -0.315521  -0.546467  0  2.336826  0
O  O161  1  0.13124200  0.12967462  0.31248473  1  -1.155151  0  -0.315578  -0.546592  0  2.336913  0
O  O162  1  0.86573861  0.57174842  0.86742072  1  -1.158532  0  -0.311686  -0.541089  0  2.349526  0
O  O163  1  0.13426993  0.42825284  0.13257080  1  -1.158193  0  -0.311778  -0.541249  0  2.349341  0
O  O164  1  0.68946599  0.85915937  0.57199623  1  -1.175511  0  -0.313406  -0.540721  0  2.313403  0
O  O165  1  0.31052957  0.14084117  0.42800701  1  -1.175486  0  -0.313363  -0.540678  0  2.31353  0
O  O166  1  0.87014376  0.69803032  0.85937675  1  -1.179188  0  -0.302249  -0.535858  0  2.405296  0
O  O167  1  0.12984786  0.30196885  0.14063569  1  -1.179235  0  -0.302349  -0.535984  0  2.405097  0
O  O168  1  0.56781745  0.87709080  0.69677362  1  -1.168631  0  -0.304059  -0.525231  0  2.330371  0
O  O169  1  0.43217959  0.12290907  0.30322921  1  -1.168596  0  -0.304053  -0.525217  0  2.330475  0
O  O170  1  0.57247742  0.69800665  0.85561120  1  -1.181607  0  -0.304102  -0.5374  0  2.399242  0
O  O171  1  0.42752488  0.30199258  0.14438716  1  -1.181671  0  -0.304103  -0.537401  0  2.399291  0
O  O172  1  0.85533060  0.88099046  0.56435699  1  -1.159165  0  -0.318452  -0.548754  0  2.322159  0
O  O173  1  0.14466307  0.11901010  0.43564280  1  -1.158857  0  -0.318481  -0.54878  0  2.322109  0
O  O174  1  0.86036512  0.57725921  0.69095657  1  -1.173039  0  -0.310514  -0.543855  0  2.354799  0
O  O175  1  0.13963364  0.42273933  0.30904498  1  -1.172661  0  -0.310563  -0.54396  0  2.355054  0
O  O176  1  0.69666463  0.87157167  0.86295924  1  -1.161651  0  -0.31317  -0.543107  0  2.331293  0
O  O177  1  0.30333398  0.12843292  0.13703722  1  -1.161626  0  -0.313247  -0.543206  0  2.331281  0
O  O178  1  0.61672689  0.15091082  0.40027481  1  -0.456238  0  -0.137047  -0.340936  0  1.877015  0
O  O179  1  0.62009719  0.07433923  0.53809740  1  -0.445651  0  -0.125757  -0.316582  0  1.865929  0
O  O180  1  0.38327101  0.84908839  0.59972848  1  -0.4563  0  -0.137048  -0.340948  0  1.87696  0
O  O181  1  0.37989860  0.92566065  0.46190551  1  -0.445627  0  -0.125834  -0.316654  0  1.865972  0
O  O182  1  0.26254093  0.97986278  0.95883098  1  -0.463352  0  -0.145027  -0.353344  0  1.875675  0
O  O183  1  0.31273143  0.86486155  0.06503120  1  -0.464605  0  -0.137296  -0.345194  0  1.88923  0
O  O184  1  0.68726508  0.13513429  0.93497662  1  -0.464429  0  -0.137361  -0.345222  0  1.889069  0
O  O185  1  0.73745388  0.02013439  0.04117758  1  -0.463207  0  -0.145091  -0.353438  0  1.875729  0
