# generated using pymatgen
data_AlH8C12O5F
_symmetry_space_group_name_H-M   'P 1'
_cell_length_a   6.67936158
_cell_length_b   11.10829762
_cell_length_c   15.45024741
_cell_angle_alpha   82.69740455
_cell_angle_beta   75.87922692
_cell_angle_gamma   72.78173892
_symmetry_Int_Tables_number   1
_chemical_formula_structural   AlH8C12O5F
_chemical_formula_sum   'Al2 H16 C24 O10 F2'
_cell_volume   1060.02461240
_cell_formula_units_Z   2
loop_
 _symmetry_equiv_pos_site_id
 _symmetry_equiv_pos_as_xyz
  1  'x, y, z'
loop_
 _atom_site_type_symbol
 _atom_site_label
 _atom_site_symmetry_multiplicity
 _atom_site_fract_x
 _atom_site_fract_y
 _atom_site_fract_z
 _atom_site_occupancy
 _atom_site_pbe_bader_charge
 _atom_site_pbe_bader_spin_density
 _atom_site_pbe_cm5_charge
 _atom_site_pbe_ddec_charge
 _atom_site_pbe_ddec_spin_density
 _atom_site_pbe_ddec_sum_bond_order
 _atom_site_pbe_magmom
Al  Al0  1  0.50000348  0.49999622  0.50000840  1  2.503274  0  0.401818  1.642534  0  2.573957  0
Al  Al1  1  0.00000727  0.50000254  0.49999964  1  2.501871  0  0.397996  1.64179  0  2.583885  0
H  H2  1  0.27468581  0.57268401  0.39218905  1  0.610601  0  0.350416  0.429438  0  0.859034  0
H  H3  1  0.72532582  0.42732476  0.60781826  1  0.610504  0  0.350403  0.429337  0  0.859167  0
H  H4  1  0.69437635  0.11627532  0.55922490  1  0.066747  0  0.104698  0.109165  0  1.017453  0
H  H5  1  0.30565675  0.88372867  0.44075276  1  0.068052  0  0.10464  0.109068  0  1.017567  0
H  H6  1  0.72890400  0.45625531  0.94356589  1  0.091804  0  0.106887  0.124447  0  1.017473  0
H  H7  1  0.27103344  0.54377308  0.05644422  1  0.092147  0  0.10695  0.124637  0  1.017512  0
H  H8  1  0.62060965  0.43495387  0.23726408  1  0.119581  0  0.112219  0.118453  0  1.00155  0
H  H9  1  0.68148978  0.44375046  0.07406325  1  0.048216  0  0.100951  0.10108  0  1.023973  0
H  H10  1  0.37937870  0.56503583  0.76274898  1  0.119487  0  0.112277  0.118537  0  1.001541  0
H  H11  1  0.31849242  0.55625538  0.92594598  1  0.048359  0  0.100913  0.100953  0  1.023909  0
H  H12  1  0.93561851  0.93586322  0.59851255  1  0.032192  0  0.089207  0.124543  0  1.002378  0
H  H13  1  0.84750438  0.79621699  0.62584063  1  0.043341  0  0.092706  0.13273  0  0.99693  0
H  H14  1  0.01581467  0.81456163  0.52180274  1  0.083562  0  0.09975  0.148435  0  1.009133  0
H  H15  1  0.98419940  0.18543370  0.47817945  1  0.083822  0  0.099788  0.148755  0  1.008899  0
H  H16  1  0.15252367  0.20378800  0.37413487  1  0.043014  0  0.092874  0.132971  0  0.996707  0
H  H17  1  0.06442639  0.06413233  0.40146390  1  0.031995  0  0.089254  0.124776  0  1.002558  0
C  C18  1  0.85594573  0.48039622  0.33994790  1  1.612886  0  0.272184  0.660302  0  4.097551  0
C  C19  1  0.63751890  0.72833778  0.49427263  1  1.567534  0  0.265825  0.648939  0  4.083699  0
C  C20  1  0.14405016  0.51959073  0.66006266  1  1.613112  0  0.272108  0.660234  0  4.097197  0
C  C21  1  0.36249220  0.27166018  0.50571678  1  1.567332  0  0.265803  0.649009  0  4.084084  0
C  C22  1  0.57241379  0.86841964  0.49882276  1  -0.022193  0  -0.01442  -0.096572  0  3.941662  0
C  C23  1  0.42759836  0.13158609  0.50115883  1  -0.02181  0  -0.014444  -0.096417  0  3.941182  0
C  C24  1  0.68819861  0.93184750  0.53340338  1  0.015602  0  -0.000793  0.157347  0  3.950325  0
C  C25  1  0.31181969  0.06815823  0.46657888  1  -0.051204  0  -0.00067  0.15748  0  3.950129  0
C  C26  1  0.61056403  0.06323498  0.53311940  1  -0.061078  0  -0.08592  -0.161369  0  3.965972  0
C  C27  1  0.38945450  0.93676681  0.46686832  1  0.003895  0  -0.085827  -0.161061  0  3.966137  0
C  C28  1  0.09186425  0.51904066  0.75959335  1  0.013715  0  -0.019479  -0.156041  0  3.965113  0
C  C29  1  0.90812672  0.48094999  0.24041937  1  0.013908  0  -0.019565  -0.156253  0  3.965207  0
C  C30  1  0.90949973  0.49006443  0.81439819  1  0.43655  0  0.10853  0.287657  0  4.037727  0
C  C31  1  0.87250500  0.48246204  0.90696630  1  0.042685  0  -0.099368  -0.260947  0  3.970674  0
C  C32  1  0.09048852  0.50993189  0.18561438  1  0.43655  0  0.10857  0.28773  0  4.03769  0
C  C33  1  0.12746526  0.51755872  0.09304883  1  0.041768  0  -0.099469  -0.261188  0  3.970681  0
C  C34  1  0.76410203  0.45730421  0.19634316  1  -0.06342  0  -0.074567  -0.054886  0  3.981012  0
C  C35  1  0.79951160  0.46323791  0.10384464  1  0.038167  0  -0.094067  -0.146558  0  3.975986  0
C  C36  1  0.23588010  0.54269221  0.80366550  1  -0.062807  0  -0.074681  -0.05524  0  3.981494  0
C  C37  1  0.20045620  0.53675935  0.89616670  1  0.037868  0  -0.093922  -0.146244  0  3.976028  0
C  C38  1  0.01841445  0.50512748  0.95053583  1  -0.073802  0  0.002039  0.102988  0  3.979258  0
C  C39  1  0.98154743  0.49489814  0.04947395  1  -0.001026  0  0.002093  0.102943  0  3.978838  0
C  C40  1  0.88204648  0.86664506  0.57184394  1  -0.046658  0  -0.241974  -0.414174  0  3.959948  0
C  C41  1  0.11797318  0.13334862  0.42813068  1  -0.046661  0  -0.242272  -0.415116  0  3.960181  0
O  O42  1  0.65983191  0.49176472  0.37797148  1  -1.264886  0  -0.229601  -0.584562  0  2.335168  0
O  O43  1  0.83715397  0.67143371  0.48379299  1  -1.265218  0  -0.235539  -0.595398  0  2.369238  0
O  O44  1  0.99280125  0.52969041  0.62089228  1  -1.253105  0  -0.232921  -0.593211  0  2.367696  0
O  O45  1  0.51109961  0.32440452  0.50057401  1  -1.260542  0  -0.238354  -0.5956  0  2.338288  0
O  O46  1  0.34016720  0.50822497  0.62204244  1  -1.264916  0  -0.229624  -0.584572  0  2.335051  0
O  O47  1  0.16286200  0.32856041  0.51619881  1  -1.26508  0  -0.235586  -0.59549  0  2.369506  0
O  O48  1  0.00720147  0.47029856  0.37911355  1  -1.253155  0  -0.233027  -0.593253  0  2.367738  0
O  O49  1  0.48890613  0.67559121  0.49942712  1  -1.260539  0  -0.238387  -0.595543  0  2.338135  0
O  O50  1  0.25016597  0.55059192  0.45592396  1  -1.41392  0  -0.448754  -0.99037  0  2.191905  0
O  O51  1  0.74984458  0.44941591  0.54408353  1  -1.413543  0  -0.448695  -0.990268  0  2.192197  0
F  F52  1  0.76136812  0.46351948  0.77843466  1  -0.6373  0  -0.089479  -0.137968  0  1.362803  0
F  F53  1  0.23863304  0.53646943  0.22157328  1  -0.637275  0  -0.089496  -0.137977  0  1.362931  0
