# generated using pymatgen
data_Cu2H10C15N4O5
_symmetry_space_group_name_H-M   'P 1'
_cell_length_a   8.10648446
_cell_length_b   10.02480745
_cell_length_c   10.84266289
_cell_angle_alpha   115.93193466
_cell_angle_beta   102.57072794
_cell_angle_gamma   101.84982462
_symmetry_Int_Tables_number   1
_chemical_formula_structural   Cu2H10C15N4O5
_chemical_formula_sum   'Cu4 H20 C30 N8 O10'
_cell_volume   726.68127365
_cell_formula_units_Z   2
loop_
 _symmetry_equiv_pos_site_id
 _symmetry_equiv_pos_as_xyz
  1  'x, y, z'
loop_
 _atom_site_type_symbol
 _atom_site_label
 _atom_site_symmetry_multiplicity
 _atom_site_fract_x
 _atom_site_fract_y
 _atom_site_fract_z
 _atom_site_occupancy
 _atom_site_hle17_ddec_charge
 _atom_site_hle17_ddec_spin_density
 _atom_site_hle17_ddec_sum_bond_order
 _atom_site_hle17_magmom
 _atom_site_hse06_10hf_ddec_charge
 _atom_site_hse06_10hf_ddec_spin_density
 _atom_site_hse06_10hf_ddec_sum_bond_order
 _atom_site_hse06_10hf_magmom
 _atom_site_hse06_ddec_charge
 _atom_site_hse06_ddec_spin_density
 _atom_site_hse06_ddec_sum_bond_order
 _atom_site_hse06_magmom
 _atom_site_pbe_cm5_charge
 _atom_site_pbe_ddec_charge
 _atom_site_pbe_ddec_spin_density
 _atom_site_pbe_ddec_sum_bond_order
 _atom_site_pbe_magmom
Cu  Cu0  1  0.45672685  0.64630988  0.01390858  1  0.891044  0.691382  1.853184  0.496  0.874256  0.790195  2.253915  0.62  0.960681  0.867869  2.186731  0.703  0.733468  0.818196  0.70784  2.302932  0.545
Cu  Cu1  1  0.54327392  0.35368605  0.98608825  1  0.89102  -0.691386  1.853244  -0.496  0.874322  -0.790208  2.253894  -0.62  0.96066  -0.867873  2.186828  -0.703  0.733479  0.818196  -0.707834  2.302974  -0.545
Cu  Cu2  1  0.13282997  0.36071034  0.01216340  1  0.821702  -0.666792  1.90504  -0.477  0.796342  -0.765287  2.318892  -0.598  0.886767  -0.852154  2.246688  -0.687  0.74418  0.738467  -0.670746  2.370706  -0.514
Cu  Cu3  1  0.86716585  0.63929260  0.98783914  1  0.821725  0.666804  1.90501  0.477  0.796251  0.765299  2.31898  0.598  0.886792  0.852158  2.246606  0.687  0.744153  0.738425  0.670767  2.370723  0.514
H  H4  1  0.47073114  0.42309963  0.78604189  1  0.390979  0.00021  0.872286  0.0  0.380239  0.000115  0.930418  0.0  0.390432  0.000122  0.922567  0.0  0.293766  0.372866  0.000111  0.936084  0.0
H  H5  1  0.52927130  0.57689398  0.21395428  1  0.390928  -0.00021  0.872208  0.0  0.380174  -0.000116  0.930378  0.0  0.39037  -0.000122  0.922529  0.0  0.293739  0.372801  -0.000111  0.936039  0.0
H  H6  1  0.96501935  0.62720956  0.45750706  1  0.150714  0.000176  0.975462  0.0  0.156613  0.000167  1.040154  0.0  0.161009  0.000112  1.037449  0.0  0.1105  0.153096  0.000116  1.04227  0.0
H  H7  1  0.03498968  0.37279829  0.54250045  1  0.150701  -0.000176  0.975455  0.0  0.156634  -0.000167  1.04012  0.0  0.161005  -0.000112  1.037444  0.0  0.110507  0.153118  -0.000116  1.042235  0.0
H  H8  1  0.47756350  0.60707314  0.72051128  1  0.096695  0.000952  0.931835  0.002  0.108016  0.000751  0.986298  0.002  0.110685  0.000529  0.983356  0.001  0.125984  0.10576  0.000918  0.988929  0.002
H  H9  1  0.52244547  0.39293466  0.27949159  1  0.09663  -0.000953  0.931747  -0.002  0.107964  -0.000751  0.986213  -0.002  0.110619  -0.000528  0.98329  -0.001  0.12594  0.105701  -0.000918  0.988847  -0.002
H  H10  1  0.36467816  0.71589593  0.56632991  1  0.110224  0.000462  0.938114  0.001  0.122718  0.000414  0.990398  0.0  0.125012  0.000299  0.99106  0.0  0.113593  0.120806  0.000546  0.990441  0.001
H  H11  1  0.63532909  0.28410717  0.43367266  1  0.110225  -0.000461  0.938129  -0.001  0.122723  -0.000414  0.990407  -0.001  0.125016  -0.000299  0.99107  0.0  0.113612  0.120812  -0.000546  0.990448  -0.001
H  H12  1  0.22317070  0.92608508  0.66592810  1  0.112236  0.000229  0.93873  0.0  0.121785  -1e-06  0.997653  0.0  0.12499  -2.4e-05  0.994885  0.0  0.113651  0.119303  1.3e-05  1.000024  0.0
H  H13  1  0.77683095  0.07391321  0.33406982  1  0.112164  -0.00023  0.938724  0.0  0.12182  1e-06  0.997546  0.0  0.125027  2.4e-05  0.994775  0.0  0.113656  0.119343  -1.3e-05  0.999917  0.0
H  H14  1  0.18828469  0.00283293  0.90538866  1  0.128006  0.000783  0.946656  0.001  0.139724  0.000631  1.002353  0.001  0.142353  0.000455  1.001965  0.001  0.115956  0.137906  0.000747  1.00263  0.001
H  H15  1  0.81170930  0.99716174  0.09460844  1  0.128072  -0.000781  0.946783  -0.001  0.139781  -0.000631  1.002464  -0.001  0.14241  -0.000454  1.002075  -0.001  0.115969  0.137959  -0.000747  1.002753  -0.001
H  H16  1  0.17531505  0.06133982  0.11542968  1  0.125758  0.000541  0.971196  0.001  0.134541  0.000408  1.031626  0.001  0.138752  0.0003  1.029853  0.001  0.110319  0.131597  0.000516  1.033008  0.001
H  H17  1  0.82467079  0.93865000  0.88456049  1  0.125715  -0.000543  0.971206  -0.001  0.134484  -0.000408  1.031659  -0.001  0.138691  -0.0003  1.029888  -0.001  0.110318  0.131547  -0.000516  1.033029  -0.001
H  H18  1  0.17338759  0.11207275  0.35991278  1  0.119867  0.000231  0.93605  0.0  0.127801  -2.2e-05  0.995073  0.0  0.131861  -2.5e-05  0.991069  0.0  0.114135  0.124779  2e-06  0.998065  0.0
H  H19  1  0.82660557  0.88792656  0.64008143  1  0.119876  -0.000229  0.936023  0.0  0.127808  2.2e-05  0.995072  0.0  0.131866  2.6e-05  0.991064  0.0  0.114135  0.124786  -1e-06  0.998063  0.0
H  H20  1  0.29415616  0.95787596  0.46268191  1  0.120065  0.000623  0.960598  0.001  0.128017  0.000539  1.021985  0.001  0.130992  0.000395  1.021643  0.0  0.110948  0.125668  0.000621  1.022639  0.001
H  H21  1  0.70585195  0.04213297  0.53731851  1  0.120035  -0.000625  0.960564  -0.001  0.128013  -0.000539  1.021914  -0.001  0.130987  -0.000396  1.021572  0.0  0.110933  0.125657  -0.000621  1.022577  -0.001
H  H22  1  0.41968340  0.75850556  0.31517994  1  0.084287  0.000953  0.935997  0.002  0.095867  0.000731  0.993733  0.002  0.09779  0.000503  0.991674  0.002  0.121857  0.094073  0.000914  0.995789  0.002
H  H23  1  0.58031837  0.24149980  0.68482266  1  0.084233  -0.000953  0.936008  -0.002  0.095813  -0.000731  0.993746  -0.002  0.097737  -0.000503  0.991688  -0.002  0.121842  0.094021  -0.000914  0.995803  -0.002
C  C24  1  0.14735174  0.38359024  0.28397411  1  0.603185  0.004098  3.951132  0.007  0.563563  0.000661  4.250895  0.003  0.599428  0.00052  4.243414  0.002  0.196344  0.539028  0.000657  4.254557  0.003
C  C25  1  0.85263726  0.61641140  0.71602498  1  0.603429  -0.004104  3.950696  -0.007  0.563836  -0.000664  4.250431  -0.003  0.599701  -0.000522  4.242948  -0.002  0.19645  0.539301  -0.000656  4.254104  -0.003
C  C26  1  0.05610102  0.49492696  0.27182344  1  0.011974  0.001847  3.751017  0.002  0.015089  0.00091  4.008241  0.002  0.016026  0.001164  4.026419  0.002  0.068978  0.015023  0.001088  3.995584  0.002
C  C27  1  0.94390287  0.50507727  0.72818089  1  0.011901  -0.001841  3.751064  -0.002  0.014962  -0.000909  4.008337  -0.002  0.015897  -0.001164  4.026517  -0.002  0.068978  0.014899  -0.001088  3.995682  -0.002
C  C28  1  0.98003557  0.60175750  0.35314908  1  -0.173491  -0.000185  3.628485  0.0  -0.203662  -0.000125  3.879215  0.0  -0.205999  -0.000172  3.894571  0.0  -0.095063  -0.201335  0.000243  3.868404  0.0
C  C29  1  0.01997213  0.39824680  0.64685588  1  -0.173435  0.00018  3.628549  0.0  -0.203739  0.000126  3.879263  0.0  -0.206046  0.000174  3.894641  0.0  -0.095113  -0.201413  -0.000242  3.868453  0.0
C  C30  1  0.91530535  0.66019714  0.26264386  1  0.006259  -0.001131  3.78164  -0.002  0.007412  -0.000494  4.042766  -0.002  0.006631  -0.000499  4.062345  -0.002  0.066103  0.007798  -0.000743  4.03006  -0.002
C  C31  1  0.08470630  0.33981777  0.73736505  1  0.00603  0.001129  3.781809  0.002  0.007441  0.000495  4.042632  0.002  0.00665  0.000497  4.062216  0.002  0.066102  0.007827  0.000743  4.029929  0.002
C  C32  1  0.81808959  0.77122496  0.26436733  1  0.599859  -0.003963  3.955764  -0.006  0.560556  -0.000946  4.251002  -0.003  0.596647  -0.000798  4.242886  -0.002  0.194082  0.535963  -0.000916  4.255393  -0.003
C  C33  1  0.18191008  0.22878155  0.73563632  1  0.599817  0.00397  3.955714  0.006  0.560446  0.000944  4.250941  0.003  0.596545  0.0008  4.242811  0.002  0.193966  0.53585  0.000918  4.255318  0.003
C  C34  1  0.40828187  0.69124535  0.75612352  1  0.161499  -0.006203  3.661557  -0.007  0.133463  -0.001383  3.915341  -0.003  0.14485  -0.002227  3.931036  -0.004  0.062348  0.125672  -0.000684  3.905502  -0.002
C  C35  1  0.59172195  0.30875534  0.24387754  1  0.161625  0.006223  3.661381  0.007  0.133595  0.001383  3.915167  0.003  0.144991  0.002226  3.930863  0.004  0.062448  0.125806  0.000684  3.905313  0.002
C  C36  1  0.34734986  0.75535337  0.67183435  1  -0.100915  0.008209  3.699977  0.009  -0.112548  0.004159  3.946595  0.005  -0.120205  0.003728  3.967401  0.005  -0.069863  -0.107363  0.0043  3.932712  0.005
C  C37  1  0.65265263  0.24464377  0.32816417  1  -0.100939  -0.008234  3.699831  -0.009  -0.112569  -0.004159  3.946487  -0.005  -0.120225  -0.003728  3.96729  -0.005  -0.069857  -0.107386  -0.004301  3.932603  -0.005
C  C38  1  0.26749609  0.86874983  0.72572733  1  0.015299  -0.006933  3.674085  -0.007  -0.004069  -0.002875  3.924386  -0.003  0.001239  -0.002943  3.94016  -0.003  -0.05661  -0.007742  -0.002584  3.913737  -0.002
C  C39  1  0.73250544  0.13124140  0.27426591  1  0.015453  0.006957  3.673923  0.007  -0.004025  0.002876  3.924251  0.003  0.001285  0.002944  3.940021  0.003  -0.056623  -0.007703  0.002585  3.913606  0.002
C  C40  1  0.24785104  0.91260063  0.86120951  1  -0.113392  0.005125  3.652488  0.005  -0.134039  0.002435  3.898147  0.003  -0.140459  0.002266  3.917886  0.002  -0.070102  -0.129732  0.002448  3.884684  0.003
C  C41  1  0.75214202  0.08739163  0.13878187  1  -0.113544  -0.005152  3.652787  -0.005  -0.134146  -0.002433  3.898477  -0.003  -0.140567  -0.002267  3.918215  -0.002  -0.070101  -0.129837  -0.002447  3.885026  -0.003
C  C42  1  0.30846862  0.84210220  0.93934285  1  0.163823  -0.002388  3.772698  -0.003  0.161472  0.000402  4.018237  0.0  0.168249  -0.00057  4.041562  -0.001  0.112987  0.157021  0.001011  4.002478  0.001
C  C43  1  0.69152619  0.15789130  0.06065299  1  0.163864  0.002413  3.772671  0.003  0.161481  -0.000403  4.018329  0.0  0.16826  0.000572  4.041645  0.001  0.112937  0.157031  -0.001011  4.002559  -0.001
C  C44  1  0.29479982  0.87912402  0.08295597  1  0.159304  -0.003096  3.789574  -0.003  0.150674  -0.000206  4.048567  -0.001  0.158019  -0.001204  4.070919  -0.002  0.112499  0.145868  0.000599  4.034176  0.0
C  C45  1  0.70519544  0.12087068  0.91704135  1  0.159307  0.003066  3.789415  0.003  0.150574  0.000207  4.048626  0.001  0.15792  0.001203  4.070958  0.002  0.112555  0.145764  -0.000599  4.034224  0.0
C  C46  1  0.22326842  0.99145112  0.15900698  1  -0.136557  0.00486  3.681871  0.005  -0.159405  0.001948  3.940286  0.002  -0.167018  0.001803  3.958639  0.002  -0.073413  -0.154768  0.001959  3.929015  0.002
C  C47  1  0.77672594  0.00854118  0.84098646  1  -0.136612  -0.004823  3.681824  -0.005  -0.159388  -0.001949  3.940298  -0.002  -0.166999  -0.001803  3.958654  -0.002  -0.073499  -0.154754  -0.001959  3.92902  -0.002
C  C48  1  0.22321502  0.02108429  0.29708875  1  0.026403  -0.007337  3.656148  -0.007  0.007658  -0.003076  3.904384  -0.003  0.013816  -0.003177  3.918499  -0.003  -0.05546  0.002742  -0.002843  3.895893  -0.003
C  C49  1  0.77678111  0.97891274  0.70290779  1  0.026512  0.007305  3.656173  0.007  0.007715  0.003077  3.904446  0.003  0.013878  0.003175  3.918551  0.003  -0.055427  0.002795  0.002843  3.895951  0.003
C  C50  1  0.29309771  0.93656805  0.35515384  1  -0.115594  0.00846  3.689568  0.009  -0.127035  0.004383  3.936835  0.005  -0.135636  0.003891  3.958574  0.005  -0.07835  -0.12159  0.004456  3.922685  0.005
C  C51  1  0.70690397  0.06343027  0.64484686  1  -0.115614  -0.008433  3.689598  -0.009  -0.127023  -0.004384  3.936827  -0.005  -0.135622  -0.003889  3.958564  -0.005  -0.078329  -0.121579  -0.004456  3.922683  -0.005
C  C52  1  0.36212822  0.82593303  0.27374374  1  0.152638  -0.006159  3.683324  -0.007  0.120415  -0.001232  3.945738  -0.002  0.131183  -0.002079  3.963339  -0.003  0.051892  0.113436  -0.000596  3.934346  -0.002
C  C53  1  0.63787477  0.17406883  0.72625765  1  0.152685  0.006145  3.683213  0.007  0.120463  0.001233  3.945629  0.002  0.13123  0.002078  3.963215  0.003  0.051936  0.113479  0.000596  3.934228  0.002
N  N54  1  0.03472160  0.49294109  0.14322872  1  -0.229667  -0.079676  3.45395  -0.101  -0.207213  -0.061532  3.788692  -0.083  -0.232485  -0.05491  3.81528  -0.078  -0.287079  -0.192224  -0.060491  3.773786  -0.079
N  N55  1  0.96528189  0.50706548  0.85677556  1  -0.229601  0.079675  3.453978  0.101  -0.207084  0.061529  3.788714  0.083  -0.232368  0.054908  3.815298  0.078  -0.287024  -0.192103  0.06049  3.773801  0.079
N  N56  1  0.95107839  0.58998433  0.13736517  1  -0.243176  0.072224  3.47181  0.091  -0.222299  0.056329  3.81265  0.076  -0.247714  0.050627  3.838945  0.071  -0.289661  -0.206323  0.05527  3.797738  0.072
N  N57  1  0.04893070  0.41002704  0.86264468  1  -0.243062  -0.072211  3.471775  -0.091  -0.2223  -0.056327  3.812563  -0.076  -0.247701  -0.050624  3.838874  -0.071  -0.289651  -0.20632  -0.055266  3.797669  -0.072
N  N58  1  0.36293115  0.79794936  0.14107928  1  -0.342589  0.077996  3.338735  0.099  -0.306345  0.057389  3.652251  0.077  -0.337772  0.048481  3.671806  0.068  -0.351226  -0.286801  0.059396  3.640898  0.077
N  N59  1  0.63706376  0.20204771  0.85892169  1  -0.342563  -0.077979  3.338692  -0.099  -0.306351  -0.05739  3.652312  -0.077  -0.337757  -0.048479  3.671871  -0.068  -0.351285  -0.28679  -0.0594  3.640937  -0.077
N  N60  1  0.38958877  0.73383014  0.88660212  1  -0.346888  0.076255  3.331281  0.096  -0.304644  0.056005  3.630051  0.075  -0.336319  0.047369  3.650894  0.066  -0.350452  -0.284465  0.058239  3.617471  0.076
N  N61  1  0.61040861  0.26616691  0.11339369  1  -0.346946  -0.076276  3.331195  -0.096  -0.304706  -0.056006  3.629998  -0.075  -0.336366  -0.047372  3.650838  -0.066  -0.350493  -0.284508  -0.058245  3.617393  -0.076
O  O62  1  0.18467088  0.30181640  0.16687999  1  -0.610888  -0.079338  2.000104  -0.106  -0.586096  -0.05079  2.283539  -0.074  -0.627924  -0.040061  2.273739  -0.061  -0.343179  -0.557695  -0.054595  2.290118  -0.077
O  O63  1  0.81531944  0.69818530  0.83312302  1  -0.611009  0.079333  1.99986  0.106  -0.586176  0.050788  2.283235  0.074  -0.62802  0.040061  2.273421  0.061  -0.343254  -0.557784  0.054587  2.289813  0.077
O  O64  1  0.18371000  0.37123799  0.39517603  1  -0.566373  -0.009489  1.901671  -0.012  -0.528022  -0.00523  2.111596  -0.007  -0.551475  -0.002856  2.104269  -0.004  -0.312115  -0.509875  -0.008442  2.115375  -0.011
O  O65  1  0.81627937  0.62876128  0.60482033  1  -0.566477  0.009491  1.901599  0.012  -0.528143  0.005231  2.111541  0.007  -0.551604  0.002855  2.104215  0.004  -0.312138  -0.509995  0.00844  2.115323  0.011
O  O66  1  0.54178448  0.48326084  0.89039423  1  -0.86322  -0.005311  1.950188  -0.006  -0.868433  -0.003167  2.275435  -0.004  -0.927554  -0.00243  2.252625  -0.003  -0.587157  -0.827538  -0.00337  2.292404  -0.004
O  O67  1  0.45821668  0.51673275  0.10960174  1  -0.863137  0.005311  1.949995  0.006  -0.868363  0.00317  2.275352  0.004  -0.927427  0.00243  2.252443  0.003  -0.587133  -0.827468  0.003369  2.292317  0.004
O  O68  1  0.76701170  0.84153674  0.36746319  1  -0.569159  0.007946  1.910055  0.01  -0.528254  0.004722  2.125759  0.006  -0.550322  0.002616  2.116996  0.004  -0.310214  -0.512181  0.006432  2.131104  0.008
O  O69  1  0.23298834  0.15846393  0.63254003  1  -0.569109  -0.007952  1.909923  -0.01  -0.5282  -0.004721  2.125637  -0.006  -0.550265  -0.002612  2.11687  -0.004  -0.310183  -0.512128  -0.006435  2.13098  -0.008
O  O70  1  0.78549701  0.78293791  0.14543317  1  -0.639921  0.068624  2.044077  0.093  -0.614126  0.046179  2.342995  0.068  -0.656564  0.036109  2.330993  0.056  -0.343615  -0.585402  0.049761  2.351357  0.071
O  O71  1  0.21449871  0.21705798  0.85456561  1  -0.639893  -0.068634  2.044068  -0.093  -0.614122  -0.046181  2.342983  -0.068  -0.656536  -0.036112  2.330984  -0.056  -0.343572  -0.585386  -0.049773  2.351342  -0.071
