# generated using pymatgen
data_CoHC4O3
_symmetry_space_group_name_H-M   'P 1'
_cell_length_a   6.77183301
_cell_length_b   15.25011192
_cell_length_c   15.25420937
_cell_angle_alpha   117.84940620
_cell_angle_beta   98.52892740
_cell_angle_gamma   98.50047392
_symmetry_Int_Tables_number   1
_chemical_formula_structural   CoHC4O3
_chemical_formula_sum   'Co6 H6 C24 O18'
_cell_volume   1334.32895903
_cell_formula_units_Z   6
loop_
 _symmetry_equiv_pos_site_id
 _symmetry_equiv_pos_as_xyz
  1  'x, y, z'
loop_
 _atom_site_type_symbol
 _atom_site_label
 _atom_site_symmetry_multiplicity
 _atom_site_fract_x
 _atom_site_fract_y
 _atom_site_fract_z
 _atom_site_occupancy
 _atom_site_hle17_ddec_charge
 _atom_site_hle17_ddec_spin_density
 _atom_site_hle17_ddec_sum_bond_order
 _atom_site_hle17_magmom
 _atom_site_hse06_10hf_bader_charge
 _atom_site_hse06_10hf_bader_spin_density
 _atom_site_hse06_10hf_ddec_charge
 _atom_site_hse06_10hf_ddec_spin_density
 _atom_site_hse06_10hf_ddec_sum_bond_order
 _atom_site_hse06_10hf_magmom
 _atom_site_hse06_ddec_charge
 _atom_site_hse06_ddec_spin_density
 _atom_site_hse06_ddec_sum_bond_order
 _atom_site_hse06_magmom
 _atom_site_pbe_cm5_charge
 _atom_site_pbe_ddec_charge
 _atom_site_pbe_ddec_spin_density
 _atom_site_pbe_ddec_sum_bond_order
 _atom_site_pbe_magmom
Co  Co0  1  0.21064321  0.32824276  0.72839183  1  1.052828  2.791826  1.938288  2.526  1.324478  2.652827  1.041172  2.822405  2.340775  2.61  1.136062  2.868177  2.252646  2.698  0.65771  0.949108  2.777036  2.429384  2.524
Co  Co1  1  0.88264708  0.40035970  0.67189442  1  1.05362  2.793183  1.936838  2.526  1.32512  2.652258  1.041511  2.822703  2.339672  2.61  1.136437  2.868621  2.251561  2.698  0.658032  0.950099  2.777544  2.42776  2.524
Co  Co2  1  0.48216068  0.27152113  0.59975918  1  1.054478  2.79314  1.937056  2.526  1.329359  2.652915  1.0426  2.823138  2.339553  2.61  1.137375  2.868724  2.25145  2.698  0.658314  0.950596  2.777322  2.428092  2.524
Co  Co3  1  0.78935761  0.67175863  0.27161282  1  1.052986  2.792038  1.938363  2.526  1.324735  2.652814  1.041117  2.822412  2.340919  2.61  1.135993  2.86817  2.252801  2.698  0.657745  0.949137  2.77683  2.429579  2.524
Co  Co4  1  0.11735187  0.59964092  0.32810909  1  1.053698  2.793259  1.936861  2.526  1.32514  2.652264  1.041519  2.822717  2.339706  2.61  1.136441  2.868624  2.251594  2.698  0.658003  0.95008  2.77799  2.427716  2.524
Co  Co5  1  0.51783524  0.72847642  0.40024401  1  1.054242  2.792898  1.936985  2.526  1.329275  2.652909  1.042559  2.82312  2.339425  2.61  1.137349  2.86873  2.25132  2.698  0.658312  0.95056  2.777125  2.428016  2.524
H  H6  1  0.64815808  0.46851366  0.02391514  1  0.133167  -0.000887  0.936158  -0.001  0.15097  0.000611  0.141213  1.9e-05  0.996962  0.0  0.14458  -9.4e-05  0.995277  0.0  0.113161  0.139232  0.000119  0.997705  0.0
H  H7  1  0.17962577  0.55543591  0.53143856  1  0.132652  -0.00089  0.936708  -0.001  0.126767  0.000643  0.140616  1.9e-05  0.997587  0.0  0.143933  -9.4e-05  0.995988  0.0  0.113157  0.138645  0.000126  0.998337  0.0
H  H8  1  0.62416951  0.97602257  0.44452006  1  0.132619  -0.000888  0.936404  -0.001  0.15666  0.000609  0.140258  2e-05  0.997785  0.0  0.143589  -9.3e-05  0.996163  0.0  0.112925  0.138304  0.000123  0.998527  0.0
H  H9  1  0.35185252  0.53149232  0.97608837  1  0.133277  -0.000896  0.936047  -0.001  0.150996  0.000611  0.141256  1.9e-05  0.996929  0.0  0.14462  -9.4e-05  0.995246  0.0  0.113162  0.139277  0.000128  0.997675  0.0
H  H10  1  0.82037307  0.44455552  0.46856000  1  0.132657  -0.000874  0.936585  -0.001  0.126841  0.000643  0.140563  1.9e-05  0.997552  0.0  0.143883  -9.4e-05  0.99595  0.0  0.11311  0.138596  0.00012  0.998301  0.0
H  H11  1  0.37582611  0.02397728  0.55547370  1  0.132579  -0.000877  0.936528  -0.001  0.156779  0.000608  0.140327  1.9e-05  0.997787  0.0  0.143661  -9.3e-05  0.996156  0.0  0.112907  0.138356  0.000118  0.998519  0.0
C  C12  1  0.64267216  0.39368810  0.82871663  1  0.701609  -0.021647  3.80011  -0.014  1.535552  -0.000145  0.664055  -0.002066  4.084596  0.0  0.709429  -0.00046  4.07067  0.001  0.229403  0.629139  -0.006592  4.093743  -0.003
C  C13  1  0.24923060  0.43517945  0.60642873  1  0.699914  -0.021522  3.805481  -0.014  1.529392  -0.000185  0.665813  -0.002124  4.085123  0.0  0.711169  -0.000471  4.071205  0.001  0.229937  0.630959  -0.006713  4.094249  -0.003
C  C14  1  0.81393306  0.17128447  0.56491453  1  0.703473  -0.021826  3.79686  -0.014  1.523444  -0.00019  0.666304  -0.002158  4.081038  0.0  0.71166  -0.00048  4.067042  0.001  0.229451  0.631349  -0.006613  4.090322  -0.003
C  C15  1  0.35733618  0.60631635  0.17128798  1  0.701614  -0.021643  3.800254  -0.014  1.535766  -0.000146  0.6641  -0.002067  4.084724  0.0  0.709473  -0.000461  4.070792  0.001  0.229442  0.62921  -0.006612  4.093882  -0.003
C  C16  1  0.75077203  0.56481657  0.39357354  1  0.699765  -0.021551  3.805352  -0.014  1.529669  -0.000184  0.665705  -0.002123  4.0849  0.0  0.711063  -0.000469  4.070985  0.001  0.229922  0.630842  -0.006689  4.094005  -0.003
C  C17  1  0.18605995  0.82871615  0.43508073  1  0.703063  -0.021826  3.797136  -0.014  1.523213  -0.00019  0.665842  -0.002159  4.081371  0.0  0.711205  -0.000479  4.067368  0.001  0.22922  0.630887  -0.006615  4.090665  -0.003
C  C18  1  0.82853111  0.44869358  0.91452638  1  -0.161304  0.008838  3.735818  0.013  -0.040462  0.015337  -0.149282  0.007614  3.979153  0.011  -0.163451  0.005085  4.004177  0.008  -0.026069  -0.139423  0.010213  3.962317  0.014
C  C19  1  0.38002905  0.46594801  0.55140472  1  -0.161822  0.008722  3.736171  0.013  -0.01116  0.015276  -0.151608  0.007604  3.979535  0.011  -0.165755  0.00507  4.004477  0.008  -0.026046  -0.141724  0.010226  3.962669  0.014
C  C20  1  0.91400305  0.08548750  0.53416755  1  -0.163412  0.008846  3.734696  0.013  -0.001492  0.015173  -0.151778  0.007573  3.978564  0.011  -0.16588  0.005058  4.003451  0.008  -0.025973  -0.141924  0.010232  3.961811  0.014
C  C21  1  0.17147351  0.55131239  0.08547870  1  -0.161152  0.008786  3.73583  0.013  -0.040295  0.01533  -0.149225  0.00761  3.979243  0.011  -0.163387  0.005083  4.004258  0.008  -0.026011  -0.139361  0.01023  3.962394  0.014
C  C22  1  0.61995753  0.53404877  0.44859684  1  -0.161734  0.008751  3.736023  0.013  -0.011223  0.015287  -0.151455  0.00761  3.979258  0.011  -0.165606  0.005073  4.004208  0.008  -0.026045  -0.141568  0.010229  3.962385  0.014
C  C23  1  0.08599826  0.91451771  0.46582319  1  -0.163324  0.008882  3.734535  0.013  -0.001468  0.015174  -0.151647  0.007573  3.978375  0.011  -0.165739  0.005059  4.003239  0.008  -0.025957  -0.141794  0.010223  3.961633  0.014
C  C24  1  0.03117471  0.46600203  0.89939163  1  0.339896  0.007487  3.804608  0.005  0.563776  0.006786  0.325318  0.004788  4.082455  0.004  0.341039  0.002599  4.104373  0.003  0.081687  0.315108  0.009321  4.0626  0.008
C  C25  1  0.56532318  0.43341233  0.53406316  1  0.339836  0.007117  3.805513  0.005  0.605009  0.006643  0.326631  0.004754  4.082063  0.004  0.342364  0.002573  4.103901  0.003  0.081456  0.316414  0.00928  4.062269  0.008
C  C26  1  0.13177279  0.10062583  0.56667921  1  0.339264  0.007491  3.803846  0.005  0.61685  0.006546  0.324987  0.004738  4.08171  0.004  0.340707  0.002539  4.103569  0.003  0.080498  0.314797  0.009302  4.061879  0.008
C  C27  1  0.96883029  0.53400164  0.10060520  1  0.339859  0.007537  3.804558  0.005  0.563259  0.006796  0.325306  0.004793  4.082436  0.004  0.341026  0.002602  4.104349  0.003  0.08168  0.31508  0.009308  4.062591  0.008
C  C28  1  0.43467871  0.56658216  0.46593180  1  0.339973  0.007103  3.805464  0.005  0.605312  0.006637  0.326745  0.004751  4.081994  0.004  0.342482  0.002572  4.103822  0.003  0.081537  0.316528  0.00928  4.06221  0.008
C  C29  1  0.86821350  0.89937326  0.43331226  1  0.339279  0.007453  3.803633  0.005  0.612844  0.006554  0.324995  0.004737  4.081444  0.004  0.340712  0.002538  4.103304  0.003  0.080553  0.314807  0.009308  4.061626  0.008
C  C30  1  0.80300871  0.48272226  0.01366094  1  -0.150459  0.016969  3.682433  0.021  0.018618  0.016013  -0.190564  0.008195  3.944484  0.011  -0.195833  0.004498  3.96747  0.006  -0.091877  -0.185379  0.013167  3.926848  0.016
C  C31  1  0.32031143  0.53099857  0.51727619  1  -0.150275  0.016831  3.681801  0.021  -0.021418  0.01606  -0.190142  0.008172  3.944114  0.011  -0.195366  0.004504  3.96703  0.006  -0.092114  -0.185042  0.013125  3.926555  0.016
C  C32  1  0.78933954  0.98632131  0.46900124  1  -0.147745  0.016979  3.678738  0.021  -0.073645  0.016211  -0.187511  0.008203  3.940983  0.011  -0.192771  0.004521  3.963938  0.006  -0.090531  -0.182383  0.013185  3.923391  0.016
C  C33  1  0.19699966  0.51728525  0.98634642  1  -0.150635  0.017033  3.682226  0.021  0.018435  0.016014  -0.190658  0.008195  3.944324  0.011  -0.195924  0.004496  3.96731  0.006  -0.091866  -0.185474  0.01317  3.926676  0.016
C  C34  1  0.67968514  0.46899133  0.48272413  1  -0.150206  0.016796  3.681629  0.021  -0.021847  0.016073  -0.19006  0.008178  3.943941  0.011  -0.195293  0.004509  3.96687  0.006  -0.092007  -0.184951  0.01313  3.926377  0.016
C  C35  1  0.21065763  0.01368160  0.53098946  1  -0.147733  0.016926  3.679008  0.021  -0.077848  0.016218  -0.187602  0.008201  3.941201  0.011  -0.192861  0.004519  3.964146  0.006  -0.090479  -0.182463  0.013184  3.923591  0.016
O  O36  1  0.46395620  0.37699899  0.84313976  1  -0.591852  0.035967  2.03256  0.063  -1.175068  0.060081  -0.555513  0.030706  2.287557  0.048  -0.591134  0.0236  2.267764  0.037  -0.297969  -0.527789  0.03644  2.304443  0.057
O  O37  1  0.08743542  0.46648608  0.62330030  1  -0.590994  0.03582  2.032511  0.062  -1.173545  0.059877  -0.555845  0.030557  2.285939  0.047  -0.591405  0.023478  2.266134  0.037  -0.298163  -0.52823  0.036317  2.302823  0.057
O  O38  1  0.62070725  0.15680828  0.53383177  1  -0.592943  0.035906  2.030905  0.063  -1.157612  0.06012  -0.556669  0.030655  2.285985  0.048  -0.592295  0.023553  2.266162  0.037  -0.297991  -0.529005  0.036358  2.303031  0.057
O  O39  1  0.53604838  0.62300392  0.15686455  1  -0.591911  0.035963  2.032727  0.063  -1.175131  0.060076  -0.55558  0.030706  2.287729  0.048  -0.591195  0.023602  2.267931  0.037  -0.298005  -0.527857  0.036432  2.304653  0.057
O  O40  1  0.91256944  0.53350841  0.37669813  1  -0.591  0.035825  2.032677  0.062  -1.173626  0.059884  -0.555858  0.030561  2.286074  0.047  -0.591417  0.023481  2.266263  0.037  -0.298167  -0.528247  0.03632  2.302923  0.057
O  O41  1  0.37929329  0.84319540  0.46616017  1  -0.592793  0.035903  2.030994  0.063  -1.157321  0.06012  -0.556492  0.030654  2.286068  0.048  -0.592125  0.023552  2.266247  0.037  -0.297874  -0.528816  0.03635  2.303115  0.057
O  O42  1  0.66892005  0.36219499  0.73761148  1  -0.677035  0.062043  2.39273  0.128  -1.195748  0.106782  -0.64445  0.053348  2.695182  0.098  -0.69308  0.041709  2.671294  0.077  -0.320225  -0.600075  0.064782  2.712218  0.12
O  O43  1  0.30664303  0.37529544  0.63766202  1  -0.67636  0.062271  2.396732  0.128  -1.198109  0.107137  -0.644834  0.053535  2.697947  0.098  -0.69347  0.041856  2.674021  0.077  -0.320561  -0.600492  0.06492  2.715184  0.12
O  O44  1  0.93131101  0.26241976  0.62442399  1  -0.677182  0.061933  2.394615  0.128  -1.198032  0.106711  -0.644674  0.053328  2.69709  0.098  -0.693305  0.041701  2.673187  0.077  -0.320095  -0.600221  0.064788  2.714113  0.12
O  O45  1  0.33108113  0.63780409  0.26238885  1  -0.676971  0.062037  2.392751  0.128  -1.195779  0.10678  -0.644388  0.053346  2.695172  0.098  -0.693019  0.041708  2.671285  0.077  -0.320205  -0.600024  0.06477  2.712225  0.12
O  O46  1  0.69335929  0.62470594  0.36234208  1  -0.676381  0.062292  2.396538  0.128  -1.198206  0.107145  -0.644888  0.053538  2.697764  0.098  -0.693529  0.041858  2.673841  0.077  -0.320595  -0.600542  0.064911  2.71501  0.12
O  O47  1  0.06867704  0.73757703  0.37558291  1  -0.677036  0.061935  2.394601  0.128  -1.19811  0.106716  -0.644494  0.05333  2.697067  0.098  -0.693128  0.041702  2.673165  0.077  -0.320042  -0.600053  0.064781  2.7141  0.12
O  O48  1  0.07250094  0.43700855  0.80731854  1  -0.647063  0.098889  2.230201  0.174  -1.18256  0.141981  -0.632458  0.07469  2.546414  0.121  -0.688149  0.054532  2.534244  0.087  -0.346133  -0.580591  0.095233  2.552819  0.155
O  O49  1  0.63570916  0.37037849  0.56313716  1  -0.64754  0.098388  2.231616  0.173  -1.186386  0.141897  -0.632499  0.074699  2.547235  0.121  -0.688132  0.054585  2.535041  0.087  -0.345865  -0.580736  0.095252  2.553651  0.155
O  O50  1  0.26518161  0.19271860  0.62983415  1  -0.647483  0.099005  2.230301  0.174  -1.186388  0.142009  -0.632743  0.074882  2.546326  0.121  -0.688414  0.054708  2.534162  0.087  -0.346274  -0.580856  0.095517  2.552714  0.155
O  O51  1  0.92750555  0.56299819  0.19268834  1  -0.647076  0.098932  2.229911  0.174  -1.182581  0.142028  -0.632466  0.074712  2.54612  0.121  -0.688167  0.054546  2.533949  0.087  -0.346109  -0.580577  0.09526  2.552511  0.155
O  O52  1  0.36428818  0.62961294  0.43686131  1  -0.647552  0.098354  2.231616  0.173  -1.186289  0.141871  -0.632522  0.074688  2.547251  0.121  -0.68815  0.054578  2.535049  0.087  -0.345856  -0.58077  0.095254  2.553667  0.155
O  O53  1  0.73481888  0.80728507  0.37016959  1  -0.647369  0.098976  2.230346  0.174  -1.186912  0.141987  -0.632607  0.074864  2.546343  0.121  -0.688272  0.054695  2.534185  0.087  -0.346221  -0.580742  0.095461  2.552785  0.155
