# generated using pymatgen
data_AgHC4ClO2
_symmetry_space_group_name_H-M   'P 1'
_cell_length_a   6.24632179
_cell_length_b   10.81605485
_cell_length_c   14.74972167
_cell_angle_alpha   92.98926906
_cell_angle_beta   89.99991600
_cell_angle_gamma   90.00000692
_symmetry_Int_Tables_number   1
_chemical_formula_structural   AgHC4ClO2
_chemical_formula_sum   'Ag8 H8 C32 Cl8 O16'
_cell_volume   995.14352495
_cell_formula_units_Z   8
loop_
 _symmetry_equiv_pos_site_id
 _symmetry_equiv_pos_as_xyz
  1  'x, y, z'
loop_
 _atom_site_type_symbol
 _atom_site_label
 _atom_site_symmetry_multiplicity
 _atom_site_fract_x
 _atom_site_fract_y
 _atom_site_fract_z
 _atom_site_occupancy
 _atom_site_hle17_bader_spin_density
 _atom_site_hle17_ddec_charge
 _atom_site_hle17_ddec_spin_density
 _atom_site_hle17_ddec_sum_bond_order
 _atom_site_hle17_magmom
 _atom_site_hse06_10hf_bader_spin_density
 _atom_site_hse06_10hf_ddec_charge
 _atom_site_hse06_10hf_ddec_spin_density
 _atom_site_hse06_10hf_ddec_sum_bond_order
 _atom_site_hse06_10hf_magmom
 _atom_site_hse06_bader_spin_density
 _atom_site_hse06_ddec_charge
 _atom_site_hse06_ddec_spin_density
 _atom_site_hse06_ddec_sum_bond_order
 _atom_site_hse06_magmom
 _atom_site_pbe_bader_spin_density
 _atom_site_pbe_cm5_charge
 _atom_site_pbe_ddec_charge
 _atom_site_pbe_ddec_spin_density
 _atom_site_pbe_ddec_sum_bond_order
 _atom_site_pbe_magmom
Ag  Ag0  1  0.04867246  0.29923375  0.55346902  1  0  0.635589  0  1.416911  0  0  0.524391  0  1.869422  0  0  0.55694  0  1.808978  0  0  0.431533  0.502344  0  1.911264  0
Ag  Ag1  1  0.54866932  0.20076318  0.44652114  1  0  0.635537  0  1.416998  0  0  0.52435  0  1.869516  0  0  0.556894  0  1.809079  0  0  0.431536  0.502303  0  1.911364  0
Ag  Ag2  1  0.95133173  0.70076606  0.44652973  1  0  0.635569  0  1.416883  0  0  0.524362  0  1.869398  0  0  0.556912  0  1.808959  0  0  0.431522  0.502319  0  1.911242  0
Ag  Ag3  1  0.45132847  0.79924123  0.55347638  1  0  0.635568  0  1.416927  0  0  0.524386  0  1.869449  0  0  0.556932  0  1.809014  0  0  0.431542  0.502343  0  1.911297  0
Ag  Ag4  1  0.66837307  0.44335302  0.58341489  1  0  0.624031  0  1.351978  0  0  0.510713  0  1.793041  0  0  0.545933  0  1.73446  0  0  0.425116  0.485698  0  1.834046  0
Ag  Ag5  1  0.16836720  0.05665328  0.41658021  1  0  0.624049  0  1.35199  0  0  0.510759  0  1.793094  0  0  0.545987  0  1.734479  0  0  0.425137  0.485747  0  1.834099  0
Ag  Ag6  1  0.33162952  0.55664958  0.41658461  1  0  0.62404  0  1.351988  0  0  0.510726  0  1.79308  0  0  0.545926  0  1.734522  0  0  0.425118  0.485717  0  1.834078  0
Ag  Ag7  1  0.83163539  0.94335124  0.58342410  1  0  0.62402  0  1.352002  0  0  0.510727  0  1.793089  0  0  0.545947  0  1.73449  0  0  0.425125  0.485714  0  1.834095  0
H  H8  1  0.19158970  0.88971263  0.72448237  1  0  0.137788  0  0.954101  0  0  0.142792  0  1.020924  0  0  0.147233  0  1.017372  0  0  0.106968  0.139547  0  1.023668  0
H  H9  1  0.69158717  0.61029082  0.27552042  1  0  0.137839  0  0.953983  0  0  0.142865  0  1.020777  0  0  0.147316  0  1.017227  0  0  0.10695  0.13961  0  1.023527  0
H  H10  1  0.80840968  0.11029183  0.27551787  1  0  0.13783  0  0.953976  0  0  0.142842  0  1.0208  0  0  0.147288  0  1.017251  0  0  0.106945  0.13959  0  1.023545  0
H  H11  1  0.30841702  0.38970806  0.72447830  1  0  0.137858  0  0.953927  0  0  0.142827  0  1.020797  0  0  0.147276  0  1.017254  0  0  0.106966  0.139579  0  1.023526  0
H  H12  1  0.82304779  0.12711703  0.84444458  1  0  0.115436  0  0.954161  0  0  0.121104  0  1.02327  0  0  0.124687  0  1.021154  0  0  0.098799  0.11855  0  1.024946  0
H  H13  1  0.32305375  0.37290062  0.15556297  1  0  0.115468  0  0.954096  0  0  0.121176  0  1.023135  0  0  0.12476  0  1.021014  0  0  0.098832  0.11862  0  1.024815  0
H  H14  1  0.17695000  0.87287923  0.15556356  1  0  0.115411  0  0.954205  0  0  0.121077  0  1.023288  0  0  0.124652  0  1.021172  0  0  0.098792  0.118523  0  1.024968  0
H  H15  1  0.67694244  0.62709552  0.84443770  1  0  0.115438  0  0.954062  0  0  0.121124  0  1.023123  0  0  0.124703  0  1.021001  0  0  0.098802  0.11857  0  1.024797  0
C  C16  1  0.42772210  0.90941983  0.83008550  1  0  0.077134  0  3.779614  0  0  0.081925  0  4.051153  0  0  0.082639  0  4.071923  0  0  0.005015  0.080876  0  4.037448  0
C  C17  1  0.92771511  0.59058263  0.16990828  1  0  0.077235  0  3.779738  0  0  0.081985  0  4.051328  0  0  0.082677  0  4.07213  0  0  0.0051  0.080942  0  4.037609  0
C  C18  1  0.57227729  0.09057998  0.16991324  1  0  0.077192  0  3.779797  0  0  0.081959  0  4.051448  0  0  0.082672  0  4.072218  0  0  0.005044  0.080908  0  4.037731  0
C  C19  1  0.07227948  0.40941248  0.83008626  1  0  0.077186  0  3.779352  0  0  0.081819  0  4.051094  0  0  0.082532  0  4.071861  0  0  0.005021  0.080775  0  4.037374  0
C  C20  1  0.33149438  0.94166627  0.74943001  1  0  -0.114482  0  3.699535  0  0  -0.147067  0  3.956164  0  0  -0.145536  0  3.972307  0  0  -0.091279  -0.147969  0  3.945448  0
C  C21  1  0.83149196  0.55833805  0.25056592  1  0  -0.114525  0  3.699876  0  0  -0.147194  0  3.956343  0  0  -0.145686  0  3.972533  0  0  -0.091291  -0.148089  0  3.945614  0
C  C22  1  0.66850661  0.05833724  0.25056884  1  0  -0.11454  0  3.699578  0  0  -0.147099  0  3.956109  0  0  -0.145591  0  3.972285  0  0  -0.091265  -0.147988  0  3.94538  0
C  C23  1  0.16850423  0.44166078  0.74942940  1  0  -0.114395  0  3.699663  0  0  -0.146984  0  3.956188  0  0  -0.145467  0  3.972347  0  0  -0.091243  -0.147879  0  3.945461  0
C  C24  1  0.41269134  0.04013163  0.70171564  1  0  -0.102003  0  3.781896  0  0  -0.086543  0  4.02567  0  0  -0.095561  0  4.046696  0  0  -0.028247  -0.080546  0  4.011777  0
C  C25  1  0.91269491  0.45987009  0.29827781  1  0  -0.10229  0  3.782052  0  0  -0.086521  0  4.025448  0  0  -0.095535  0  4.04647  0  0  -0.028192  -0.080518  0  4.011545  0
C  C26  1  0.58731125  0.95987005  0.29828452  1  0  -0.101973  0  3.78174  0  0  -0.086376  0  4.025558  0  0  -0.095385  0  4.046589  0  0  -0.028211  -0.08038  0  4.01166  0
C  C27  1  0.08730288  0.54012972  0.70172094  1  0  -0.102397  0  3.782165  0  0  -0.08664  0  4.02558  0  0  -0.095655  0  4.046607  0  0  -0.028209  -0.080643  0  4.011684  0
C  C28  1  0.58768865  0.10972089  0.73730722  1  0  -0.021116  0  3.698662  0  0  -0.010225  0  3.937295  0  0  -0.010876  0  3.954735  0  0  -0.006877  -0.009978  0  3.925762  0
C  C29  1  0.08769426  0.39027974  0.26268234  1  0  -0.020906  0  3.69886  0  0  -0.010052  0  3.937175  0  0  -0.0107  0  3.954605  0  0  -0.006909  -0.009804  0  3.925642  0
C  C30  1  0.41231554  0.89027530  0.26269684  1  0  -0.021075  0  3.69877  0  0  -0.010425  0  3.937644  0  0  -0.011104  0  3.955132  0  0  -0.006858  -0.010176  0  3.926115  0
C  C31  1  0.91230192  0.60971817  0.73731364  1  0  -0.02068  0  3.698778  0  0  -0.009901  0  3.937251  0  0  -0.010563  0  3.954695  0  0  -0.006826  -0.009666  0  3.92573  0
C  C32  1  0.68362179  0.07681754  0.81779201  1  0  -0.117769  0  3.686069  0  0  -0.149582  0  3.9401  0  0  -0.152123  0  3.956804  0  0  -0.090633  -0.148337  0  3.929474  0
C  C33  1  0.18362764  0.42319063  0.18220382  1  0  -0.11779  0  3.686232  0  0  -0.149724  0  3.940352  0  0  -0.152265  0  3.957047  0  0  -0.090659  -0.148483  0  3.929734  0
C  C34  1  0.31637920  0.92317683  0.18221336  1  0  -0.117832  0  3.685983  0  0  -0.14951  0  3.94011  0  0  -0.152031  0  3.95681  0  0  -0.090672  -0.148271  0  3.929485  0
C  C35  1  0.81636695  0.57680635  0.81779145  1  0  -0.117853  0  3.686096  0  0  -0.149728  0  3.940229  0  0  -0.152251  0  3.95692  0  0  -0.09065  -0.148483  0  3.929605  0
C  C36  1  0.60832271  0.97528358  0.86310657  1  0  0.109981  0  3.78235  0  0  0.110117  0  4.057933  0  0  0.115308  0  4.076917  0  0  0.015449  0.106559  0  4.045473  0
C  C37  1  0.10832256  0.52471794  0.13689282  1  0  0.110056  0  3.78237  0  0  0.110212  0  4.057944  0  0  0.115413  0  4.076928  0  0  0.015478  0.106655  0  4.045483  0
C  C38  1  0.39167668  0.02470981  0.13689605  1  0  0.110064  0  3.782091  0  0  0.110091  0  4.05783  0  0  0.115285  0  4.076807  0  0  0.015475  0.106545  0  4.045355  0
C  C39  1  0.89167203  0.47527534  0.86310302  1  0  0.110083  0  3.782163  0  0  0.1103  0  4.057729  0  0  0.115493  0  4.076702  0  0  0.015484  0.106747  0  4.045263  0
C  C40  1  0.32498706  0.06914716  0.61148676  1  0  0.638945  0  3.892962  0  0  0.582189  0  4.175605  0  0  0.619434  0  4.16974  0  0  0.195135  0.556282  0  4.179304  0
C  C41  1  0.82497755  0.43085371  0.38851283  1  0  0.638904  0  3.892522  0  0  0.581939  0  4.175353  0  0  0.619189  0  4.169483  0  0  0.19494  0.556028  0  4.179053  0
C  C42  1  0.67502193  0.93085548  0.38851546  1  0  0.638919  0  3.89276  0  0  0.582013  0  4.175621  0  0  0.61926  0  4.169753  0  0  0.195014  0.556109  0  4.179311  0
C  C43  1  0.17501704  0.56914705  0.61148730  1  0  0.638913  0  3.892612  0  0  0.582022  0  4.175348  0  0  0.619271  0  4.169474  0  0  0.194984  0.556125  0  4.179036  0
C  C44  1  0.68961909  0.20841388  0.68309563  1  0  0.668308  0  3.889188  0  0  0.615419  0  4.172973  0  0  0.651091  0  4.168112  0  0  0.207206  0.591111  0  4.174982  0
C  C45  1  0.18960859  0.29158692  0.31690269  1  0  0.6677  0  3.889512  0  0  0.615038  0  4.172888  0  0  0.650711  0  4.168034  0  0  0.207172  0.590723  0  4.174906  0
C  C46  1  0.31038030  0.79158874  0.31690591  1  0  0.668226  0  3.889132  0  0  0.615413  0  4.172908  0  0  0.651091  0  4.168041  0  0  0.207154  0.591095  0  4.174937  0
C  C47  1  0.81039080  0.70841017  0.68310005  1  0  0.66771  0  3.889517  0  0  0.615013  0  4.172989  0  0  0.650686  0  4.168139  0  0  0.207102  0.590706  0  4.175001  0
Cl  Cl48  1  0.32617588  0.78703501  0.88666901  1  0  -0.064614  0  1.413832  0  0  -0.052604  0  1.653546  0  0  -0.05606  0  1.649409  0  0  0.005904  -0.050172  0  1.656608  0
Cl  Cl49  1  0.82615619  0.71296374  0.11332609  1  0  -0.064605  0  1.413865  0  0  -0.052597  0  1.653612  0  0  -0.056034  0  1.649471  0  0  0.005917  -0.050174  0  1.656667  0
Cl  Cl50  1  0.67381230  0.21296389  0.11333039  1  0  -0.064608  0  1.413926  0  0  -0.052578  0  1.653661  0  0  -0.056027  0  1.649519  0  0  0.005922  -0.05015  0  1.656723  0
Cl  Cl51  1  0.17384960  0.28702953  0.88666907  1  0  -0.064654  0  1.413656  0  0  -0.052605  0  1.653454  0  0  -0.056059  0  1.649319  0  0  0.005903  -0.050181  0  1.656514  0
Cl  Cl52  1  0.74664878  0.92963432  0.95598680  1  0  -0.067432  0  1.458655  0  0  -0.056727  0  1.706704  0  0  -0.060345  0  1.701671  0  0  0.009125  -0.053976  0  1.710225  0
Cl  Cl53  1  0.24664890  0.57037842  0.04401691  1  0  -0.067495  0  1.458601  0  0  -0.056796  0  1.706643  0  0  -0.060413  0  1.701606  0  0  0.009055  -0.054054  0  1.710162  0
Cl  Cl54  1  0.25333620  0.07035721  0.04401510  1  0  -0.067514  0  1.45852  0  0  -0.056764  0  1.706603  0  0  -0.060381  0  1.701568  0  0  0.009084  -0.054018  0  1.710121  0
Cl  Cl55  1  0.75335049  0.42961400  0.95598298  1  0  -0.067523  0  1.458506  0  0  -0.056828  0  1.706516  0  0  -0.060446  0  1.701479  0  0  0.009055  -0.054087  0  1.710036  0
O  O56  1  0.64526332  0.32092426  0.70076641  1  0  -0.582432  0  2.071902  0  0  -0.510224  0  2.32604  0  0  -0.544334  0  2.320013  0  0  -0.305194  -0.48603  0  2.329131  0
O  O57  1  0.14526896  0.17907637  0.29922176  1  0  -0.58214  0  2.071978  0  0  -0.51006  0  2.326035  0  0  -0.544152  0  2.31997  0  0  -0.305216  -0.485867  0  2.329134  0
O  O58  1  0.35473126  0.67907743  0.29923442  1  0  -0.582391  0  2.071713  0  0  -0.510211  0  2.325864  0  0  -0.544295  0  2.319779  0  0  -0.30518  -0.48601  0  2.328959  0
O  O59  1  0.85473684  0.82092256  0.70077968  1  0  -0.58219  0  2.071892  0  0  -0.510077  0  2.325955  0  0  -0.544167  0  2.319887  0  0  -0.305214  -0.485883  0  2.329051  0
O  O60  1  0.82216441  0.16674010  0.62243582  1  0  -0.653671  0  2.160579  0  0  -0.568248  0  2.443317  0  0  -0.604472  0  2.430905  0  0  -0.328448  -0.542918  0  2.450753  0
O  O61  1  0.32215368  0.33326267  0.37756653  1  0  -0.653441  0  2.160553  0  0  -0.5681  0  2.443146  0  0  -0.604341  0  2.430777  0  0  -0.328367  -0.542758  0  2.450571  0
O  O62  1  0.17783978  0.83326068  0.37756566  1  0  -0.653618  0  2.160535  0  0  -0.568172  0  2.443185  0  0  -0.604412  0  2.430809  0  0  -0.328404  -0.54284  0  2.45063  0
O  O63  1  0.67785051  0.66674551  0.62243450  1  0  -0.653486  0  2.160627  0  0  -0.568112  0  2.443204  0  0  -0.604365  0  2.430863  0  0  -0.32834  -0.542776  0  2.450631  0
O  O64  1  0.34773645  0.17900239  0.58664176  1  0  -0.636003  0  2.227219  0  0  -0.55452  0  2.511289  0  0  -0.586195  0  2.496837  0  0  -0.318946  -0.532075  0  2.520543  0
O  O65  1  0.84771893  0.32099379  0.41335361  1  0  -0.635878  0  2.22703  0  0  -0.554359  0  2.511142  0  0  -0.58603  0  2.496683  0  0  -0.318886  -0.531918  0  2.520401  0
O  O66  1  0.65226934  0.82099933  0.41336111  1  0  -0.63599  0  2.227098  0  0  -0.554468  0  2.511235  0  0  -0.586139  0  2.496775  0  0  -0.318894  -0.532024  0  2.520486  0
O  O67  1  0.15228206  0.67900607  0.58664853  1  0  -0.635821  0  2.227  0  0  -0.554328  0  2.511095  0  0  -0.585996  0  2.496635  0  0  -0.318852  -0.531896  0  2.520359  0
O  O68  1  0.23773229  0.98191400  0.56067324  1  0  -0.64773  0  2.190078  0  0  -0.553005  0  2.482067  0  0  -0.587861  0  2.466503  0  0  -0.33066  -0.529059  0  2.492897  0
O  O69  1  0.73773409  0.51810236  0.43932515  1  0  -0.647728  0  2.189829  0  0  -0.552885  0  2.481776  0  0  -0.587741  0  2.46622  0  0  -0.330582  -0.528941  0  2.492603  0
O  O70  1  0.76227670  0.01809415  0.43932643  1  0  -0.647698  0  2.189894  0  0  -0.55289  0  2.481877  0  0  -0.587748  0  2.466325  0  0  -0.330601  -0.528943  0  2.492696  0
O  O71  1  0.26226529  0.48190486  0.56067382  1  0  -0.647733  0  2.18991  0  0  -0.552941  0  2.481859  0  0  -0.587796  0  2.466301  0  0  -0.330616  -0.528996  0  2.492677  0
