# generated using pymatgen
data_Zn2H34C40I11N13O8
_symmetry_space_group_name_H-M   'P 1'
_cell_length_a   14.56478071
_cell_length_b   15.92946151
_cell_length_c   17.20408994
_cell_angle_alpha   88.29403365
_cell_angle_beta   83.09732719
_cell_angle_gamma   84.50589375
_symmetry_Int_Tables_number   1
_chemical_formula_structural   Zn2H34C40I11N13O8
_chemical_formula_sum   'Zn2 H34 C40 I11 N13 O8'
_cell_volume   3943.69660176
_cell_formula_units_Z   1
loop_
 _symmetry_equiv_pos_site_id
 _symmetry_equiv_pos_as_xyz
  1  'x, y, z'
loop_
 _atom_site_type_symbol
 _atom_site_label
 _atom_site_symmetry_multiplicity
 _atom_site_fract_x
 _atom_site_fract_y
 _atom_site_fract_z
 _atom_site_occupancy
 _atom_site_pbe_bader_charge
 _atom_site_pbe_bader_spin_density
 _atom_site_pbe_cm5_charge
 _atom_site_pbe_ddec_charge
 _atom_site_pbe_ddec_spin_density
 _atom_site_pbe_ddec_sum_bond_order
 _atom_site_pbe_magmom
Zn  Zn0  1  0.40284734  0.50525352  0.50013816  1  1.319888  0  0.686178  0.899572  0  2.408982  0
Zn  Zn1  1  0.59676953  0.48887881  0.50216625  1  1.321374  0  0.687842  0.904303  0  2.425367  0
H  H2  1  0.50998029  0.34179033  0.11627501  1  0.08318  0  0.100067  0.115222  0  1.009891  0
H  H3  1  0.55886047  0.60419028  0.10170652  1  0.059025  0  0.097855  0.107455  0  1.020459  0
H  H4  1  0.33693673  0.47680230  0.75316285  1  0.107267  0  0.098939  0.118337  0  1.011038  0
H  H5  1  0.56686638  0.61348335  0.88427733  1  0.088454  0  0.099089  0.111034  0  1.010261  0
H  H6  1  0.45594140  0.09702658  0.31009887  1  0.399877  0  0.278845  0.264561  0  0.972671  0
H  H7  1  0.55784802  0.06333414  0.33538771  1  0.376472  0  0.274735  0.262715  0  0.986616  0
H  H8  1  0.64577373  0.84998339  0.39380440  1  0.459457  0  0.302832  0.306266  0  0.933243  0
H  H9  1  0.71226375  0.93178574  0.38803743  1  0.438447  0  0.312801  0.311376  0  0.914654  0
H  H10  1  0.38040496  0.14480638  0.62351448  1  0.41368  0  0.287551  0.285447  0  0.955382  0
H  H11  1  0.33932626  0.05470122  0.65483443  1  0.391207  0  0.276753  0.265861  0  0.984163  0
H  H12  1  0.34729776  0.15560309  0.44988755  1  0.408938  0  0.282528  0.280291  0  0.973993  0
H  H13  1  0.48796430  0.94008374  0.36248068  1  0.062327  0  0.096529  0.109626  0  1.002887  0
H  H14  1  0.32032798  0.08606113  0.38830495  1  0.386231  0  0.281674  0.267565  0  0.965674  0
H  H15  1  0.57810466  0.00309265  0.63207619  1  0.393375  0  0.245024  0.247188  0  1.058031  0
H  H16  1  0.49047142  0.04556147  0.69036128  1  0.415908  0  0.276312  0.272829  0  0.97973  0
H  H17  1  0.15874312  0.64653274  0.42898309  1  0.449885  0  0.313005  0.323428  0  0.899169  0
H  H18  1  0.05756231  0.69355276  0.40555689  1  0.427027  0  0.309911  0.31593  0  0.906616  0
H  H19  1  0.92707422  0.61854923  0.63331484  1  0.408578  0  0.247566  0.259589  0  1.058734  0
H  H20  1  0.91229255  0.55016260  0.70598203  1  0.430888  0  0.285432  0.294743  0  0.946461  0
H  H21  1  0.82279349  0.44314363  0.66132426  1  0.440635  0  0.306218  0.31179  0  0.925835  0
H  H22  1  0.88737593  0.37341221  0.60309418  1  0.403313  0  0.297196  0.289288  0  0.951055  0
H  H23  1  0.02499759  0.35612840  0.63744554  1  0.439605  0  0.302323  0.308427  0  0.932434  0
H  H24  1  0.63677910  0.06557138  0.42801316  1  0.064005  0  0.110542  0.129674  0  0.965577  0
H  H25  1  0.12712578  0.35774805  0.58108152  1  0.425081  0  0.291103  0.296122  0  0.944657  0
H  H26  1  0.62917271  0.39885817  0.97673233  1  0.386243  0  0.294043  0.28307  0  0.9533  0
H  H27  1  0.54888596  0.41374024  0.91439521  1  0.438745  0  0.289435  0.283579  0  0.96942  0
H  H28  1  0.37766091  0.64924757  0.01479901  1  0.434265  0  0.295087  0.287905  0  0.949387  0
H  H29  1  0.39133544  0.58417415  0.09225865  1  0.397172  0  0.292802  0.289997  0  0.964647  0
H  H30  1  0.63899553  0.05399230  0.52935833  1  0.110241  0  0.107065  0.139636  0  0.99247  0
H  H31  1  0.36820720  0.95083424  0.54811835  1  0.124084  0  0.110975  0.128383  0  0.970126  0
H  H32  1  0.38037531  0.94171954  0.42390617  1  0.066912  0  0.10694  0.129861  0  0.964336  0
H  H33  1  0.93856397  0.59532713  0.41596382  1  0.076739  0  0.096111  0.113715  0  1.016491  0
H  H34  1  0.94485944  0.38028075  0.48978278  1  0.085884  0  0.104309  0.126081  0  0.999194  0
H  H35  1  0.91664831  0.44149726  0.40698694  1  0.106097  0  0.107545  0.140527  0  0.967812  0
C  C36  1  0.49169445  0.65909373  0.47743709  1  1.68864  0  0.210548  0.656854  0  4.268812  0
C  C37  1  0.54420329  0.47262012  0.26299456  1  0.029115  0  -0.025291  -0.079437  0  3.933191  0
C  C38  1  0.45115378  0.96108523  0.41881232  1  -0.064837  0  -0.151597  -0.296662  0  3.766804  0
C  C39  1  0.47024314  0.52594055  0.65013703  1  1.604783  0  0.214006  0.605403  0  4.170295  0
C  C40  1  0.60114924  0.94264314  0.47196866  1  0.397101  0  0.115088  0.296874  0  3.674186  0
C  C41  1  0.60158149  0.03786037  0.48132470  1  -0.05017  0  -0.154968  -0.278928  0  3.825537  0
C  C42  1  0.49701436  0.24499208  0.51316285  1  0.25315  0  -0.050166  -0.196962  0  3.948967  0
C  C43  1  0.50098735  0.91470430  0.48611811  1  0.133246  0  0.003467  0.11061  0  3.872828  0
C  C44  1  0.44787014  0.05860439  0.42543471  1  0.689614  0  0.16846  0.421199  0  3.762465  0
C  C45  1  0.50028589  0.07909254  0.49719410  1  0.111383  0  0.019402  0.031432  0  3.719455  0
C  C46  1  0.45803253  0.04067076  0.57933801  1  0.696692  0  0.163395  0.399306  0  3.807757  0
C  C47  1  0.38705498  0.50657700  0.78282823  1  0.01479  0  -0.090954  -0.123799  0  3.959132  0
C  C48  1  0.44001547  0.94900748  0.56131336  1  -0.191384  0  -0.092938  -0.13701  0  3.58107  0
C  C49  1  0.49971451  0.16933716  0.50481338  1  -0.528293  0  -0.027257  -0.002846  0  4.034208  0
C  C50  1  0.49955405  0.82476731  0.47879417  1  -0.53234  0  -0.05217  -0.066307  0  4.084094  0
C  C51  1  0.49682447  0.33551127  0.51692920  1  1.685674  0  0.215671  0.672245  0  4.248888  0
C  C52  1  0.49542116  0.74958952  0.47241957  1  0.236629  0  -0.045541  -0.16616  0  3.961788  0
C  C53  1  0.94015341  0.59816506  0.47958197  1  -0.142371  0  -0.117401  -0.152584  0  3.663323  0
C  C54  1  0.95251954  0.44115671  0.45942437  1  -0.042544  0  -0.165607  -0.262251  0  3.872675  0
C  C55  1  0.05592340  0.45279501  0.43714924  1  -0.249661  0  -0.026776  0.086245  0  3.362626  0
C  C56  1  0.90693190  0.51391781  0.51489577  1  0.120699  0  0.010252  0.030526  0  3.803656  0
C  C57  1  0.04267075  0.60325642  0.49002853  1  0.383718  0  0.091456  0.254975  0  3.690477  0
C  C58  1  0.54921129  0.54685107  0.13661006  1  0.009941  0  -0.109044  -0.198236  0  4.02612  0
C  C59  1  0.08500017  0.50925578  0.50559638  1  0.18727  0  0.0171  -0.040689  0  3.745718  0
C  C60  1  0.04282366  0.46841926  0.58722509  1  0.37945  0  0.087551  0.164199  0  3.584067  0
C  C61  1  0.93287283  0.49385218  0.60143964  1  0.751916  0  0.174859  0.349096  0  3.846812  0
C  C62  1  0.18481021  0.50757780  0.50028751  1  0.808958  0  0.214187  0.294094  0  3.962319  0
C  C63  1  0.53837621  0.47621622  0.35090889  1  1.608199  0  0.202512  0.602505  0  4.212461  0
C  C64  1  0.80780577  0.51099040  0.51637022  1  0.924715  0  0.231539  0.317136  0  3.89745  0
C  C65  1  0.46027307  0.54166458  0.73652268  1  0.035739  0  -0.015963  -0.035144  0  3.928887  0
C  C66  1  0.52407361  0.58252892  0.77355393  1  -0.220227  0  -0.04862  0.042284  0  3.899827  0
C  C67  1  0.51684212  0.58294930  0.85513277  1  -0.039054  0  -0.102729  -0.178624  0  4.002876  0
C  C68  1  0.44787805  0.54230716  0.90208547  1  -0.018469  0  -0.013428  0.036622  0  4.005249  0
C  C69  1  0.55640297  0.54555893  0.21654155  1  -0.247256  0  -0.04615  0.055911  0  3.904282  0
C  C70  1  0.38106492  0.50628928  0.86431537  1  -0.248054  0  -0.049777  0.023052  0  3.887797  0
C  C71  1  0.52989740  0.39882797  0.22496473  1  -0.239008  0  -0.050803  0.039868  0  3.891891  0
C  C72  1  0.52300733  0.39893278  0.14477696  1  0.030574  0  -0.099923  -0.163995  0  3.957949  0
C  C73  1  0.52922558  0.47396690  0.10025583  1  -0.006125  0  -0.007215  0.086299  0  4.008907  0
C  C74  1  0.45343587  0.53686016  0.98771678  1  0.404514  0  0.049634  0.089595  0  4.102513  0
C  C75  1  0.51540797  0.47777122  0.01659881  1  0.394124  0  0.050616  0.07873  0  4.087704  0
I  I76  1  0.63021216  0.64771377  0.71146881  1  0.127218  0  0.05135  -0.030159  0  1.547647  0
I  I77  1  0.06553408  0.70109373  0.58926144  1  -0.138446  0  -0.062681  -0.210102  0  1.346619  0
I  I78  1  0.27435089  0.44397138  0.92851187  1  0.089224  0  0.030186  -0.067968  0  1.338438  0
I  I79  1  0.68961073  0.87524668  0.57315402  1  -0.189951  0  -0.059008  -0.204975  0  1.441128  0
I  I80  1  0.43412869  0.86687169  0.66470140  1  0.025728  0  0.023785  -0.086238  0  1.443594  0
I  I81  1  0.58337011  0.65931810  0.26641842  1  0.074327  0  0.034539  -0.057786  0  1.399279  0
I  I82  1  0.07361448  0.50063062  0.31403267  1  0.113591  0  0.07036  -0.025887  0  1.460797  0
I  I83  1  0.14170920  0.33141405  0.42104639  1  0.118533  0  0.081473  -0.008581  0  1.458983  0
I  I84  1  0.51641830  0.28426815  0.28992687  1  0.120601  0  0.046116  -0.058739  0  1.55814  0
I  I85  1  0.11373456  0.50747571  0.69226935  1  -0.058162  0  -0.01344  -0.147082  0  1.389277  0
I  I86  1  0.84153042  0.71029901  0.50433302  1  0.110211  0  0.040376  -0.042182  0  1.721018  0
N  N87  1  0.26465858  0.50924036  0.49190307  1  -1.102261  0  -0.276506  -0.269464  0  3.104938  0
N  N88  1  0.88905753  0.42267508  0.63916644  1  -1.120069  0  -0.621863  -0.665445  0  3.178774  0
N  N89  1  0.05880665  0.38005451  0.58734082  1  -1.179046  0  -0.617212  -0.611652  0  3.387566  0
N  N90  1  0.56004066  0.40953054  0.97173217  1  -1.161741  0  -0.606381  -0.60902  0  3.316719  0
N  N91  1  0.38538324  0.58821558  0.03391063  1  -1.165916  0  -0.605398  -0.610952  0  3.342741  0
N  N92  1  0.73155579  0.49676712  0.51497905  1  -1.198814  0  -0.287041  -0.292774  0  3.113924  0
N  N93  1  0.49673125  0.09775930  0.35440436  1  -1.085199  0  -0.620974  -0.661989  0  3.195435  0
N  N94  1  0.64730157  0.91312747  0.40142381  1  -1.201216  0  -0.588469  -0.603686  0  3.310139  0
N  N95  1  0.36940647  0.08582713  0.60698226  1  -1.09519  0  -0.630033  -0.66778  0  3.18897  0
N  N96  1  0.35169894  0.09290921  0.43746796  1  -1.110244  0  -0.626261  -0.671282  0  3.202884  0
N  N97  1  0.52477657  0.05030914  0.63531256  1  -1.124396  0  -0.644623  -0.694699  0  3.189346  0
N  N98  1  0.09090163  0.63898083  0.42440043  1  -1.134147  0  -0.602665  -0.602  0  3.385955  0
N  N99  1  0.89769349  0.56406289  0.65009112  1  -1.135461  0  -0.637565  -0.6769  0  3.250327  0
O  O100  1  0.41293183  0.63187316  0.47507540  1  -1.13483  0  -0.315174  -0.535907  0  2.244708  0
O  O101  1  0.56841395  0.61667229  0.48565433  1  -1.145654  0  -0.309676  -0.552354  0  2.327252  0
O  O102  1  0.39672494  0.53238777  0.61656970  1  -1.152218  0  -0.316014  -0.538211  0  2.296811  0
O  O103  1  0.55214135  0.50391827  0.61895416  1  -1.165839  0  -0.317129  -0.553038  0  2.378623  0
O  O104  1  0.41758218  0.37785721  0.52334688  1  -1.1478  0  -0.320462  -0.557405  0  2.262947  0
O  O105  1  0.57608663  0.36389210  0.51224312  1  -1.127445  0  -0.315345  -0.540887  0  2.260149  0
O  O106  1  0.45596469  0.48175381  0.38552322  1  -1.159647  0  -0.314811  -0.552653  0  2.330574  0
O  O107  1  0.61306070  0.47540904  0.38188852  1  -1.147091  0  -0.318041  -0.539022  0  2.287007  0
