# generated using pymatgen
data_Ag2H16C20S2O7
_symmetry_space_group_name_H-M   'P 1'
_cell_length_a   5.18407539
_cell_length_b   11.49045442
_cell_length_c   16.04380001
_cell_angle_alpha   97.46125311
_cell_angle_beta   90.00006261
_cell_angle_gamma   90.00024797
_symmetry_Int_Tables_number   1
_chemical_formula_structural   Ag2H16C20S2O7
_chemical_formula_sum   'Ag4 H32 C40 S4 O14'
_cell_volume   947.59526906
_cell_formula_units_Z   2
loop_
 _symmetry_equiv_pos_site_id
 _symmetry_equiv_pos_as_xyz
  1  'x, y, z'
loop_
 _atom_site_type_symbol
 _atom_site_label
 _atom_site_symmetry_multiplicity
 _atom_site_fract_x
 _atom_site_fract_y
 _atom_site_fract_z
 _atom_site_occupancy
 _atom_site_hle17_bader_spin_density
 _atom_site_hle17_ddec_charge
 _atom_site_hle17_ddec_spin_density
 _atom_site_hle17_ddec_sum_bond_order
 _atom_site_hle17_magmom
 _atom_site_hse06_10hf_bader_spin_density
 _atom_site_hse06_10hf_ddec_charge
 _atom_site_hse06_10hf_ddec_spin_density
 _atom_site_hse06_10hf_ddec_sum_bond_order
 _atom_site_hse06_10hf_magmom
 _atom_site_hse06_bader_spin_density
 _atom_site_hse06_ddec_charge
 _atom_site_hse06_ddec_spin_density
 _atom_site_hse06_ddec_sum_bond_order
 _atom_site_hse06_magmom
 _atom_site_pbe_bader_spin_density
 _atom_site_pbe_cm5_charge
 _atom_site_pbe_ddec_charge
 _atom_site_pbe_ddec_spin_density
 _atom_site_pbe_ddec_sum_bond_order
 _atom_site_pbe_magmom
Ag  Ag0  1  0.12517020  0.37417614  0.14478714  1  0  0.713841  0  1.197705  0  0  0.616907  0  1.613933  0  0  0.647263  0  1.556025  0  0  0.44114  0.594752  0  1.654781  0
Ag  Ag1  1  0.87482435  0.87417604  0.14479083  1  0  0.713952  0  1.19766  0  0  0.617007  0  1.613893  0  0  0.647358  0  1.555978  0  0  0.441151  0.594846  0  1.65473  0
Ag  Ag2  1  0.56670207  0.53784298  0.15213067  1  0  0.729734  0  1.182756  0  0  0.626641  0  1.594222  0  0  0.658053  0  1.537007  0  0  0.460321  0.603548  0  1.634666  0
Ag  Ag3  1  0.43329282  0.03784336  0.15211276  1  0  0.729796  0  1.182693  0  0  0.626771  0  1.594086  0  0  0.658181  0  1.536868  0  0  0.460355  0.603673  0  1.634512  0
H  H4  1  0.61502381  0.28378240  0.19566810  1  0  0.442274  0  0.851533  0  0  0.414697  0  0.909157  0  0  0.424893  0  0.894385  0  0  0.298856  0.40742  0  0.919678  0
H  H5  1  0.38497192  0.78378591  0.19567817  1  0  0.442356  0  0.851387  0  0  0.414871  0  0.908903  0  0  0.425066  0  0.894132  0  0  0.2989  0.407586  0  0.91944  0
H  H6  1  0.61301352  0.26610610  0.09779477  1  0  0.437539  0  0.858648  0  0  0.409451  0  0.918341  0  0  0.419555  0  0.903756  0  0  0.297633  0.402238  0  0.928736  0
H  H7  1  0.38699513  0.76610081  0.09780286  1  0  0.437553  0  0.858679  0  0  0.409463  0  0.918345  0  0  0.419572  0  0.903749  0  0  0.297614  0.402248  0  0.928739  0
H  H8  1  0.74976454  0.79773631  0.39268292  1  0  0.110557  0  0.957143  0  0  0.120208  0  1.0179  0  0  0.12287  0  1.017118  0  0  0.107176  0.118285  0  1.018465  0
H  H9  1  0.25022249  0.29773410  0.39268345  1  0  0.110526  0  0.957276  0  0  0.12022  0  1.017994  0  0  0.122883  0  1.017207  0  0  0.107144  0.118296  0  1.018561  0
H  H10  1  0.74586468  0.84161382  0.54818704  1  0  0.078215  0  0.989472  0  0  0.08764  0  1.055914  0  0  0.08968  0  1.056394  0  0  0.094151  0.086147  0  1.055734  0
H  H11  1  0.25412537  0.34161336  0.54818709  1  0  0.078127  0  0.989589  0  0  0.087563  0  1.056048  0  0  0.089603  0  1.056529  0  0  0.094118  0.08607  0  1.055868  0
H  H12  1  0.06048850  0.74313982  0.63389581  1  0  0.08754  0  0.963898  0  0  0.099545  0  1.028321  0  0  0.101968  0  1.027381  0  0  0.099536  0.097759  0  1.02915  0
H  H13  1  0.93948736  0.24313514  0.63388512  1  0  0.087496  0  0.96379  0  0  0.099508  0  1.028204  0  0  0.101933  0  1.027261  0  0  0.099514  0.097699  0  1.029061  0
H  H14  1  0.41860567  0.60797406  0.64219845  1  0  0.083975  0  0.980383  0  0  0.095161  0  1.046225  0  0  0.097543  0  1.045579  0  0  0.096222  0.093434  0  1.046754  0
H  H15  1  0.58136688  0.10796787  0.64218877  1  0  0.084065  0  0.980387  0  0  0.095241  0  1.046205  0  0  0.097623  0  1.04556  0  0  0.096221  0.093517  0  1.046737  0
H  H16  1  0.73618696  0.46439377  0.57297499  1  0  0.079152  0  0.974725  0  0  0.090438  0  1.03849  0  0  0.092327  0  1.03879  0  0  0.094731  0.08905  0  1.038403  0
H  H17  1  0.26376398  0.96439560  0.57295683  1  0  0.07919  0  0.974845  0  0  0.090477  0  1.038596  0  0  0.092365  0  1.038897  0  0  0.094751  0.08909  0  1.038507  0
H  H18  1  0.74027199  0.41770171  0.41698220  1  0  0.095733  0  0.952478  0  0  0.107498  0  1.009724  0  0  0.109909  0  1.00979  0  0  0.100357  0.105749  0  1.009775  0
H  H19  1  0.25969904  0.91770610  0.41696113  1  0  0.095711  0  0.952425  0  0  0.107404  0  1.009763  0  0  0.109804  0  1.009847  0  0  0.100322  0.105655  0  1.009813  0
H  H20  1  0.43268611  0.51095944  0.33064794  1  0  0.099427  0  0.969844  0  0  0.105879  0  1.039288  0  0  0.109985  0  1.03548  0  0  0.099944  0.102831  0  1.042257  0
H  H21  1  0.56729379  0.01096357  0.33063038  1  0  0.099342  0  0.969774  0  0  0.105802  0  1.039189  0  0  0.109901  0  1.035398  0  0  0.099888  0.102754  0  1.042168  0
H  H22  1  0.76092791  0.67165146  0.88346990  1  0  0.108796  0  0.967328  0  0  0.117983  0  1.029471  0  0  0.120336  0  1.02959  0  0  0.105847  0.11625  0  1.029497  0
H  H23  1  0.23911188  0.17164558  0.88346327  1  0  0.108716  0  0.967422  0  0  0.117921  0  1.029536  0  0  0.12027  0  1.029663  0  0  0.105838  0.116189  0  1.029563  0
H  H24  1  0.75787948  0.61087870  0.72882061  1  0  0.082888  0  0.974772  0  0  0.09315  0  1.038993  0  0  0.095209  0  1.039341  0  0  0.096483  0.091697  0  1.038783  0
H  H25  1  0.24214553  0.11087460  0.72881537  1  0  0.082825  0  0.974884  0  0  0.093105  0  1.039041  0  0  0.095165  0  1.03938  0  0  0.096451  0.091653  0  1.038838  0
H  H26  1  0.07064511  0.46154714  0.66430583  1  0  0.083068  0  0.978955  0  0  0.094319  0  1.045645  0  0  0.096804  0  1.044412  0  0  0.097328  0.092529  0  1.046574  0
H  H27  1  0.92936018  0.96155657  0.66429972  1  0  0.083001  0  0.978916  0  0  0.094211  0  1.045679  0  0  0.096695  0  1.044448  0  0  0.097297  0.092422  0  1.046609  0
H  H28  1  0.42885682  0.32796752  0.67747515  1  0  0.085111  0  0.970592  0  0  0.096992  0  1.034673  0  0  0.099273  0  1.034387  0  0  0.096316  0.095325  0  1.034996  0
H  H29  1  0.57112976  0.82798066  0.67746799  1  0  0.085101  0  0.97055  0  0  0.096918  0  1.034693  0  0  0.099199  0  1.034412  0  0  0.096304  0.095257  0  1.035021  0
H  H30  1  0.74900234  0.23863426  0.76607720  1  0  0.07441  0  0.986854  0  0  0.085091  0  1.053273  0  0  0.086909  0  1.053823  0  0  0.091861  0.08375  0  1.053028  0
H  H31  1  0.25100681  0.73864234  0.76606579  1  0  0.074454  0  0.986816  0  0  0.085144  0  1.053211  0  0  0.086964  0  1.053762  0  0  0.091937  0.083803  0  1.052969  0
H  H32  1  0.75300753  0.29686579  0.92078963  1  0  0.096868  0  0.958048  0  0  0.105985  0  1.020097  0  0  0.10873  0  1.019254  0  0  0.099781  0.103929  0  1.020808  0
H  H33  1  0.24702601  0.79685803  0.92077504  1  0  0.096865  0  0.958064  0  0  0.106003  0  1.020125  0  0  0.108749  0  1.019285  0  0  0.099726  0.103937  0  1.02085  0
H  H34  1  0.44141379  0.43868235  0.98800917  1  0  0.089207  0  0.989266  0  0  0.096097  0  1.062345  0  0  0.100097  0  1.05821  0  0  0.095008  0.093101  0  1.06559  0
H  H35  1  0.55862537  0.93867431  0.98799589  1  0  0.089059  0  0.989243  0  0  0.095872  0  1.062452  0  0  0.09987  0  1.058315  0  0  0.094867  0.092876  0  1.065686  0
C  C36  1  0.06099304  0.67530893  0.39006903  1  0  -0.15638  0  3.696805  0  0  -0.133679  0  3.941854  0  0  -0.141843  0  3.963339  0  0  -0.014378  -0.128419  0  3.927556  0
C  C37  1  0.93899076  0.17530607  0.39006161  1  0  -0.156408  0  3.696746  0  0  -0.133719  0  3.941877  0  0  -0.141883  0  3.963358  0  0  -0.014457  -0.128467  0  3.927595  0
C  C38  1  0.88676085  0.75459723  0.42994428  1  0  -0.050723  0  3.742496  0  0  -0.078078  0  3.992411  0  0  -0.075691  0  4.011244  0  0  -0.080722  -0.079477  0  3.979552  0
C  C39  1  0.11320466  0.25459635  0.42993614  1  0  -0.050794  0  3.742339  0  0  -0.078176  0  3.992267  0  0  -0.075787  0  4.011094  0  0  -0.080693  -0.07957  0  3.979409  0
C  C40  1  0.88649689  0.77917104  0.51840109  1  0  -0.06784  0  3.780239  0  0  -0.081393  0  4.03613  0  0  -0.08475  0  4.05734  0  0  -0.092  -0.079152  0  4.021617  0
C  C41  1  0.11348660  0.27917116  0.51839928  1  0  -0.067594  0  3.780176  0  0  -0.081153  0  4.036051  0  0  -0.084512  0  4.057264  0  0  -0.091898  -0.078913  0  4.021531  0
C  C42  1  0.06050948  0.72476115  0.56539394  1  0  -0.10748  0  3.737596  0  0  -0.128959  0  3.986454  0  0  -0.129113  0  4.005919  0  0  -0.086738  -0.12865  0  3.973149  0
C  C43  1  0.93946976  0.22475376  0.56537929  1  0  -0.107643  0  3.738054  0  0  -0.129064  0  3.98696  0  0  -0.129222  0  4.00643  0  0  -0.086776  -0.128742  0  3.973654  0
C  C44  1  0.24213056  0.64284300  0.52608395  1  0  0.054713  0  3.783143  0  0  0.073207  0  4.006006  0  0  0.071644  0  4.03154  0  0  -0.006907  0.074128  0  3.98857  0
C  C45  1  0.75783995  0.14284666  0.52606891  1  0  0.054996  0  3.782945  0  0  0.073316  0  4.006133  0  0  0.071756  0  4.031666  0  0  -0.006906  0.074247  0  3.988681  0
C  C46  1  0.42255598  0.58668962  0.57401136  1  0  -0.133724  0  3.773294  0  0  -0.152128  0  4.020388  0  0  -0.155159  0  4.042243  0  0  -0.095176  -0.149858  0  4.005436  0
C  C47  1  0.57740642  0.08669036  0.57399852  1  0  -0.134067  0  3.773307  0  0  -0.152404  0  4.020503  0  0  -0.155436  0  4.042362  0  0  -0.095242  -0.150139  0  4.005553  0
C  C48  1  0.59805254  0.50697519  0.53564950  1  0  -0.067651  0  3.79104  0  0  -0.080813  0  4.039651  0  0  -0.082562  0  4.061714  0  0  -0.093122  -0.079568  0  4.024511  0
C  C49  1  0.40191465  0.00696940  0.53563295  1  0  -0.067504  0  3.791389  0  0  -0.08065  0  4.039933  0  0  -0.082397  0  4.061995  0  0  -0.093056  -0.079408  0  4.024794  0
C  C50  1  0.59976709  0.47993684  0.44723659  1  0  -0.051572  0  3.741491  0  0  -0.065059  0  3.990153  0  0  -0.066492  0  4.011334  0  0  -0.086092  -0.063978  0  3.975623  0
C  C51  1  0.40019315  0.97994170  0.44722558  1  0  -0.051813  0  3.741606  0  0  -0.065261  0  3.990269  0  0  -0.066687  0  4.011447  0  0  -0.086218  -0.064175  0  3.975739  0
C  C52  1  0.42666407  0.53259338  0.39861829  1  0  -0.095766  0  3.700134  0  0  -0.116349  0  3.950647  0  0  -0.11899  0  3.969896  0  0  -0.086886  -0.114523  0  3.937667  0
C  C53  1  0.57329897  0.03259667  0.39860191  1  0  -0.095403  0  3.699601  0  0  -0.115879  0  3.949997  0  0  -0.118521  0  3.969247  0  0  -0.086603  -0.114055  0  3.937012  0
C  C54  1  0.24418653  0.61563506  0.43594467  1  0  0.061714  0  3.734503  0  0  0.071341  0  3.955914  0  0  0.072622  0  3.98094  0  0  0.000722  0.070487  0  3.93893  0
C  C55  1  0.75578526  0.11563261  0.43593099  1  0  0.061608  0  3.734137  0  0  0.071174  0  3.955772  0  0  0.072453  0  3.980796  0  0  0.000688  0.070322  0  3.938791  0
C  C56  1  0.06896210  0.55594327  0.90579438  1  0  -0.155807  0  3.684357  0  0  -0.131394  0  3.926782  0  0  -0.13978  0  3.948706  0  0  -0.012364  -0.125967  0  3.912155  0
C  C57  1  0.93106691  0.05593773  0.90578549  1  0  -0.155855  0  3.684599  0  0  -0.131449  0  3.927002  0  0  -0.139841  0  3.948934  0  0  -0.012449  -0.126025  0  3.912377  0
C  C58  1  0.89594097  0.60542683  0.85519304  1  0  -0.052058  0  3.739521  0  0  -0.078808  0  3.987158  0  0  -0.076571  0  4.006531  0  0  -0.081284  -0.080083  0  3.973906  0
C  C59  1  0.10407678  0.10542948  0.85518707  1  0  -0.051862  0  3.739632  0  0  -0.078602  0  3.987218  0  0  -0.076361  0  4.006589  0  0  -0.08118  -0.079878  0  3.973974  0
C  C60  1  0.89555481  0.57066030  0.76759673  1  0  -0.071242  0  3.786677  0  0  -0.083166  0  4.04056  0  0  -0.086559  0  4.061496  0  0  -0.093687  -0.080921  0  4.02623  0
C  C61  1  0.10446608  0.07066121  0.76759187  1  0  -0.071275  0  3.786749  0  0  -0.083198  0  4.040636  0  0  -0.086586  0  4.061567  0  0  -0.093715  -0.080962  0  4.02632  0
C  C62  1  0.06852544  0.48779016  0.73209399  1  0  -0.111956  0  3.755866  0  0  -0.135185  0  4.005665  0  0  -0.13518  0  4.024821  0  0  -0.088541  -0.134944  0  3.992555  0
C  C63  1  0.93150356  0.98778995  0.73208708  1  0  -0.111832  0  3.755826  0  0  -0.135048  0  4.005657  0  0  -0.135043  0  4.024816  0  0  -0.088518  -0.134818  0  3.992544  0
C  C64  1  0.24941769  0.43561126  0.78229270  1  0  0.053101  0  3.783686  0  0  0.074319  0  4.003083  0  0  0.072689  0  4.028583  0  0  -0.007511  0.075264  0  3.985696  0
C  C65  1  0.75058780  0.93561935  0.78228019  1  0  0.052951  0  3.784218  0  0  0.074197  0  4.003571  0  0  0.072566  0  4.029074  0  0  -0.007549  0.075163  0  3.986154  0
C  C66  1  0.43055459  0.35151896  0.74559827  1  0  -0.131492  0  3.764316  0  0  -0.148598  0  4.008817  0  0  -0.15178  0  4.031148  0  0  -0.094902  -0.146214  0  3.993526  0
C  C67  1  0.56946145  0.85151982  0.74559072  1  0  -0.131547  0  3.764687  0  0  -0.148616  0  4.009214  0  0  -0.151787  0  4.031519  0  0  -0.094935  -0.146247  0  3.993926  0
C  C68  1  0.60798819  0.30214745  0.79449103  1  0  -0.067567  0  3.787635  0  0  -0.082822  0  4.038561  0  0  -0.084646  0  4.060792  0  0  -0.093646  -0.081525  0  4.023293  0
C  C69  1  0.39203138  0.80214447  0.79448311  1  0  -0.067585  0  3.787839  0  0  -0.082833  0  4.03874  0  0  -0.084661  0  4.060979  0  0  -0.09371  -0.081547  0  4.023486  0
C  C70  1  0.60983844  0.33445470  0.88242841  1  0  -0.043581  0  3.724842  0  0  -0.056838  0  3.973811  0  0  -0.057819  0  3.994238  0  0  -0.085289  -0.056002  0  3.959885  0
C  C71  1  0.39017991  0.83445690  0.88241717  1  0  -0.043484  0  3.725131  0  0  -0.056786  0  3.974076  0  0  -0.057772  0  3.994501  0  0  -0.085194  -0.055944  0  3.960138  0
C  C72  1  0.43460614  0.41482490  0.92025785  1  0  -0.085029  0  3.690531  0  0  -0.10713  0  3.941037  0  0  -0.109616  0  3.960297  0  0  -0.086514  -0.105416  0  3.928067  0
C  C73  1  0.56542477  0.91482565  0.92024530  1  0  -0.084922  0  3.690808  0  0  -0.106981  0  3.941312  0  0  -0.109465  0  3.960577  0  0  -0.08642  -0.105255  0  3.928317  0
C  C74  1  0.25124287  0.46886595  0.87203379  1  0  0.061954  0  3.728093  0  0  0.070818  0  3.948754  0  0  0.072164  0  3.973769  0  0  0.001614  0.069935  0  3.931767  0
C  C75  1  0.74877106  0.96887048  0.87201849  1  0  0.062142  0  3.72828  0  0  0.071005  0  3.948882  0  0  0.072353  0  3.973898  0  0  0.001735  0.070113  0  3.931891  0
S  S76  1  0.04677027  0.64770621  0.27854641  1  0  1.312053  0  5.589519  0  0  1.214431  0  6.094635  0  0  1.262369  0  6.075505  0  0  0.512457  1.181268  0  6.10655  0
S  S77  1  0.95323015  0.14771039  0.27853958  1  0  1.312328  0  5.588739  0  0  1.214784  0  6.093828  0  0  1.262717  0  6.074686  0  0  0.512646  1.181603  0  6.105773  0
S  S78  1  0.05273007  0.60552296  0.01564567  1  0  1.318051  0  5.567193  0  0  1.218106  0  6.075011  0  0  1.266487  0  6.054994  0  0  0.518126  1.184571  0  6.08762  0
S  S79  1  0.94730548  0.10551572  0.01563727  1  0  1.317534  0  5.567269  0  0  1.217657  0  6.075053  0  0  1.266037  0  6.055045  0  0  0.517986  1.184127  0  6.087654  0
O  O80  1  0.96310077  0.52415311  0.25837945  1  0  -0.693292  0  2.046982  0  0  -0.630748  0  2.331447  0  0  -0.656884  0  2.314983  0  0  -0.342174  -0.611994  0  2.341992  0
O  O81  1  0.03688669  0.02415825  0.25837304  1  0  -0.69335  0  2.046887  0  0  -0.630861  0  2.331445  0  0  -0.656989  0  2.314966  0  0  -0.342282  -0.612101  0  2.341994  0
O  O82  1  0.86387875  0.73150861  0.25027533  1  0  -0.662197  0  2.044411  0  0  -0.604077  0  2.324465  0  0  -0.626925  0  2.306902  0  0  -0.337816  -0.587858  0  2.336027  0
O  O83  1  0.13610700  0.23151922  0.25027065  1  0  -0.662298  0  2.044264  0  0  -0.604138  0  2.324189  0  0  -0.627012  0  2.306692  0  0  -0.337782  -0.587913  0  2.335753  0
O  O84  1  0.31489334  0.66627625  0.24949510  1  0  -0.704449  0  2.110663  0  0  -0.631355  0  2.379683  0  0  -0.657282  0  2.363591  0  0  -0.339957  -0.61287  0  2.390114  0
O  O85  1  0.68510716  0.16627719  0.24948231  1  0  -0.704518  0  2.110355  0  0  -0.631527  0  2.379467  0  0  -0.657449  0  2.363374  0  0  -0.340064  -0.613035  0  2.389888  0
O  O86  1  0.32275720  0.63057850  0.04345442  1  0  -0.700746  0  2.0894  0  0  -0.632848  0  2.359852  0  0  -0.657731  0  2.343754  0  0  -0.336158  -0.615046  0  2.370271  0
O  O87  1  0.67727295  0.13057774  0.04344460  1  0  -0.700577  0  2.089161  0  0  -0.632649  0  2.359558  0  0  -0.65751  0  2.343424  0  0  -0.336058  -0.614852  0  2.369975  0
O  O88  1  0.94064689  0.50669103  0.05492839  1  0  -0.709663  0  2.118732  0  0  -0.639089  0  2.420536  0  0  -0.666677  0  2.402677  0  0  -0.347898  -0.619285  0  2.432036  0
O  O89  1  0.05937235  0.00668039  0.05491944  1  0  -0.709747  0  2.118841  0  0  -0.639158  0  2.420571  0  0  -0.666741  0  2.402695  0  0  -0.347999  -0.619352  0  2.432058  0
O  O90  1  0.89033421  0.71047317  0.02560976  1  0  -0.650972  0  2.019326  0  0  -0.594094  0  2.29687  0  0  -0.616866  0  2.280844  0  0  -0.33392  -0.57797  0  2.307469  0
O  O91  1  0.10972564  0.21046004  0.02560311  1  0  -0.650587  0  2.019355  0  0  -0.593887  0  2.297041  0  0  -0.616663  0  2.281019  0  0  -0.333807  -0.577769  0  2.307642  0
O  O92  1  0.59277118  0.32818648  0.14686501  1  0  -0.868831  0  1.991919  0  0  -0.793335  0  2.22476  0  0  -0.820503  0  2.186564  0  0  -0.581929  -0.773749  0  2.251274  0
O  O93  1  0.40722674  0.82818473  0.14687278  1  0  -0.868933  0  1.991837  0  0  -0.793551  0  2.224507  0  0  -0.820721  0  2.186308  0  0  -0.581938  -0.77396  0  2.251022  0
