# generated using pymatgen
data_Ni3H42C72N6O13
_symmetry_space_group_name_H-M   'P 1'
_cell_length_a   18.68609319
_cell_length_b   18.57281334
_cell_length_c   18.56473420
_cell_angle_alpha   98.93948187
_cell_angle_beta   98.67275014
_cell_angle_gamma   98.69006978
_symmetry_Int_Tables_number   1
_chemical_formula_structural   Ni3H42C72N6O13
_chemical_formula_sum   'Ni6 H84 C144 N12 O26'
_cell_volume   6190.62552460
_cell_formula_units_Z   2
loop_
 _symmetry_equiv_pos_site_id
 _symmetry_equiv_pos_as_xyz
  1  'x, y, z'
loop_
 _atom_site_type_symbol
 _atom_site_label
 _atom_site_symmetry_multiplicity
 _atom_site_fract_x
 _atom_site_fract_y
 _atom_site_fract_z
 _atom_site_occupancy
 _atom_site_pbe_bader_charge
 _atom_site_pbe_bader_spin_density
 _atom_site_pbe_cm5_charge
 _atom_site_pbe_ddec_charge
 _atom_site_pbe_ddec_spin_density
 _atom_site_pbe_ddec_sum_bond_order
 _atom_site_pbe_magmom
Ni  Ni0  1  0.25010479  0.18465009  0.31566967  1  1.300355  1.035377  0.711464  1.000972  1.187976  2.638647  1.022
Ni  Ni1  1  0.31578075  0.25011445  0.18484117  1  1.304056  1.030826  0.712197  0.999725  1.182557  2.649684  1.017
Ni  Ni2  1  0.18455685  0.31555983  0.25004275  1  1.299612  1.03208  0.712543  1.000705  1.184107  2.648686  1.018
Ni  Ni3  1  0.74990332  0.81535075  0.68433428  1  1.300499  1.035483  0.711513  1.001089  1.188118  2.638808  1.022
Ni  Ni4  1  0.68422095  0.74987546  0.81515184  1  1.304332  1.030886  0.712311  0.999935  1.18263  2.649829  1.017
Ni  Ni5  1  0.81543256  0.68444628  0.74995414  1  1.303046  1.031781  0.712689  1.000434  1.183783  2.649608  1.018
H  H6  1  0.44811332  0.71066860  0.69556766  1  0.076026  0.000415  0.107935  0.114173  0.000215  0.984923  0.0
H  H7  1  0.32933516  0.75530619  0.66283876  1  0.117278  0.000208  0.103099  0.106147  9.3e-05  1.003525  0.0
H  H8  1  0.45106214  0.95997130  0.62969909  1  0.058214  0.000256  0.099711  0.09823  0.000116  1.009902  0.0
H  H9  1  0.56707264  0.91300880  0.65627709  1  0.081685  0.000193  0.100895  0.100038  8.9e-05  1.032722  0.0
H  H10  1  0.36354246  0.94896784  0.54211432  1  0.095075  4.1e-05  0.104845  0.110186  2.4e-05  1.025847  0.0
H  H11  1  0.18190451  0.08192355  0.54055297  1  0.105166  0.000501  0.111076  0.119063  0.000246  0.989842  0.0
H  H12  1  0.18606615  0.16816206  0.45029856  1  0.113842  0.000939  0.121852  0.086833  0.000297  1.034958  0.001
H  H13  1  0.69570929  0.44752115  0.71055044  1  0.116842  0.000412  0.108282  0.114654  0.000217  0.984203  0.0
H  H14  1  0.66236925  0.32830710  0.75551011  1  0.108207  0.000193  0.103717  0.106954  8.5e-05  1.002982  0.0
H  H15  1  0.62962787  0.45241025  0.96019394  1  0.047648  0.000258  0.099713  0.098214  0.000116  1.010644  0.0
H  H16  1  0.65681011  0.56880971  0.91291323  1  0.094036  0.000179  0.100326  0.098841  7.8e-05  1.034394  0.0
H  H17  1  0.54170472  0.36444669  0.94900543  1  0.081248  4e-05  0.104097  0.109912  2.3e-05  1.025337  0.0
H  H18  1  0.54029909  0.18218336  0.08203042  1  0.112628  0.000499  0.110987  0.118908  0.000246  0.988448  0.0
H  H19  1  0.45027284  0.18628459  0.16825572  1  0.121149  0.000933  0.121907  0.087323  0.000295  1.035214  0.001
H  H20  1  0.71107170  0.69551922  0.44806939  1  0.078828  0.000383  0.108431  0.114568  0.000194  0.985642  0.0
H  H21  1  0.75610332  0.66230868  0.32860887  1  0.113327  0.000192  0.103466  0.105341  8.5e-05  1.004439  0.0
H  H22  1  0.95950776  0.63006079  0.45202346  1  0.04408  0.000245  0.10032  0.098287  0.00011  1.009599  0.0
H  H23  1  0.91217880  0.65694298  0.56863338  1  0.10168  0.000175  0.100624  0.099054  7.8e-05  1.034398  0.0
H  H24  1  0.94891209  0.54185622  0.36397603  1  0.089198  4e-05  0.103966  0.108557  2.4e-05  1.025635  0.0
H  H25  1  0.08173663  0.54072378  0.18199564  1  0.105462  0.000505  0.111424  0.120022  0.000247  0.989098  0.0
H  H26  1  0.16810872  0.45073709  0.18652702  1  0.119055  0.000936  0.122238  0.088107  0.000296  1.034547  0.001
H  H27  1  0.78854099  0.05191402  0.80444662  1  0.085361  0.000355  0.108437  0.114676  0.00018  0.986062  0.0
H  H28  1  0.74379893  0.17155916  0.83783026  1  0.110653  0.000157  0.103624  0.106088  7e-05  1.003381  0.0
H  H29  1  0.54022868  0.04850221  0.87009182  1  0.05908  0.000212  0.100112  0.098364  9.6e-05  1.010446  0.0
H  H30  1  0.58735758  0.93172368  0.84313013  1  0.098823  0.000164  0.100065  0.098537  6.9e-05  1.034642  0.0
H  H31  1  0.55120258  0.13644918  0.95829382  1  0.093355  5.1e-05  0.104207  0.108749  3.1e-05  1.026077  0.0
H  H32  1  0.41831652  0.31816859  0.95967864  1  0.109136  0.000445  0.110889  0.118931  0.00022  0.989195  0.0
H  H33  1  0.33218351  0.31357213  0.04985895  1  0.122102  0.000884  0.122452  0.087909  0.000267  1.035557  0.001
H  H34  1  0.05199462  0.80438270  0.78906327  1  0.079278  0.000386  0.107586  0.113534  0.0002  0.986716  0.0
H  H35  1  0.17088903  0.83725956  0.74465984  1  0.120871  0.000173  0.10315  0.106013  7.7e-05  1.003437  0.0
H  H36  1  0.04935135  0.87041393  0.53983181  1  0.055082  0.000229  0.099879  0.099523  0.000103  1.009467  0.0
H  H37  1  0.93324378  0.84376794  0.58664235  1  0.07654  0.000181  0.100531  0.099588  8e-05  1.031919  0.0
H  H38  1  0.13678045  0.95798134  0.55112624  1  0.097639  5.2e-05  0.105075  0.11097  3.2e-05  1.02436  0.0
H  H39  1  0.31822627  0.95972888  0.41815442  1  0.090011  0.000447  0.110912  0.118992  0.000219  0.988906  0.0
H  H40  1  0.31410957  0.05018679  0.33215131  1  0.112286  0.000884  0.122147  0.086776  0.00027  1.036711  0.001
H  H41  1  0.80423181  0.78914755  0.05244619  1  0.077329  0.000388  0.108203  0.114209  0.000201  0.985126  0.0
H  H42  1  0.83773030  0.74445496  0.17186890  1  0.105349  0.000156  0.103577  0.105942  6.9e-05  1.003986  0.0
H  H43  1  0.87044902  0.53962844  0.04809280  1  0.036284  0.00023  0.09968  0.098115  0.000103  1.009997  0.0
H  H44  1  0.84318891  0.58668623  0.93149105  1  0.095193  0.000165  0.100151  0.09876  6.8e-05  1.03517  0.0
H  H45  1  0.95834833  0.55114819  0.13593461  1  0.086474  5.1e-05  0.103911  0.109243  3.1e-05  1.025843  0.0
H  H46  1  0.96005004  0.41808600  0.31795517  1  0.084003  0.00045  0.111006  0.118746  0.000219  0.989373  0.0
H  H47  1  0.05026955  0.33207259  0.31378479  1  0.117251  0.000885  0.122147  0.08719  0.000268  1.036744  0.001
H  H48  1  0.55191530  0.28931591  0.30443644  1  0.076626  0.000415  0.108031  0.114239  0.000215  0.984964  0.0
H  H49  1  0.67068298  0.24466266  0.33716912  1  0.124439  0.000208  0.103202  0.1062  9.3e-05  1.003546  0.0
H  H50  1  0.54892994  0.04001446  0.37030997  1  0.057784  0.000256  0.099732  0.098212  0.000116  1.009829  0.0
H  H51  1  0.43293116  0.08698526  0.34372180  1  0.082021  0.000193  0.100851  0.100024  8.9e-05  1.032747  0.0
H  H52  1  0.63646070  0.05099704  0.45789905  1  0.095076  4.1e-05  0.104885  0.110059  2.4e-05  1.026155  0.0
H  H53  1  0.81810915  0.91805154  0.45945627  1  0.106156  0.000501  0.111027  0.119207  0.000246  0.989502  0.0
H  H54  1  0.81394834  0.83182670  0.54972439  1  0.113472  0.00094  0.121748  0.086682  0.000298  1.035132  0.001
H  H55  1  0.30430027  0.55246758  0.28943505  1  0.116978  0.000411  0.108169  0.114576  0.000217  0.984596  0.0
H  H56  1  0.33764648  0.67167684  0.24447022  1  0.108893  0.000193  0.103748  0.10707  8.5e-05  1.003182  0.0
H  H57  1  0.37039609  0.54756591  0.03979240  1  0.047315  0.000258  0.099854  0.098537  0.000116  1.0101  0.0
H  H58  1  0.34320048  0.43117151  0.08707928  1  0.093933  0.000179  0.100248  0.098845  7.8e-05  1.034305  0.0
H  H59  1  0.45830666  0.63553975  0.05096975  1  0.08097  4e-05  0.104202  0.11009  2.3e-05  1.025517  0.0
H  H60  1  0.45971826  0.81779155  0.91795516  1  0.11321  0.000499  0.110907  0.118816  0.000246  0.988347  0.0
H  H61  1  0.54974719  0.81369626  0.83173343  1  0.120464  0.000934  0.121923  0.087446  0.000295  1.035181  0.001
H  H62  1  0.28888319  0.30448182  0.55194738  1  0.079764  0.000382  0.108117  0.11425  0.000194  0.985641  0.0
H  H63  1  0.24384561  0.33770608  0.67139624  1  0.113096  0.000192  0.10335  0.105195  8.6e-05  1.004557  0.0
H  H64  1  0.04046939  0.37000589  0.54796200  1  0.043581  0.000244  0.100389  0.098635  0.00011  1.009089  0.0
H  H65  1  0.08781208  0.34310654  0.43136282  1  0.100632  0.000175  0.100518  0.098946  7.8e-05  1.034627  0.0
H  H66  1  0.05103415  0.45816959  0.63602076  1  0.087969  4e-05  0.103893  0.108448  2.4e-05  1.025683  0.0
H  H67  1  0.91823243  0.45932527  0.81801898  1  0.10507  0.000504  0.111229  0.119721  0.000247  0.989256  0.0
H  H68  1  0.83186870  0.54931523  0.81348144  1  0.118163  0.000937  0.122361  0.088359  0.000296  1.034378  0.001
H  H69  1  0.21147666  0.94806956  0.19555282  1  0.085343  0.000354  0.108429  0.114745  0.000179  0.985957  0.0
H  H70  1  0.25621498  0.82842160  0.16216164  1  0.071834  0.000161  0.103624  0.107035  6.9e-05  1.00248  0.0
H  H71  1  0.45978423  0.95147623  0.12989415  1  0.058648  0.000212  0.100099  0.098237  9.6e-05  1.010741  0.0
H  H72  1  0.41266449  0.06825417  0.15687071  1  0.097947  0.000164  0.10012  0.098631  6.9e-05  1.034409  0.0
H  H73  1  0.44882730  0.86353840  0.04169915  1  0.093162  5.1e-05  0.104193  0.108761  3.1e-05  1.026162  0.0
H  H74  1  0.58171896  0.68181299  0.04031102  1  0.109208  0.000445  0.110928  0.118988  0.000221  0.989057  0.0
H  H75  1  0.66783935  0.68641313  0.95012439  1  0.121202  0.000886  0.122542  0.088183  0.000268  1.03524  0.001
H  H76  1  0.94802267  0.19560169  0.21095888  1  0.079105  0.000386  0.107667  0.113562  0.000199  0.986954  0.0
H  H77  1  0.82912351  0.16271476  0.25535124  1  0.121579  0.000173  0.103189  0.105931  7.7e-05  1.00332  0.0
H  H78  1  0.95065116  0.12955734  0.46018574  1  0.053783  0.000229  0.099927  0.099596  0.000103  1.009638  0.0
H  H79  1  0.06676026  0.15620955  0.41338187  1  0.079056  0.000181  0.10058  0.099689  8e-05  1.032162  0.0
H  H80  1  0.86322857  0.04200367  0.44889519  1  0.097548  5.2e-05  0.10502  0.11084  3.2e-05  1.024512  0.0
H  H81  1  0.68179162  0.04026058  0.58186274  1  0.090324  0.000447  0.110947  0.119044  0.00022  0.98883  0.0
H  H82  1  0.68590344  0.94980126  0.66786050  1  0.12483  0.000883  0.122175  0.086922  0.000271  1.036694  0.001
H  H83  1  0.19576871  0.21089520  0.94753540  1  0.07822  0.000387  0.108271  0.114347  0.000201  0.985539  0.0
H  H84  1  0.16227119  0.25559774  0.82811826  1  0.105512  0.000156  0.103538  0.105984  6.9e-05  1.004031  0.0
H  H85  1  0.12951254  0.46039964  0.95191228  1  0.035225  0.00023  0.099817  0.098234  0.000103  1.010016  0.0
H  H86  1  0.15678172  0.41333384  0.06850181  1  0.094385  0.000165  0.100194  0.098854  6.8e-05  1.035074  0.0
H  H87  1  0.04162965  0.44890807  0.86407190  1  0.085997  5.1e-05  0.104012  0.109243  3.1e-05  1.025778  0.0
H  H88  1  0.03991073  0.58193991  0.68203111  1  0.085487  0.00045  0.111119  0.118914  0.000219  0.989173  0.0
H  H89  1  0.94969128  0.66795009  0.68619827  1  0.116738  0.000886  0.122119  0.087189  0.000269  1.03668  0.001
C  C90  1  0.58796988  0.78338910  0.69353928  1  1.562902  0.003161  0.216408  0.579169  0.002854  4.166091  0.001
C  C91  1  0.51511776  0.80803619  0.67557483  1  -0.004966  0.014425  -0.01341  -0.025711  0.008576  3.948412  0.011
C  C92  1  0.44792749  0.76477369  0.67968752  1  -0.054033  0.000792  -0.082335  -0.094573  0.00021  3.970317  0.0
C  C93  1  0.38176192  0.78984022  0.66194838  1  -0.073995  0.000677  -0.085856  -0.11606  0.000321  3.966114  0.0
C  C94  1  0.38129483  0.85933349  0.64092124  1  -0.105042  -0.000556  -0.00683  0.040119  -0.00065  3.985634  0.0
C  C95  1  0.44931875  0.90405364  0.64140351  1  -0.012412  0.000796  -0.095117  -0.131657  0.000394  4.006249  0.001
C  C96  1  0.51489455  0.87845434  0.65730638  1  -0.018776  0.000535  -0.089294  -0.094336  2.4e-05  4.005344  0.0
C  C97  1  0.31211107  0.88494792  0.61471749  1  0.580075  0.000193  0.118708  0.219994  8.3e-05  4.019191  0.0
C  C98  1  0.31330085  0.93284443  0.56307263  1  -0.06149  -0.000523  -0.090474  -0.227399  -0.000586  3.922912  0.0
C  C99  1  0.21176691  0.07221685  0.49492861  1  -0.077449  0.003148  -0.08152  -0.177637  0.001743  3.94608  0.002
C  C100  1  0.21368381  0.12066134  0.44498355  1  0.533448  -0.002632  0.06002  0.109802  -0.003029  3.933581  -0.002
C  C101  1  0.69413906  0.58828275  0.78300586  1  1.564967  0.003294  0.219282  0.582539  0.002924  4.162597  0.001
C  C102  1  0.67589987  0.51546874  0.80795633  1  -0.067033  0.013797  -0.012958  -0.024855  0.00818  3.950954  0.011
C  C103  1  0.67976204  0.44763234  0.76466842  1  -0.025262  0.000689  -0.081762  -0.094597  0.000174  3.97225  0.0
C  C104  1  0.66167903  0.38136438  0.78987247  1  -0.067397  0.000603  -0.085709  -0.116721  0.000278  3.968815  0.0
C  C105  1  0.64058574  0.38170673  0.85943356  1  -0.008776  -0.000546  -0.008104  0.040183  -0.000643  3.990013  0.0
C  C106  1  0.64133728  0.45035778  0.90422182  1  -0.095293  0.000781  -0.093138  -0.131357  0.000393  4.005942  0.001
C  C107  1  0.65760474  0.51603610  0.87846238  1  -0.035263  0.000519  -0.089348  -0.092487  1.4e-05  4.004063  0.0
C  C108  1  0.61429308  0.31251341  0.88520600  1  0.588257  0.00019  0.118383  0.218529  8.2e-05  4.020823  0.0
C  C109  1  0.56273946  0.31389020  0.93303190  1  -0.060809  -0.000504  -0.089587  -0.226254  -0.000565  3.920167  0.0
C  C110  1  0.49477802  0.21193788  0.07228886  1  -0.080798  0.003123  -0.080325  -0.177079  0.001728  3.946254  0.002
C  C111  1  0.44487983  0.21373401  0.12064802  1  0.521715  -0.002574  0.059585  0.108979  -0.00297  3.932973  -0.002
C  C112  1  0.78314255  0.69376719  0.58866054  1  1.559323  0.003293  0.218153  0.579271  0.002889  4.161306  0.001
C  C113  1  0.80786215  0.67574222  0.51562791  1  -0.011591  0.013291  -0.012936  -0.023363  0.007904  3.948511  0.01
C  C114  1  0.76491539  0.67965721  0.44796876  1  -0.049658  0.000776  -0.08086  -0.093768  0.000215  3.972731  0.0
C  C115  1  0.79016594  0.66170741  0.38159251  1  -0.065743  0.000579  -0.08538  -0.114847  0.000268  3.967372  0.0
C  C116  1  0.85940094  0.64077929  0.38166762  1  -0.055096  -0.000462  -0.007341  0.040889  -0.000553  3.988447  0.0
C  C117  1  0.90382147  0.64160742  0.45017646  1  -0.042838  0.000723  -0.09415  -0.132269  0.00036  4.008214  0.0
C  C118  1  0.87802657  0.65766321  0.51594227  1  -0.041375  0.0005  -0.089396  -0.092451  1.3e-05  4.004581  0.0
C  C119  1  0.88514067  0.61442780  0.31230999  1  0.585432  0.000188  0.118503  0.218391  8.2e-05  4.023297  0.0
C  C120  1  0.93292190  0.56281881  0.31346658  1  -0.06287  -0.000489  -0.089224  -0.224223  -0.000549  3.921733  0.0
C  C121  1  0.07218654  0.49504694  0.21180488  1  -0.083882  0.003108  -0.082065  -0.179802  0.001722  3.947345  0.002
C  C122  1  0.12060645  0.44519662  0.21383342  1  0.53172  -0.002561  0.059636  0.108439  -0.002949  3.93173  -0.002
C  C123  1  0.71620356  0.91159237  0.80574652  1  1.564559  0.002742  0.22124  0.582167  0.002442  4.155422  0.001
C  C124  1  0.69164481  0.98462363  0.82425609  1  -0.0139  0.011084  -0.013903  -0.025338  0.006571  3.952652  0.008
C  C125  1  0.73475112  0.05218531  0.82039443  1  -0.111518  0.000659  -0.080442  -0.093537  0.000168  3.972222  0.0
C  C126  1  0.70966878  0.11862407  0.83842382  1  -0.004105  0.000503  -0.085703  -0.116053  0.000231  3.967327  0.0
C  C127  1  0.64044768  0.11864675  0.85931589  1  -0.002833  -0.000449  -0.007658  0.040317  -0.000532  3.988569  0.0
C  C128  1  0.59589448  0.05023287  0.85852911  1  -0.117278  0.000648  -0.094684  -0.132235  0.000319  4.008546  0.0
C  C129  1  0.62154956  0.98439459  0.84244019  1  -0.034464  0.000496  -0.089323  -0.093913  6.2e-05  4.006521  0.0
C  C130  1  0.61484586  0.18806049  0.88564475  1  0.556596  0.000136  0.118693  0.220037  4.6e-05  4.022805  0.0
C  C131  1  0.56716222  0.18693887  0.93732193  1  -0.053835  -0.000499  -0.088805  -0.224301  -0.000567  3.923676  0.0
C  C132  1  0.42800127  0.28839263  0.00536223  1  -0.067563  0.003032  -0.080948  -0.177742  0.001679  3.947399  0.002
C  C133  1  0.37972087  0.28632259  0.05531879  1  0.511177  -0.002758  0.058816  0.108372  -0.00323  3.934682  -0.002
C  C134  1  0.91227743  0.80597291  0.71604464  1  1.538243  0.002887  0.220036  0.581408  0.002517  4.154747  0.001
C  C135  1  0.98514375  0.82438461  0.69158646  1  0.001609  0.012105  -0.013773  -0.025057  0.00726  3.949453  0.009
C  C136  1  0.05228089  0.82030821  0.73499322  1  -0.034713  0.000681  -0.081573  -0.094261  0.000173  3.972839  0.0
C  C137  1  0.11848087  0.83811560  0.71005955  1  -0.08194  0.000598  -0.086319  -0.115879  0.000279  3.96918  0.0
C  C138  1  0.11899458  0.85910926  0.64056550  1  -0.067539  -0.000544  -0.007091  0.040282  -0.000631  3.986445  0.0
C  C139  1  0.05103046  0.85868068  0.59573414  1  -0.058483  0.000719  -0.096741  -0.136247  0.000353  4.009012  0.0
C  C140  1  0.98541677  0.84276761  0.62124366  1  -0.001526  0.000536  -0.089465  -0.094822  7.3e-05  4.008859  0.0
C  C141  1  0.18821174  0.88530597  0.61506401  1  0.550072  0.00014  0.119636  0.22126  4.7e-05  4.017669  0.0
C  C142  1  0.18704196  0.93702274  0.56725172  1  -0.054066  -0.000517  -0.090514  -0.227736  -0.000587  3.924576  0.0
C  C143  1  0.28841030  0.00538649  0.42797251  1  -0.049118  0.003061  -0.08102  -0.177927  0.001695  3.947824  0.002
C  C144  1  0.28654116  0.05546265  0.37967483  1  0.523132  -0.002796  0.059296  0.110945  -0.003265  3.932474  -0.002
C  C145  1  0.80539417  0.71638076  0.91188760  1  1.570138  0.002825  0.223133  0.586039  0.002528  4.152818  0.001
C  C146  1  0.82403583  0.69161865  0.98474228  1  -0.009676  0.01145  -0.013305  -0.025848  0.006799  3.955944  0.009
C  C147  1  0.82021928  0.73506434  0.05249785  1  -0.036332  0.000625  -0.081637  -0.094203  0.000145  3.974849  0.0
C  C148  1  0.83834981  0.71001880  0.11883424  1  -0.068587  0.000517  -0.085983  -0.116265  0.000232  3.96915  0.0
C  C149  1  0.85940675  0.64045338  0.11858422  1  -0.101758  -0.000515  -0.008054  0.040573  -0.000598  3.990091  0.0
C  C150  1  0.85872166  0.59557575  0.05001445  1  -0.00244  0.000695  -0.094297  -0.131655  0.000345  4.009759  0.0
C  C151  1  0.84242693  0.62118485  0.98425663  1  -0.027524  0.000533  -0.0895  -0.094504  7.6e-05  4.009961  0.0
C  C152  1  0.88568671  0.61482661  0.18784415  1  0.56029  0.000136  0.119259  0.219579  4.6e-05  4.023019  0.0
C  C153  1  0.93732617  0.56710148  0.18650035  1  -0.053402  -0.000488  -0.089724  -0.225847  -0.000555  3.921213  0.0
C  C154  1  0.00558617  0.42796204  0.28825841  1  -0.038043  0.003031  -0.080449  -0.177427  0.001686  3.945833  0.002
C  C155  1  0.05559158  0.37972187  0.28642082  1  0.51644  -0.002723  0.05904  0.109406  -0.003191  3.934377  -0.002
C  C156  1  0.41204496  0.21660268  0.30646051  1  1.562676  0.003153  0.216447  0.578984  0.00285  4.166538  0.001
C  C157  1  0.48489647  0.19195599  0.32442870  1  -0.006152  0.014429  -0.013401  -0.025464  0.008577  3.948147  0.011
C  C158  1  0.55209009  0.23521147  0.32031594  1  -0.053977  0.00079  -0.082576  -0.094848  0.000209  3.970444  0.0
C  C159  1  0.61825122  0.21013588  0.33805932  1  -0.081162  0.000679  -0.085824  -0.115957  0.000321  3.966201  0.0
C  C160  1  0.61870889  0.14064628  0.35908713  1  -0.104558  -0.000558  -0.006755  0.0402  -0.000651  3.985506  0.0
C  C161  1  0.55068167  0.09592880  0.35860314  1  -0.013254  0.000797  -0.095185  -0.131673  0.000395  4.005988  0.001
C  C162  1  0.48511143  0.12153793  0.34269473  1  -0.018342  0.000535  -0.089338  -0.094558  2.4e-05  4.005174  0.0
C  C163  1  0.68789475  0.11502890  0.38529882  1  0.58006  0.000194  0.118701  0.219788  8.3e-05  4.018531  0.0
C  C164  1  0.68670173  0.06713127  0.43693920  1  -0.062289  -0.000525  -0.090544  -0.227138  -0.000587  3.92259  0.0
C  C165  1  0.78825215  0.92776904  0.50508599  1  -0.078741  0.00315  -0.081456  -0.177676  0.001744  3.945547  0.002
C  C166  1  0.78633359  0.87932915  0.55502992  1  0.532583  -0.002636  0.060076  0.110088  -0.003032  3.933867  -0.002
C  C167  1  0.30585392  0.41170449  0.21697989  1  1.564754  0.0033  0.219548  0.582728  0.002924  4.162369  0.001
C  C168  1  0.32410311  0.48451495  0.19202724  1  -0.067119  0.013793  -0.012888  -0.024578  0.008179  3.950599  0.011
C  C169  1  0.32024309  0.55235555  0.23531728  1  -0.02519  0.00069  -0.08164  -0.094551  0.000175  3.972486  0.0
C  C170  1  0.33833555  0.61861878  0.21011078  1  -0.067197  0.000603  -0.085688  -0.117008  0.000277  3.96905  0.0
C  C171  1  0.35942776  0.61827349  0.14054956  1  -0.009489  -0.000545  -0.008318  0.040514  -0.000642  3.989587  0.0
C  C172  1  0.35867070  0.54962304  0.09576049  1  -0.094597  0.00078  -0.093205  -0.131799  0.000393  4.005679  0.001
C  C173  1  0.34240151  0.48394873  0.12152354  1  -0.03603  0.00052  -0.089262  -0.09249  1.4e-05  4.003934  0.0
C  C174  1  0.38571994  0.68746457  0.11477291  1  0.588964  0.00019  0.1184  0.218336  8.2e-05  4.020622  0.0
C  C175  1  0.43727900  0.68609315  0.06695040  1  -0.060932  -0.000505  -0.089624  -0.226326  -0.000566  3.920405  0.0
C  C176  1  0.50524420  0.78804446  0.92770143  1  -0.080638  0.003124  -0.080116  -0.176854  0.001728  3.945897  0.002
C  C177  1  0.55513906  0.78624989  0.87934252  1  0.522695  -0.002577  0.059631  0.108773  -0.002972  3.933  -0.002
C  C178  1  0.21683462  0.30623327  0.41134364  1  1.558876  0.003288  0.21786  0.578858  0.002883  4.161643  0.001
C  C179  1  0.19211115  0.32427610  0.48437157  1  -0.010851  0.013298  -0.01296  -0.023409  0.007908  3.948081  0.01
C  C180  1  0.23504346  0.32035996  0.55203731  1  -0.050685  0.000776  -0.080473  -0.093398  0.000213  3.972138  0.0
C  C181  1  0.20979119  0.33832364  0.61841286  1  -0.064081  0.000579  -0.085088  -0.114635  0.000269  3.966638  0.0
C  C182  1  0.14056668  0.35927236  0.61833157  1  -0.055265  -0.000463  -0.007386  0.041215  -0.000554  3.987528  0.0
C  C183  1  0.09615664  0.35845497  0.54981977  1  -0.035064  0.000721  -0.094448  -0.132934  0.00036  4.007376  0.0
C  C184  1  0.12195545  0.34238079  0.48405641  1  -0.049775  0.000501  -0.089171  -0.092265  1.2e-05  4.004267  0.0
C  C185  1  0.11481714  0.38561057  0.68768485  1  0.587578  0.000188  0.118194  0.218103  8.2e-05  4.022468  0.0
C  C186  1  0.06702650  0.43721558  0.68653091  1  -0.063054  -0.00049  -0.089008  -0.223893  -0.00055  3.921051  0.0
C  C187  1  0.92778535  0.50499666  0.78820662  1  -0.083293  0.003109  -0.081582  -0.178968  0.001722  3.947103  0.002
C  C188  1  0.87936878  0.55484655  0.78617586  1  0.53209  -0.002566  0.059381  0.10769  -0.002953  3.931385  -0.002
C  C189  1  0.28381792  0.08839520  0.19425368  1  1.563984  0.002738  0.221345  0.582242  0.002436  4.155497  0.001
C  C190  1  0.30837562  0.01536487  0.17573978  1  -0.030842  0.011085  -0.014076  -0.025341  0.006566  3.952927  0.008
C  C191  1  0.26526710  0.94780331  0.17960217  1  -0.097775  0.000649  -0.080279  -0.093662  0.000167  3.972114  0.0
C  C192  1  0.29034721  0.88135810  0.16157566  1  0.035088  0.000499  -0.085658  -0.11661  0.000231  3.966806  0.0
C  C193  1  0.35956625  0.88133128  0.14067610  1  -0.003076  -0.00045  -0.007919  0.040172  -0.000533  3.989477  0.0
C  C194  1  0.40412271  0.94974466  0.14146603  1  -0.117376  0.000648  -0.094715  -0.132261  0.000319  4.008657  0.0
C  C195  1  0.37847085  0.01558514  0.15756015  1  -0.029193  0.000492  -0.089034  -0.093555  6.1e-05  4.006151  0.0
C  C196  1  0.38516981  0.81192067  0.11434050  1  0.554529  0.000136  0.118813  0.21909  4.6e-05  4.02496  0.0
C  C197  1  0.43285564  0.81304378  0.06266393  1  -0.049924  -0.000499  -0.088885  -0.224201  -0.000567  3.924754  0.0
C  C198  1  0.57202753  0.71159312  0.99462972  1  -0.068223  0.003034  -0.081071  -0.178121  0.00168  3.947351  0.002
C  C199  1  0.62030034  0.71366017  0.94466495  1  0.511673  -0.002762  0.058822  0.108175  -0.003234  3.934459  -0.002
C  C200  1  0.08772822  0.19402622  0.28397533  1  1.538274  0.002884  0.219852  0.580871  0.002512  4.154835  0.001
C  C201  1  0.01486418  0.17559583  0.30843511  1  0.002755  0.012106  -0.013626  -0.024656  0.00726  3.949006  0.009
C  C202  1  0.94772872  0.17967366  0.26502671  1  -0.035626  0.00068  -0.081421  -0.094277  0.000172  3.972687  0.0
C  C203  1  0.88152820  0.16186399  0.28995938  1  -0.082551  0.000599  -0.086336  -0.115639  0.000279  3.96869  0.0
C  C204  1  0.88100950  0.14087156  0.35945442  1  -0.066144  -0.000545  -0.007195  0.040377  -0.000632  3.98648  0.0
C  C205  1  0.94897313  0.14129734  0.40428362  1  -0.058746  0.000719  -0.096868  -0.136453  0.000353  4.009324  0.0
C  C206  1  0.01458569  0.15721019  0.37877496  1  -0.004184  0.000535  -0.089642  -0.095161  7.2e-05  4.009416  0.0
C  C207  1  0.81179403  0.11467464  0.38495400  1  0.549842  0.00014  0.119372  0.220605  4.7e-05  4.017713  0.0
C  C208  1  0.81296765  0.06296022  0.43276731  1  -0.053892  -0.000518  -0.090451  -0.227357  -0.000588  3.924441  0.0
C  C209  1  0.71160324  0.99459999  0.57204182  1  -0.049267  0.003062  -0.081053  -0.177685  0.001697  3.947473  0.002
C  C210  1  0.71347405  0.94452415  0.62033875  1  0.510712  -0.002797  0.059135  0.110557  -0.003269  3.932923  -0.002
C  C211  1  0.19460087  0.28363634  0.08809910  1  1.571208  0.002814  0.222854  0.585615  0.002525  4.153652  0.001
C  C212  1  0.17596345  0.30841337  0.01525135  1  -0.011462  0.011457  -0.013161  -0.025481  0.0068  3.956073  0.009
C  C213  1  0.17978773  0.26498119  0.94749174  1  -0.036321  0.000626  -0.081451  -0.094298  0.000144  3.975305  0.0
C  C214  1  0.16164999  0.29002644  0.88115788  1  -0.068234  0.000518  -0.086266  -0.11647  0.000232  3.969173  0.0
C  C215  1  0.14057762  0.35958349  0.88140775  1  -0.099873  -0.000515  -0.007722  0.040364  -0.000598  3.989267  0.0
C  C216  1  0.14126208  0.40445384  0.94998484  1  -0.000686  0.000695  -0.094597  -0.131941  0.000345  4.010366  0.0
C  C217  1  0.15755692  0.37884263  0.01573640  1  -0.026364  0.000533  -0.089635  -0.094656  7.6e-05  4.01062  0.0
C  C218  1  0.11427822  0.38521362  0.81215432  1  0.550822  0.000135  0.118828  0.219885  4.6e-05  4.020104  0.0
C  C219  1  0.06263758  0.43293904  0.81350229  1  -0.046412  -0.000488  -0.089336  -0.225288  -0.000555  3.91942  0.0
C  C220  1  0.99438271  0.57206969  0.71173716  1  -0.037371  0.003033  -0.080759  -0.178034  0.001686  3.946392  0.002
C  C221  1  0.94437516  0.62030785  0.71357083  1  0.515768  -0.002729  0.058879  0.109254  -0.003195  3.934248  -0.002
C  C222  1  0.25016444  0.96061010  0.53953430  1  -0.078455  0.000156  0.004379  0.11166  -6e-06  4.040968  0.0
C  C223  1  0.25010590  0.01292352  0.48727505  1  -0.01411  -0.003596  0.009558  0.105668  -0.004009  3.997128  -0.002
C  C224  1  0.53937787  0.25044589  0.96081860  1  -0.066436  0.000149  0.004795  0.110997  -9e-06  4.042837  0.0
C  C225  1  0.48721486  0.25030138  0.01303594  1  -0.020746  -0.003543  0.008522  0.105474  -0.003951  3.99779  -0.002
C  C226  1  0.96076142  0.53937877  0.24994906  1  -0.068387  0.000147  0.00525  0.110994  -9e-06  4.041624  0.0
C  C227  1  0.01303028  0.48726179  0.24995799  1  -0.020489  -0.003506  0.008521  0.106237  -0.003908  3.997578  -0.002
C  C228  1  0.74984573  0.03937461  0.46048403  1  -0.077071  0.000156  0.004564  0.111725  -6e-06  4.040956  0.0
C  C229  1  0.74990765  0.98705968  0.51273928  1  -0.013488  -0.003602  0.00935  0.105312  -0.004016  3.997237  -0.002
C  C230  1  0.46064385  0.74953639  0.03916837  1  -0.067239  0.000149  0.005167  0.111359  -9e-06  4.04334  0.0
C  C231  1  0.51281232  0.74967916  0.98695542  1  -0.020872  -0.003547  0.008278  0.105646  -0.003955  3.997645  -0.002
C  C232  1  0.03920129  0.46065776  0.75005114  1  -0.066611  0.000148  0.0053  0.110695  -9e-06  4.042387  0.0
C  C233  1  0.98693780  0.51278333  0.75004882  1  -0.022353  -0.00351  0.008628  0.106469  -0.003913  3.998028  -0.002
N  N234  1  0.25012911  0.11234389  0.38813357  1  -1.177931  0.033016  -0.308453  -0.174742  0.019146  3.519888  0.03
N  N235  1  0.25015608  0.86056384  0.63940526  1  -1.171158  -0.000774  -0.306738  -0.341183  -0.000868  3.23155  -0.001
N  N236  1  0.38813863  0.25000660  0.11225942  1  -1.17837  0.033078  -0.307317  -0.172423  0.019198  3.515864  0.03
N  N237  1  0.63904787  0.25021854  0.86089525  1  -1.169337  -0.000756  -0.30571  -0.339431  -0.000849  3.235433  -0.001
N  N238  1  0.11232629  0.38825687  0.25016112  1  -1.175551  0.033156  -0.306997  -0.17266  0.019231  3.517003  0.03
N  N239  1  0.86089675  0.63912552  0.25011279  1  -1.168628  -0.000745  -0.305861  -0.339145  -0.000837  3.237767  -0.001
N  N240  1  0.74988774  0.88764705  0.61187935  1  -1.178346  0.033037  -0.308224  -0.174891  0.019157  3.520733  0.03
N  N241  1  0.74984917  0.13941560  0.36061139  1  -1.170166  -0.000775  -0.306636  -0.340875  -0.00087  3.231056  -0.001
N  N242  1  0.61187705  0.74997183  0.88772592  1  -1.180123  0.03309  -0.307568  -0.172546  0.019204  3.516221  0.03
N  N243  1  0.36096956  0.74975918  0.13908433  1  -1.169741  -0.000756  -0.305901  -0.339219  -0.000849  3.236401  -0.001
N  N244  1  0.88764918  0.61177553  0.74983672  1  -1.179756  0.033158  -0.306931  -0.172041  0.019227  3.516689  0.03
N  N245  1  0.13906110  0.36091399  0.74987901  1  -1.169648  -0.000745  -0.305974  -0.339494  -0.000837  3.237293  -0.001
O  O246  1  0.59200277  0.73515162  0.73494572  1  -1.097716  0.072188  -0.292339  -0.521828  0.03955  2.298932  0.064
O  O247  1  0.64054819  0.81663734  0.66789211  1  -1.113747  0.069415  -0.290425  -0.531678  0.038467  2.391703  0.063
O  O248  1  0.73564361  0.59193760  0.73497944  1  -1.104442  0.071783  -0.294519  -0.523453  0.039332  2.302425  0.064
O  O249  1  0.66824658  0.64129351  0.81598616  1  -1.108859  0.062769  -0.289798  -0.528542  0.034861  2.407857  0.057
O  O250  1  0.73514617  0.73528956  0.59273673  1  -1.09818  0.064749  -0.292926  -0.519948  0.035402  2.309958  0.057
O  O251  1  0.81617271  0.66789027  0.64135894  1  -1.108812  0.062488  -0.288703  -0.525789  0.034693  2.411219  0.057
O  O252  1  0.76375110  0.90798933  0.76371375  1  -1.092671  0.058851  -0.290284  -0.509518  0.032375  2.302722  0.052
O  O253  1  0.68342493  0.85881886  0.83174115  1  -1.107911  0.05474  -0.289229  -0.523716  0.030528  2.396109  0.05
O  O254  1  0.90872387  0.76417659  0.76394160  1  -1.091408  0.066908  -0.290547  -0.512392  0.036838  2.288364  0.059
O  O255  1  0.85961473  0.83167359  0.68290584  1  -1.112173  0.061762  -0.290573  -0.529048  0.034337  2.373316  0.056
O  O256  1  0.76344907  0.76403031  0.90868984  1  -1.098838  0.065743  -0.292249  -0.514133  0.036213  2.29217  0.058
O  O257  1  0.83138550  0.68353705  0.85883743  1  -1.110594  0.0547  -0.290349  -0.525752  0.030532  2.392897  0.05
O  O258  1  0.40800977  0.26481920  0.26503084  1  -1.097413  0.072211  -0.292377  -0.521709  0.03956  2.299006  0.064
O  O259  1  0.35946849  0.18337317  0.33212562  1  -1.113454  0.0694  -0.290346  -0.531535  0.038462  2.391686  0.063
O  O260  1  0.26434064  0.40805625  0.26499841  1  -1.104158  0.071726  -0.294705  -0.523679  0.039299  2.302996  0.063
O  O261  1  0.33176433  0.35869529  0.18401896  1  -1.109098  0.062771  -0.289916  -0.52867  0.034856  2.407499  0.057
O  O262  1  0.26481671  0.26469619  0.40726805  1  -1.098067  0.06474  -0.292743  -0.51969  0.035395  2.310373  0.057
O  O263  1  0.18381878  0.33211944  0.35864535  1  -1.108061  0.062515  -0.288683  -0.525785  0.034712  2.410772  0.057
O  O264  1  0.23628391  0.09200228  0.23630281  1  -1.092199  0.058818  -0.290453  -0.509768  0.032361  2.302749  0.052
O  O265  1  0.31658131  0.14116651  0.16824539  1  -1.108073  0.054699  -0.28921  -0.523637  0.030504  2.396102  0.05
O  O266  1  0.09127361  0.23584700  0.23609937  1  -1.091079  0.066858  -0.290441  -0.51218  0.036814  2.288795  0.059
O  O267  1  0.14038966  0.16831077  0.31709316  1  -1.112493  0.06176  -0.290542  -0.528811  0.034335  2.373228  0.056
O  O268  1  0.23655754  0.23599772  0.09129518  1  -1.099116  0.065736  -0.292134  -0.513954  0.036213  2.292255  0.058
O  O269  1  0.16859528  0.31646427  0.14114808  1  -1.11063  0.054719  -0.290303  -0.525739  0.03054  2.392989  0.05
O  O270  1  0.24552502  0.24550048  0.24546689  1  -0.809291  -0.072365  -0.470591  -0.765735  -0.078368  2.286675  -0.06
O  O271  1  0.75446783  0.75449431  0.75452547  1  -0.809186  -0.07241  -0.470725  -0.765868  -0.078387  2.287312  -0.06
