# generated using pymatgen
data_CoH6(C3N2)2
_symmetry_space_group_name_H-M   'P 1'
_cell_length_a   15.64903872
_cell_length_b   15.78312615
_cell_length_c   18.35022502
_cell_angle_alpha   90.00029169
_cell_angle_beta   89.99971028
_cell_angle_gamma   89.99996357
_symmetry_Int_Tables_number   1
_chemical_formula_structural   CoH6(C3N2)2
_chemical_formula_sum   'Co16 H96 C96 N64'
_cell_volume   4532.33588048
_cell_formula_units_Z   16
loop_
 _symmetry_equiv_pos_site_id
 _symmetry_equiv_pos_as_xyz
  1  'x, y, z'
loop_
 _atom_site_type_symbol
 _atom_site_label
 _atom_site_symmetry_multiplicity
 _atom_site_fract_x
 _atom_site_fract_y
 _atom_site_fract_z
 _atom_site_occupancy
 _atom_site_pbe_bader_charge
 _atom_site_pbe_bader_spin_density
 _atom_site_pbe_cm5_charge
 _atom_site_pbe_ddec_charge
 _atom_site_pbe_ddec_spin_density
 _atom_site_pbe_ddec_sum_bond_order
 _atom_site_pbe_magmom
Co  Co0  1  0.86529968  0.68894617  0.40103177  1  1.12243  2.533596  0.712325  0.64852  2.760338  2.77772  2.457
Co  Co1  1  0.67929158  0.99633631  0.32291882  1  1.127191  2.532412  0.71329  0.648757  2.758272  2.780076  2.457
Co  Co2  1  0.13470058  0.81105234  0.90103567  1  1.122336  2.533607  0.712293  0.648409  2.760356  2.77778  2.457
Co  Co3  1  0.32070913  0.50366554  0.82291947  1  1.127244  2.532396  0.71329  0.648797  2.758264  2.779986  2.457
Co  Co4  1  0.36530000  0.31104755  0.09896271  1  1.122445  2.533602  0.712387  0.648645  2.760369  2.777555  2.457
Co  Co5  1  0.17929164  0.00366324  0.17708301  1  1.127196  2.532408  0.713317  0.648878  2.758259  2.779945  2.457
Co  Co6  1  0.63469659  0.18895146  0.59896771  1  1.122467  2.533604  0.71229  0.648443  2.760354  2.777716  2.457
Co  Co7  1  0.82070705  0.49633750  0.67707874  1  1.127166  2.532412  0.713344  0.648883  2.758267  2.779991  2.457
Co  Co8  1  0.13470354  0.31105291  0.59896580  1  1.12244  2.533615  0.712323  0.64852  2.760365  2.777671  2.457
Co  Co9  1  0.32070524  0.00366340  0.67708311  1  1.127196  2.532407  0.713295  0.648802  2.758264  2.780076  2.457
Co  Co10  1  0.86530200  0.18894927  0.09896626  1  1.122534  2.533592  0.712312  0.648491  2.760346  2.777653  2.457
Co  Co11  1  0.67929153  0.49633480  0.17708028  1  1.127222  2.532404  0.713288  0.64885  2.758268  2.779922  2.457
Co  Co12  1  0.63470129  0.68894962  0.90103541  1  1.122361  2.533611  0.712357  0.648617  2.760362  2.777566  2.457
Co  Co13  1  0.82070838  0.99633710  0.82291838  1  1.127202  2.53241  0.71331  0.648819  2.758267  2.779997  2.457
Co  Co14  1  0.36530088  0.81104888  0.40103476  1  1.122565  2.5336  0.712314  0.648514  2.760363  2.777657  2.457
Co  Co15  1  0.17929233  0.50366347  0.32291883  1  1.12701  2.532425  0.713339  0.648901  2.758272  2.779894  2.457
H  H16  1  0.96469544  0.87084996  0.42122081  1  0.102242  0.002359  0.112495  0.104163  0.000895  1.010982  0.001
H  H17  1  0.87535102  0.01784523  0.38701519  1  0.075796  0.002235  0.11228  0.103023  0.000799  1.010979  0.001
H  H18  1  0.71801471  0.80567705  0.34792564  1  0.123376  0.001234  0.122684  0.079714  0.000122  1.037767  0.001
H  H19  1  0.92453415  0.77100195  0.55270680  1  0.078288  0.002256  0.110665  0.100604  0.000813  1.019473  0.001
H  H20  1  0.90227493  0.67964338  0.68121897  1  0.102714  0.002145  0.110608  0.103726  0.000739  1.030906  0.001
H  H21  1  0.81172297  0.53494658  0.50421503  1  0.08303  0.001388  0.12754  0.085851  0.000319  1.00104  0.001
H  H22  1  0.97550108  0.75384479  0.26431401  1  0.090269  0.002206  0.113004  0.104752  0.000762  1.016805  0.001
H  H23  1  0.11872081  0.66160212  0.22092164  1  0.079956  0.002243  0.113843  0.1056  0.000797  1.012639  0.001
H  H24  1  0.00978965  0.54663308  0.40629974  1  0.102814  0.001513  0.125775  0.082278  0.000329  1.008426  0.001
H  H25  1  0.57831747  0.54878559  0.32310770  1  0.086364  0.002239  0.110199  0.099661  0.000803  1.028143  0.001
H  H26  1  0.66375241  0.64328933  0.42860888  1  0.059527  0.002144  0.112514  0.102756  0.000725  1.011051  0.001
H  H27  1  0.83556028  0.58028731  0.26026548  1  0.1433  0.001489  0.124754  0.081524  0.000389  1.015905  0.001
H  H28  1  0.03530213  0.62915057  0.92121998  1  0.102256  0.002359  0.112543  0.104203  0.000895  1.010922  0.001
H  H29  1  0.12464707  0.48215485  0.88701716  1  0.075796  0.002235  0.112274  0.103002  0.000799  1.010974  0.001
H  H30  1  0.28198585  0.69432114  0.84792893  1  0.123747  0.001234  0.122671  0.079669  0.000122  1.037746  0.001
H  H31  1  0.07546496  0.72899830  0.05270869  1  0.078298  0.002256  0.110668  0.100605  0.000813  1.019417  0.001
H  H32  1  0.09772406  0.82035636  0.18122171  1  0.102628  0.002145  0.110569  0.10364  0.000739  1.030987  0.001
H  H33  1  0.18827643  0.96505465  0.00421964  1  0.08311  0.001387  0.127538  0.085829  0.000319  1.001014  0.001
H  H34  1  0.02449742  0.74615101  0.76432191  1  0.08999  0.002206  0.113001  0.104772  0.000762  1.016912  0.001
H  H35  1  0.88128114  0.83839405  0.72092514  1  0.080037  0.002243  0.11381  0.105495  0.000796  1.012694  0.001
H  H36  1  0.99020802  0.95337242  0.90630000  1  0.102592  0.001513  0.125798  0.082269  0.000328  1.008415  0.001
H  H37  1  0.42168197  0.95121119  0.82310225  1  0.086397  0.00224  0.110142  0.099578  0.000803  1.02822  0.001
H  H38  1  0.33625152  0.85670681  0.92860665  1  0.059239  0.002145  0.112536  0.102731  0.000725  1.010994  0.001
H  H39  1  0.16443505  0.91971163  0.76027081  1  0.143274  0.001489  0.12475  0.081541  0.000389  1.015894  0.001
H  H40  1  0.46469600  0.12914307  0.07877814  1  0.10237  0.00236  0.112466  0.10412  0.000896  1.010959  0.001
H  H41  1  0.37535341  0.98214911  0.11298578  1  0.076084  0.002234  0.112276  0.103022  0.000799  1.010972  0.001
H  H42  1  0.21801352  0.19431613  0.15207002  1  0.123356  0.001234  0.122686  0.079722  0.000122  1.037747  0.001
H  H43  1  0.42453504  0.22899659  0.94728660  1  0.078296  0.002257  0.110651  0.100567  0.000814  1.019409  0.001
H  H44  1  0.40227907  0.32036024  0.81877562  1  0.102569  0.002145  0.110549  0.103638  0.000739  1.03101  0.001
H  H45  1  0.31172214  0.46505203  0.99578268  1  0.083089  0.001387  0.127536  0.085822  0.000319  1.001075  0.001
H  H46  1  0.47549489  0.24615457  0.23567564  1  0.090269  0.002207  0.112986  0.104743  0.000762  1.016906  0.001
H  H47  1  0.61871375  0.33839620  0.27907336  1  0.080176  0.002243  0.113831  0.105563  0.000796  1.012683  0.001
H  H48  1  0.50979320  0.45337037  0.09369356  1  0.102919  0.001513  0.125776  0.082261  0.000329  1.008337  0.001
H  H49  1  0.07832044  0.45120705  0.17689892  1  0.086472  0.00224  0.110167  0.099595  0.000803  1.028193  0.001
H  H50  1  0.16375159  0.35670326  0.07139519  1  0.059215  0.002145  0.112562  0.102762  0.000725  1.011055  0.001
H  H51  1  0.33556482  0.41970389  0.23973295  1  0.14318  0.001489  0.124732  0.081579  0.000389  1.015984  0.001
H  H52  1  0.53529751  0.37085519  0.57878765  1  0.102806  0.002359  0.112492  0.104164  0.000895  1.010847  0.001
H  H53  1  0.62464471  0.51785022  0.61298899  1  0.076099  0.002234  0.112267  0.102996  0.000799  1.010965  0.001
H  H54  1  0.78198340  0.30568319  0.65206891  1  0.123414  0.001234  0.122727  0.079765  0.000122  1.037704  0.001
H  H55  1  0.57546398  0.27100512  0.44729032  1  0.078226  0.002256  0.110715  0.100694  0.000813  1.019464  0.001
H  H56  1  0.59772198  0.17964323  0.31877993  1  0.102659  0.002145  0.110588  0.103666  0.000739  1.030933  0.001
H  H57  1  0.68827595  0.03495123  0.49578433  1  0.083151  0.001387  0.127557  0.08583  0.000319  1.001104  0.001
H  H58  1  0.52449387  0.25384779  0.73568358  1  0.090173  0.002206  0.113044  0.104815  0.000762  1.016774  0.001
H  H59  1  0.38127667  0.16160388  0.77907771  1  0.079913  0.002243  0.113874  0.105645  0.000796  1.012633  0.001
H  H60  1  0.49020726  0.04663051  0.59370020  1  0.102651  0.001513  0.125795  0.082261  0.000329  1.008403  0.001
H  H61  1  0.92168080  0.04879178  0.67689771  1  0.08644  0.00224  0.110153  0.09957  0.000803  1.028224  0.001
H  H62  1  0.83624708  0.14329432  0.57139476  1  0.059228  0.002144  0.112538  0.102755  0.000725  1.011001  0.001
H  H63  1  0.66443605  0.08029152  0.73973517  1  0.14318  0.001489  0.124764  0.081579  0.000389  1.015953  0.001
H  H64  1  0.03530394  0.12914912  0.57877731  1  0.102221  0.002359  0.112491  0.104151  0.000895  1.011023  0.001
H  H65  1  0.12464516  0.98215321  0.61298456  1  0.075755  0.002235  0.112243  0.102981  0.000799  1.010946  0.001
H  H66  1  0.28198659  0.19431885  0.65206975  1  0.123792  0.001234  0.122681  0.079682  0.000122  1.037728  0.001
H  H67  1  0.07546587  0.22899839  0.44729077  1  0.078312  0.002256  0.110659  0.100595  0.000813  1.019414  0.001
H  H68  1  0.09772317  0.32035823  0.31877914  1  0.102658  0.002145  0.11059  0.103714  0.000739  1.030977  0.001
H  H69  1  0.18827961  0.46505313  0.49578200  1  0.08305  0.001387  0.127552  0.085839  0.000319  1.001046  0.001
H  H70  1  0.02450214  0.24615682  0.73567920  1  0.090314  0.002206  0.113004  0.104733  0.000762  1.016829  0.001
H  H71  1  0.88128176  0.33839822  0.77907483  1  0.080078  0.002243  0.113846  0.105552  0.000796  1.012674  0.001
H  H72  1  0.99020590  0.45337106  0.59369511  1  0.102489  0.001514  0.125747  0.082239  0.000329  1.008353  0.001
H  H73  1  0.42168511  0.45121096  0.67689804  1  0.086331  0.00224  0.110166  0.099578  0.000803  1.028204  0.001
H  H74  1  0.33625209  0.35670658  0.57139577  1  0.059269  0.002145  0.112546  0.102741  0.000725  1.010943  0.001
H  H75  1  0.16444102  0.41971113  0.73973645  1  0.143296  0.001489  0.124793  0.081552  0.000389  1.015998  0.001
H  H76  1  0.96469916  0.37085231  0.07877759  1  0.102278  0.002359  0.112549  0.104192  0.000895  1.01088  0.001
H  H77  1  0.87535487  0.51784803  0.11298259  1  0.075718  0.002235  0.11225  0.102973  0.000799  1.010926  0.001
H  H78  1  0.71801800  0.30567984  0.15207245  1  0.123492  0.001234  0.122698  0.079765  0.000122  1.037704  0.001
H  H79  1  0.92453443  0.27100395  0.94729160  1  0.078249  0.002256  0.110659  0.100589  0.000813  1.019456  0.001
H  H80  1  0.90227787  0.17964398  0.81877968  1  0.102657  0.002145  0.110591  0.103681  0.000739  1.030925  0.001
H  H81  1  0.81172359  0.03494823  0.99578283  1  0.083093  0.001387  0.127562  0.085873  0.000319  1.001032  0.001
H  H82  1  0.97550004  0.25384806  0.23568220  1  0.090261  0.002206  0.112986  0.10472  0.000762  1.016852  0.001
H  H83  1  0.11871696  0.16160312  0.27907896  1  0.080449  0.002243  0.113846  0.105608  0.000797  1.012583  0.001
H  H84  1  0.00979200  0.04662919  0.09370029  1  0.102624  0.001513  0.125805  0.082294  0.000329  1.008391  0.001
H  H85  1  0.57831933  0.04879168  0.17689804  1  0.086434  0.002239  0.110142  0.099547  0.000803  1.028219  0.001
H  H86  1  0.66375298  0.14329544  0.07139527  1  0.059234  0.002144  0.112536  0.102752  0.000725  1.011009  0.001
H  H87  1  0.83556369  0.08029062  0.23973439  1  0.143207  0.001489  0.124762  0.081579  0.000389  1.015928  0.001
H  H88  1  0.53530402  0.87085474  0.92122051  1  0.102311  0.002359  0.112471  0.104098  0.000896  1.010922  0.001
H  H89  1  0.62464853  0.01784869  0.88701560  1  0.075715  0.002235  0.112264  0.103001  0.000799  1.010987  0.001
H  H90  1  0.78198778  0.80568168  0.84793027  1  0.123785  0.001234  0.12267  0.079659  0.000122  1.037748  0.001
H  H91  1  0.57546498  0.77100185  0.05271151  1  0.078313  0.002257  0.110647  0.100582  0.000813  1.019424  0.001
H  H92  1  0.59772095  0.67963946  0.18122195  1  0.102626  0.002145  0.110577  0.103696  0.000739  1.030987  0.001
H  H93  1  0.68828108  0.53494768  0.00421652  1  0.08304  0.001387  0.127543  0.08581  0.000319  1.001052  0.001
H  H94  1  0.52450385  0.75384641  0.76432248  1  0.090271  0.002207  0.112986  0.10473  0.000762  1.016922  0.001
H  H95  1  0.38128243  0.66160478  0.72092693  1  0.080137  0.002243  0.113827  0.105541  0.000797  1.012702  0.001
H  H96  1  0.49020682  0.54663060  0.90630564  1  0.102939  0.001513  0.125766  0.082251  0.000329  1.008335  0.001
H  H97  1  0.92168086  0.54878885  0.82309810  1  0.086407  0.002239  0.110136  0.099563  0.000803  1.028242  0.001
H  H98  1  0.83625099  0.64329202  0.92860401  1  0.059292  0.002145  0.112559  0.102775  0.000725  1.010903  0.001
H  H99  1  0.66443584  0.58029328  0.76026680  1  0.14318  0.001489  0.124753  0.08158  0.000389  1.015934  0.001
H  H100  1  0.46469867  0.62914325  0.42122191  1  0.102738  0.002359  0.112466  0.104102  0.000896  1.010899  0.001
H  H101  1  0.37535595  0.48214885  0.38701566  1  0.076054  0.002234  0.112272  0.102981  0.000799  1.010959  0.001
H  H102  1  0.21801726  0.69431588  0.34792921  1  0.123437  0.001234  0.122697  0.079746  0.000122  1.037655  0.001
H  H103  1  0.42453476  0.72899586  0.55271161  1  0.078276  0.002257  0.110659  0.100565  0.000813  1.019419  0.001
H  H104  1  0.40227612  0.82035774  0.68122200  1  0.102642  0.002145  0.110599  0.103698  0.000739  1.030961  0.001
H  H105  1  0.31172088  0.96505038  0.50421542  1  0.082737  0.001387  0.127518  0.085821  0.000319  1.001102  0.001
H  H106  1  0.47549848  0.74615572  0.26431398  1  0.090252  0.002206  0.113047  0.104816  0.000762  1.016737  0.001
H  H107  1  0.61871696  0.83840090  0.22091986  1  0.080464  0.002243  0.113889  0.105705  0.000796  1.012564  0.001
H  H108  1  0.50979212  0.95336730  0.40630227  1  0.10279  0.001513  0.125751  0.082239  0.000328  1.008392  0.001
H  H109  1  0.07832050  0.95120919  0.32310150  1  0.086457  0.00224  0.110142  0.099567  0.000803  1.028229  0.001
H  H110  1  0.16375102  0.85670665  0.42860499  1  0.059269  0.002144  0.112563  0.102778  0.000725  1.011039  0.001
H  H111  1  0.33556461  0.91970693  0.26026567  1  0.143185  0.001489  0.124741  0.081553  0.000389  1.015994  0.001
C  C112  1  0.90000335  0.87912331  0.40107843  1  0.26762  0.01375  -0.021671  -0.061273  0.008026  4.041702  0.01
C  C113  1  0.85582111  0.95198590  0.38375356  1  0.406439  0.013928  -0.023375  -0.064682  0.008131  4.051091  0.01
C  C114  1  0.77302251  0.84363217  0.36327528  1  0.975072  0.020414  0.115036  0.134543  0.013108  3.996112  0.017
C  C115  1  0.89882586  0.70799799  0.56157800  1  0.341858  0.01109  -0.023502  -0.060185  0.006517  4.041877  0.008
C  C116  1  0.88780903  0.66296021  0.62518260  1  0.338415  0.012049  -0.023831  -0.062538  0.007038  4.032088  0.009
C  C117  1  0.84038341  0.58650742  0.53486865  1  0.973978  0.015866  0.113138  0.127574  0.010297  4.008793  0.013
C  C118  1  0.00376275  0.69691285  0.28707811  1  0.333284  0.015031  -0.021886  -0.064537  0.008637  4.040636  0.011
C  C119  1  0.07447835  0.65116454  0.26559256  1  0.360231  0.008427  -0.022736  -0.065364  0.005106  4.037094  0.006
C  C120  1  0.01976418  0.59058875  0.36156903  1  0.955569  0.016067  0.114834  0.129536  0.010617  4.012927  0.014
C  C121  1  0.64438221  0.56959450  0.32567433  1  0.345105  0.014885  -0.021886  -0.061859  0.008722  4.038269  0.011
C  C122  1  0.68664790  0.61649980  0.37779686  1  0.365423  0.009571  -0.023638  -0.065635  0.005645  4.049087  0.007
C  C123  1  0.77691505  0.58481124  0.29164888  1  0.940651  0.017654  0.115163  0.132306  0.011557  4.004736  0.015
C  C124  1  0.09999563  0.62087773  0.90107838  1  0.267546  0.01375  -0.021697  -0.061346  0.008026  4.04174  0.01
C  C125  1  0.14417733  0.54801441  0.88375572  1  0.406434  0.013929  -0.023341  -0.064516  0.008131  4.051024  0.01
C  C126  1  0.22697797  0.65636674  0.86327701  1  0.974738  0.020415  0.115099  0.134762  0.013108  3.995925  0.017
C  C127  1  0.10117448  0.79200231  0.06158005  1  0.341826  0.011091  -0.023438  -0.060183  0.006517  4.041862  0.008
C  C128  1  0.11218965  0.83703920  0.12518534  1  0.338495  0.012049  -0.023785  -0.062354  0.007037  4.032118  0.009
C  C129  1  0.15961517  0.91349335  0.03487207  1  0.973981  0.015865  0.113154  0.127692  0.010297  4.008715  0.013
C  C130  1  0.99623562  0.80308435  0.78708313  1  0.333602  0.01503  -0.021886  -0.064682  0.008637  4.040775  0.011
C  C131  1  0.92552270  0.84883254  0.76559482  1  0.360227  0.008425  -0.022716  -0.065174  0.005104  4.037024  0.006
C  C132  1  0.98023502  0.90941332  0.86157023  1  0.955686  0.016065  0.114814  0.129471  0.010617  4.012964  0.014
C  C133  1  0.35561529  0.93040356  0.82567071  1  0.345194  0.014884  -0.021803  -0.061839  0.008722  4.038243  0.011
C  C134  1  0.31335185  0.88349793  0.87779594  1  0.365806  0.00957  -0.023694  -0.065588  0.005645  4.048924  0.007
C  C135  1  0.22308137  0.91518725  0.79165121  1  0.941105  0.017651  0.115123  0.132163  0.011558  4.004835  0.015
C  C136  1  0.40000252  0.12087292  0.09892134  1  0.267674  0.013749  -0.021598  -0.061137  0.008025  4.041819  0.01
C  C137  1  0.35582342  0.04800846  0.11624532  1  0.406234  0.013927  -0.023407  -0.064666  0.008131  4.05118  0.01
C  C138  1  0.27302143  0.15636224  0.13672341  1  0.975236  0.020415  0.115063  0.134716  0.013108  3.996001  0.017
C  C139  1  0.39882548  0.29200120  0.93841660  1  0.34181  0.011091  -0.023445  -0.060066  0.006517  4.041723  0.008
C  C140  1  0.38781156  0.33704215  0.87481260  1  0.338497  0.012048  -0.023854  -0.062606  0.007037  4.032167  0.009
C  C141  1  0.34038343  0.41349117  0.96512839  1  0.973958  0.015864  0.113165  0.127646  0.010296  4.008807  0.013
C  C142  1  0.50375993  0.30308681  0.21291304  1  0.333372  0.01503  -0.021917  -0.064705  0.008637  4.040514  0.011
C  C143  1  0.57447283  0.34883444  0.23440264  1  0.360115  0.008425  -0.022702  -0.065189  0.005104  4.036789  0.006
C  C144  1  0.51976494  0.40941089  0.13842586  1  0.95555  0.016065  0.114835  0.129527  0.010616  4.012956  0.014
C  C145  1  0.14438586  0.43039746  0.17433092  1  0.345214  0.014883  -0.021756  -0.061734  0.008721  4.038137  0.011
C  C146  1  0.18664805  0.38349277  0.12220602  1  0.365735  0.00957  -0.023734  -0.065777  0.005645  4.049205  0.007
C  C147  1  0.27691914  0.41518000  0.20835089  1  0.941104  0.01765  0.115191  0.132045  0.011557  4.005115  0.015
C  C148  1  0.59999216  0.37912609  0.59892679  1  0.267284  0.013751  -0.021664  -0.061244  0.008025  4.041631  0.01
C  C149  1  0.64417435  0.45199065  0.61624708  1  0.40607  0.013928  -0.023332  -0.06453  0.008131  4.050988  0.01
C  C150  1  0.72697558  0.34363763  0.63672379  1  0.975251  0.020414  0.115053  0.134662  0.013108  3.996007  0.017
C  C151  1  0.60117359  0.20800172  0.43841993  1  0.341565  0.011091  -0.02356  -0.060413  0.006517  4.042021  0.008
C  C152  1  0.61218916  0.16296166  0.37481569  1  0.338557  0.012049  -0.023763  -0.062281  0.007036  4.032039  0.009
C  C153  1  0.65961484  0.08651191  0.46513038  1  0.973988  0.015866  0.113232  0.127777  0.010296  4.008828  0.013
C  C154  1  0.49623279  0.19691477  0.71291977  1  0.333423  0.01503  -0.022012  -0.064727  0.008636  4.040801  0.011
C  C155  1  0.42551850  0.15116664  0.73440730  1  0.3602  0.008426  -0.022743  -0.065339  0.005105  4.037164  0.006
C  C156  1  0.48023270  0.09058898  0.63843056  1  0.955724  0.016064  0.114837  0.129626  0.010616  4.012908  0.014
C  C157  1  0.85561477  0.06960010  0.67433008  1  0.345235  0.014882  -0.021752  -0.061719  0.008721  4.03818  0.011
C  C158  1  0.81335097  0.11650575  0.62220557  1  0.365674  0.009572  -0.023684  -0.065741  0.005646  4.049087  0.007
C  C159  1  0.72308128  0.08481649  0.70835287  1  0.941475  0.017646  0.115143  0.132049  0.011558  4.00498  0.015
C  C160  1  0.09999667  0.12087703  0.59892077  1  0.267663  0.01375  -0.021687  -0.061284  0.008025  4.041852  0.01
C  C161  1  0.14417636  0.04801318  0.61624564  1  0.406379  0.013928  -0.023322  -0.064535  0.00813  4.050975  0.01
C  C162  1  0.22697879  0.15636500  0.63672229  1  0.97472  0.020414  0.1151  0.134824  0.013107  3.995769  0.017
C  C163  1  0.10117672  0.29200172  0.43841957  1  0.341813  0.011091  -0.023493  -0.060173  0.006517  4.041839  0.008
C  C164  1  0.11219035  0.33704077  0.37481497  1  0.338397  0.012049  -0.023859  -0.062652  0.007038  4.032259  0.009
C  C165  1  0.15961853  0.41349228  0.46512892  1  0.974008  0.015865  0.11312  0.127564  0.010297  4.008886  0.013
C  C166  1  0.99623791  0.30308940  0.71291565  1  0.333463  0.01503  -0.021877  -0.06456  0.008636  4.040549  0.011
C  C167  1  0.92552359  0.34883581  0.73440446  1  0.360204  0.008425  -0.022771  -0.065286  0.005104  4.036914  0.006
C  C168  1  0.98023392  0.40941222  0.63842800  1  0.955794  0.016064  0.114838  0.1295  0.010616  4.012937  0.014
C  C169  1  0.35561908  0.43040330  0.67433087  1  0.34511  0.014883  -0.021904  -0.061796  0.008721  4.038262  0.011
C  C170  1  0.31335531  0.38349611  0.62220724  1  0.365929  0.009569  -0.02371  -0.065753  0.005646  4.04897  0.007
C  C171  1  0.22308561  0.41518593  0.70835305  1  0.941516  0.017647  0.115125  0.132162  0.011558  4.004924  0.015
C  C172  1  0.90000631  0.37912515  0.09892083  1  0.267782  0.013749  -0.021707  -0.06134  0.008025  4.041837  0.01
C  C173  1  0.85582461  0.45198784  0.11624403  1  0.406263  0.013928  -0.023361  -0.064534  0.008131  4.050933  0.01
C  C174  1  0.77302525  0.34363487  0.13672383  1  0.975118  0.020413  0.11505  0.134603  0.013108  3.995938  0.017
C  C175  1  0.89882491  0.20799993  0.93842079  1  0.341837  0.011091  -0.023466  -0.060175  0.006517  4.041921  0.008
C  C176  1  0.88781037  0.16296114  0.87481550  1  0.338373  0.012049  -0.023781  -0.062396  0.007037  4.032044  0.009
C  C177  1  0.84038421  0.08650889  0.96512985  1  0.973969  0.015866  0.113179  0.127673  0.010296  4.008744  0.013
C  C178  1  0.00376184  0.19691409  0.21291934  1  0.333283  0.015031  -0.021893  -0.064559  0.008637  4.040713  0.011
C  C179  1  0.07447604  0.15116527  0.23440710  1  0.359819  0.008426  -0.022769  -0.065394  0.005105  4.037076  0.006
C  C180  1  0.01976500  0.09058765  0.13843061  1  0.955681  0.016066  0.114838  0.129534  0.010617  4.012992  0.014
C  C181  1  0.64438473  0.06960059  0.17433013  1  0.345199  0.014883  -0.021751  -0.061676  0.008721  4.038217  0.011
C  C182  1  0.68664753  0.11650621  0.12220653  1  0.365866  0.009569  -0.023723  -0.065817  0.005645  4.049236  0.007
C  C183  1  0.77691801  0.08481626  0.20835180  1  0.941468  0.017646  0.115167  0.132076  0.011557  4.005025  0.015
C  C184  1  0.59999750  0.87912552  0.90107786  1  0.267737  0.013748  -0.021609  -0.06109  0.008024  4.041757  0.01
C  C185  1  0.64417788  0.95198935  0.88375497  1  0.406418  0.013927  -0.023377  -0.064722  0.008131  4.05119  0.01
C  C186  1  0.72697923  0.84363620  0.86327688  1  0.974757  0.020415  0.115156  0.134858  0.013107  3.995918  0.017
C  C187  1  0.60117454  0.70799788  0.06158205  1  0.34182  0.011091  -0.023447  -0.060087  0.006517  4.041802  0.008
C  C188  1  0.61218974  0.66295819  0.12518606  1  0.338393  0.012048  -0.023871  -0.062667  0.007038  4.032251  0.009
C  C189  1  0.65961914  0.58650917  0.03486973  1  0.973996  0.015865  0.113172  0.127681  0.010296  4.00868  0.013
C  C190  1  0.49623945  0.69691353  0.78708671  1  0.33342  0.015029  -0.021928  -0.064718  0.008637  4.040669  0.011
C  C191  1  0.42552528  0.65116527  0.76559766  1  0.360121  0.008426  -0.022701  -0.065206  0.005105  4.036936  0.006
C  C192  1  0.48023508  0.59058818  0.86157334  1  0.955183  0.016067  0.114804  0.129426  0.010617  4.012883  0.014
C  C193  1  0.85561544  0.56959781  0.82566774  1  0.34518  0.014884  -0.021785  -0.061783  0.008722  4.038219  0.011
C  C194  1  0.81335325  0.61650250  0.87779318  1  0.365665  0.00957  -0.023748  -0.065758  0.005645  4.049059  0.007
C  C195  1  0.72308216  0.58481717  0.79164832  1  0.941352  0.017647  0.115133  0.132058  0.011558  4.005123  0.015
C  C196  1  0.40000530  0.62087235  0.40107950  1  0.267383  0.013749  -0.021613  -0.061116  0.008024  4.0417  0.01
C  C197  1  0.35582567  0.54800779  0.38375594  1  0.406385  0.013924  -0.023397  -0.064638  0.008131  4.051161  0.01
C  C198  1  0.27302444  0.65636082  0.36327650  1  0.97529  0.020412  0.115011  0.134588  0.013107  3.996001  0.017
C  C199  1  0.39882324  0.79199926  0.56158091  1  0.341787  0.011091  -0.023412  -0.06001  0.006517  4.041737  0.008
C  C200  1  0.38780830  0.83703869  0.62518515  1  0.338381  0.012048  -0.023884  -0.062591  0.007037  4.032153  0.009
C  C201  1  0.34038007  0.91348717  0.53486882  1  0.974319  0.015865  0.113271  0.127745  0.010295  4.008737  0.013
C  C202  1  0.50376212  0.80308747  0.28707780  1  0.333678  0.01503  -0.021933  -0.064617  0.008636  4.040555  0.011
C  C203  1  0.57447513  0.84883624  0.26559136  1  0.359338  0.008426  -0.022806  -0.065537  0.005106  4.037146  0.006
C  C204  1  0.51976412  0.90941073  0.36157027  1  0.955526  0.016066  0.114854  0.129564  0.010616  4.012776  0.014
C  C205  1  0.14438589  0.93040025  0.32567021  1  0.34519  0.014883  -0.021747  -0.061734  0.008721  4.038254  0.011
C  C206  1  0.18664778  0.88349650  0.37779472  1  0.365598  0.009571  -0.023744  -0.065769  0.005645  4.049165  0.007
C  C207  1  0.27691938  0.91518259  0.29164851  1  0.941172  0.017651  0.115153  0.132066  0.011558  4.005094  0.015
N  N208  1  0.84696948  0.81067297  0.38798101  1  -1.226429  0.091918  -0.386884  -0.303685  0.045945  3.684223  0.056
N  N209  1  0.77528525  0.92898661  0.35972019  1  -1.283199  0.090956  -0.386629  -0.309748  0.045197  3.687396  0.055
N  N210  1  0.86872643  0.65914186  0.50448220  1  -1.221029  0.094074  -0.387817  -0.311139  0.047048  3.698867  0.056
N  N211  1  0.85068862  0.58600140  0.60783177  1  -1.26061  0.094392  -0.387433  -0.309768  0.047176  3.697216  0.057
N  N212  1  0.96946982  0.65812509  0.34805883  1  -1.23419  0.090887  -0.388142  -0.311236  0.045492  3.697424  0.055
N  N213  1  0.08421429  0.58382123  0.31317273  1  -1.25301  0.093657  -0.387134  -0.30799  0.046852  3.68709  0.059
N  N214  1  0.70216612  0.54973894  0.27122251  1  -1.257836  0.092418  -0.3879  -0.304754  0.046042  3.687632  0.055
N  N215  1  0.77072980  0.62600986  0.35585637  1  -1.244648  0.093511  -0.385705  -0.310555  0.046736  3.685202  0.059
N  N216  1  0.15302957  0.68932736  0.88798212  1  -1.226448  0.091919  -0.386902  -0.303699  0.045944  3.684188  0.056
N  N217  1  0.22471397  0.57101292  0.85972210  1  -1.283183  0.090958  -0.386677  -0.310024  0.0452  3.687457  0.055
N  N218  1  0.13127232  0.84085874  0.00448488  1  -1.220794  0.094068  -0.387779  -0.311069  0.047048  3.698861  0.056
N  N219  1  0.14931017  0.91399854  0.10783578  1  -1.260769  0.094389  -0.387565  -0.310061  0.047179  3.697417  0.057
N  N220  1  0.03052947  0.84187564  0.84806331  1  -1.234255  0.090884  -0.388173  -0.311156  0.04549  3.697364  0.055
N  N221  1  0.91578712  0.91617929  0.81317316  1  -1.252969  0.09366  -0.38709  -0.307917  0.046853  3.687022  0.059
N  N222  1  0.29783042  0.95025943  0.77122359  1  -1.258484  0.092426  -0.387906  -0.304658  0.046042  3.687815  0.055
N  N223  1  0.22927071  0.87398964  0.85585795  1  -1.244655  0.093509  -0.385624  -0.3104  0.046734  3.685297  0.059
N  N224  1  0.34697044  0.18932266  0.11201627  1  -1.226506  0.09192  -0.386904  -0.303789  0.045946  3.684293  0.056
N  N225  1  0.27528932  0.07100844  0.14027958  1  -1.283619  0.090962  -0.386657  -0.310016  0.045201  3.687703  0.055
N  N226  1  0.36872504  0.34085545  0.99551199  1  -1.220666  0.094066  -0.38778  -0.311118  0.047047  3.698928  0.056
N  N227  1  0.35069035  0.41399972  0.89216414  1  -1.260883  0.094397  -0.387477  -0.309822  0.047176  3.697287  0.057
N  N228  1  0.46946982  0.34187744  0.15193247  1  -1.234417  0.090882  -0.388202  -0.311173  0.04549  3.697252  0.055
N  N229  1  0.58421348  0.41617837  0.18682242  1  -1.253033  0.093661  -0.387067  -0.308024  0.046854  3.68707  0.059
N  N230  1  0.20217071  0.45025488  0.22877867  1  -1.25842  0.092423  -0.387998  -0.304631  0.046041  3.687627  0.055
N  N231  1  0.27073047  0.37398328  0.14414288  1  -1.244665  0.093516  -0.385668  -0.310388  0.046734  3.685471  0.059
N  N232  1  0.65302607  0.31067579  0.61202064  1  -1.226516  0.091923  -0.386903  -0.303745  0.045945  3.684085  0.056
N  N233  1  0.72471023  0.42899082  0.64027925  1  -1.283555  0.090957  -0.386696  -0.310041  0.045202  3.687733  0.055
N  N234  1  0.63127369  0.15914717  0.49551552  1  -1.220953  0.094071  -0.387857  -0.311137  0.047046  3.69886  0.056
N  N235  1  0.64931027  0.08600292  0.39216563  1  -1.260538  0.094386  -0.387544  -0.310025  0.047176  3.697348  0.057
N  N236  1  0.53052710  0.15812632  0.65193943  1  -1.234111  0.090881  -0.388109  -0.311224  0.045492  3.697483  0.055
N  N237  1  0.41578451  0.08382116  0.68682683  1  -1.253009  0.093658  -0.387135  -0.308006  0.046853  3.687092  0.059
N  N238  1  0.79783087  0.04974299  0.72877909  1  -1.258485  0.092425  -0.387964  -0.304631  0.046041  3.687672  0.055
N  N239  1  0.72926778  0.12601346  0.64414556  1  -1.244858  0.093509  -0.385666  -0.310335  0.046731  3.685303  0.059
N  N240  1  0.15303182  0.18932674  0.61201601  1  -1.226419  0.091918  -0.386863  -0.303779  0.045946  3.684082  0.056
N  N241  1  0.22471285  0.07101183  0.64027901  1  -1.283232  0.090959  -0.386699  -0.310029  0.045201  3.687487  0.055
N  N242  1  0.13127679  0.34085722  0.49551482  1  -1.220867  0.094069  -0.387747  -0.311002  0.047049  3.698863  0.056
N  N243  1  0.14931140  0.41399958  0.39216526  1  -1.260661  0.094389  -0.38746  -0.30977  0.047176  3.697313  0.057
N  N244  1  0.03053084  0.34187969  0.65193492  1  -1.234354  0.090881  -0.388158  -0.311185  0.045489  3.697356  0.055
N  N245  1  0.91578509  0.41618038  0.68682374  1  -1.253013  0.093657  -0.387089  -0.30797  0.046854  3.687033  0.059
N  N246  1  0.29783518  0.45025950  0.72877941  1  -1.258488  0.092424  -0.387899  -0.304634  0.046041  3.687714  0.055
N  N247  1  0.22927341  0.37398858  0.64414556  1  -1.245092  0.093513  -0.385594  -0.310345  0.046733  3.685184  0.059
N  N248  1  0.84697300  0.31067488  0.11201763  1  -1.226578  0.091922  -0.386886  -0.303656  0.045944  3.684183  0.056
N  N249  1  0.77528861  0.42898869  0.14027928  1  -1.283234  0.090961  -0.386648  -0.309975  0.045201  3.687464  0.055
N  N250  1  0.86872642  0.15914414  0.99551596  1  -1.220994  0.094075  -0.387839  -0.311177  0.047048  3.698942  0.056
N  N251  1  0.85068985  0.08600243  0.89216560  1  -1.260536  0.094389  -0.387541  -0.309969  0.047177  3.697305  0.057
N  N252  1  0.96947055  0.15812407  0.15193807  1  -1.234254  0.090887  -0.388166  -0.311225  0.045492  3.697452  0.055
N  N253  1  0.08421226  0.08381979  0.18682823  1  -1.252974  0.093658  -0.387095  -0.307932  0.046852  3.68709  0.059
N  N254  1  0.70216896  0.04974281  0.22877943  1  -1.258472  0.092424  -0.387962  -0.304634  0.046042  3.687714  0.055
N  N255  1  0.77073058  0.12601324  0.14414452  1  -1.245065  0.093515  -0.385658  -0.310331  0.046734  3.685342  0.059
N  N256  1  0.65302958  0.81067578  0.88798239  1  -1.22656  0.09192  -0.386927  -0.303836  0.045945  3.684241  0.056
N  N257  1  0.72471262  0.92898937  0.85972126  1  -1.283311  0.090959  -0.386693  -0.309961  0.0452  3.687602  0.055
N  N258  1  0.63127753  0.65914362  0.00448667  1  -1.220791  0.094065  -0.387786  -0.311137  0.047048  3.698922  0.056
N  N259  1  0.64931159  0.58599999  0.10783507  1  -1.26067  0.094391  -0.387474  -0.309789  0.047176  3.697112  0.057
N  N260  1  0.53053084  0.65812354  0.84806564  1  -1.234325  0.090882  -0.388178  -0.311152  0.045491  3.697263  0.055
N  N261  1  0.41578718  0.58382324  0.81317787  1  -1.252806  0.093661  -0.387051  -0.307832  0.046853  3.687128  0.059
N  N262  1  0.79782931  0.54974292  0.77121890  1  -1.258534  0.092423  -0.387934  -0.30463  0.046043  3.687721  0.055
N  N263  1  0.72927019  0.62601326  0.85585632  1  -1.244613  0.093511  -0.385629  -0.310373  0.046735  3.685396  0.059
N  N264  1  0.34697395  0.68932202  0.38798292  1  -1.226506  0.091922  -0.386813  -0.303659  0.045945  3.684066  0.056
N  N265  1  0.27529235  0.57100826  0.35972158  1  -1.283781  0.090954  -0.386695  -0.310024  0.045201  3.687818  0.055
N  N266  1  0.36872441  0.84085444  0.50448586  1  -1.220953  0.094071  -0.38788  -0.311221  0.047048  3.699129  0.056
N  N267  1  0.35068592  0.91399742  0.60783521  1  -1.260547  0.094391  -0.387504  -0.309911  0.047176  3.697012  0.057
N  N268  1  0.46946972  0.84187465  0.34806032  1  -1.23421  0.090884  -0.388127  -0.311206  0.045491  3.697267  0.055
N  N269  1  0.58421295  0.91617982  0.31317238  1  -1.252927  0.093659  -0.387098  -0.30789  0.046852  3.686992  0.059
N  N270  1  0.20217107  0.95025735  0.27122175  1  -1.258463  0.092427  -0.387979  -0.304645  0.046042  3.687705  0.055
N  N271  1  0.27073096  0.87398562  0.35585637  1  -1.244555  0.093508  -0.38562  -0.310327  0.046733  3.685408  0.059
