# generated using pymatgen
data_CoH14C20(NO2)2
_symmetry_space_group_name_H-M   'P 1'
_cell_length_a   9.14251046
_cell_length_b   9.98460772
_cell_length_c   9.98330932
_cell_angle_alpha   83.00088879
_cell_angle_beta   80.60117697
_cell_angle_gamma   80.62455176
_symmetry_Int_Tables_number   1
_chemical_formula_structural   CoH14C20(NO2)2
_chemical_formula_sum   'Co2 H28 C40 N4 O8'
_cell_volume   882.81897582
_cell_formula_units_Z   2
loop_
 _symmetry_equiv_pos_site_id
 _symmetry_equiv_pos_as_xyz
  1  'x, y, z'
loop_
 _atom_site_type_symbol
 _atom_site_label
 _atom_site_symmetry_multiplicity
 _atom_site_fract_x
 _atom_site_fract_y
 _atom_site_fract_z
 _atom_site_occupancy
 _atom_site_hle17_ddec_charge
 _atom_site_hle17_ddec_spin_density
 _atom_site_hle17_ddec_sum_bond_order
 _atom_site_hle17_magmom
 _atom_site_hse06_10hf_ddec_charge
 _atom_site_hse06_10hf_ddec_spin_density
 _atom_site_hse06_10hf_ddec_sum_bond_order
 _atom_site_hse06_10hf_magmom
 _atom_site_hse06_ddec_charge
 _atom_site_hse06_ddec_spin_density
 _atom_site_hse06_ddec_sum_bond_order
 _atom_site_hse06_magmom
 _atom_site_pbe_cm5_charge
 _atom_site_pbe_ddec_charge
 _atom_site_pbe_ddec_spin_density
 _atom_site_pbe_ddec_sum_bond_order
 _atom_site_pbe_magmom
Co  Co0  1  0.25008438  0.11008149  0.88975126  1  0.677195  -1.303953  2.550933  -1.031  0.679207  -1.104366  2.971761  -0.966  0.735096  -1.079526  2.910897  -0.964  0.658423  0.649127  -1.090596  3.007114  -0.942
Co  Co1  1  0.75003286  0.88965277  0.11007164  1  0.676227  1.303821  2.552131  1.031  0.678747  1.104349  2.972631  0.966  0.734624  1.07951  2.911708  0.964  0.658495  0.648699  1.090618  3.00793  0.942
H  H2  1  0.03651619  0.30073451  0.75264464  1  0.094689  -0.000455  0.931807  -0.001  0.10259  7e-05  0.995836  0.0  0.105638  3.7e-05  0.991297  0.0  0.122347  0.100469  0.000129  0.999052  0.0
H  H3  1  0.53627608  0.75263141  0.30053843  1  0.095017  0.000456  0.931335  0.001  0.102777  -7e-05  0.995492  0.0  0.105831  -3.6e-05  0.990933  0.0  0.122363  0.100629  -0.000129  0.998749  0.0
H  H4  1  0.96442226  0.69998265  0.24702072  1  0.094712  0.00045  0.93214  0.001  0.102515  -7.1e-05  0.996196  0.0  0.105557  -3.8e-05  0.991665  0.0  0.122161  0.100359  -0.000131  0.999446  0.0
H  H5  1  0.46433750  0.24705201  0.69981600  1  0.094983  -0.000451  0.932086  -0.001  0.102742  7.1e-05  0.996102  0.0  0.105791  3.7e-05  0.991579  0.0  0.122239  0.100595  0.000131  0.999344  0.0
H  H6  1  0.34512200  0.95950387  0.66024953  1  0.097529  -3.7e-05  0.950675  -0.001  0.10459  5e-05  1.015567  0.0  0.107217  3.4e-05  1.013203  0.0  0.121475  0.102537  5.9e-05  1.017503  0.0
H  H7  1  0.84550563  0.66015072  0.95959856  1  0.097853  3.8e-05  0.950915  0.001  0.104878  -5e-05  1.015711  0.0  0.107497  -3.4e-05  1.013365  0.0  0.121748  0.102819  -6e-05  1.01764  0.0
H  H8  1  0.65544479  0.04107970  0.33900434  1  0.097176  3.8e-05  0.950917  0.001  0.104472  -4.7e-05  1.015546  0.0  0.107093  -3.2e-05  1.013196  0.0  0.121513  0.102414  -5.5e-05  1.017472  0.0
H  H9  1  0.15594831  0.33889032  0.04144991  1  0.097194  -3.9e-05  0.950428  -0.001  0.104165  4.7e-05  1.015355  0.0  0.106777  3.2e-05  1.013019  0.0  0.121414  0.102116  5.5e-05  1.017282  0.0
H  H10  1  0.27897111  0.97010830  0.42549774  1  0.117659  0.000327  0.929894  0.001  0.129649  9.5e-05  0.984051  0.0  0.133515  6.7e-05  0.982371  0.0  0.112293  0.126886  0.000103  0.985275  0.0
H  H11  1  0.77965967  0.42522595  0.97044041  1  0.116938  -0.000327  0.930486  -0.001  0.129042  -9.6e-05  0.98462  0.0  0.132922  -6.7e-05  0.982905  0.0  0.112097  0.126265  -0.000103  0.985872  0.0
H  H12  1  0.72084400  0.03032389  0.57409993  1  0.117833  -0.000323  0.929521  -0.001  0.129594  -9.4e-05  0.983857  0.0  0.133432  -6.6e-05  0.982212  0.0  0.112175  0.126843  -0.000102  0.985088  0.0
H  H13  1  0.22140984  0.57394516  0.03053474  1  0.117862  0.000323  0.930086  0.001  0.129674  9.4e-05  0.984322  0.0  0.133504  6.6e-05  0.982697  0.0  0.11241  0.126934  0.000101  0.985536  0.0
H  H14  1  0.87792518  0.42508482  0.58389422  1  0.089719  -0.000281  0.97217  -0.001  0.10034  -2e-06  1.035331  0.0  0.102565  -5e-06  1.035344  0.0  0.099385  0.098742  -1.8e-05  1.035302  0.0
H  H15  1  0.37754291  0.58392707  0.42483820  1  0.08967  0.00028  0.972407  0.001  0.100388  2e-06  1.035447  0.0  0.102613  4e-06  1.035462  0.0  0.099541  0.098798  1.8e-05  1.035407  0.0
H  H16  1  0.12310158  0.57596827  0.41585284  1  0.089707  0.000277  0.972834  0.001  0.100237  2e-06  1.036118  0.0  0.102524  5e-06  1.036045  0.0  0.099779  0.098608  1.8e-05  1.036118  0.0
H  H17  1  0.62298276  0.41582935  0.57555083  1  0.089379  -0.000277  0.972893  -0.001  0.100072  -2e-06  1.036009  0.0  0.102296  -5e-06  1.036033  0.0  0.09945  0.098482  -1.8e-05  1.03596  0.0
H  H18  1  0.79652252  0.44419268  0.35458155  1  0.083013  4.2e-05  0.973431  0.0  0.09171  -9.7e-05  1.038033  0.0  0.093516  -5.3e-05  1.039204  0.0  0.095139  0.090466  -0.000146  1.037173  0.0
H  H19  1  0.29608226  0.35462603  0.44394734  1  0.083286  -4.3e-05  0.973771  0.0  0.091706  9.7e-05  1.038675  0.0  0.093505  5.3e-05  1.039857  0.0  0.095034  0.090483  0.000145  1.037787  0.0
H  H20  1  0.20311213  0.55620895  0.64582198  1  0.083799  -4.1e-05  0.973541  0.0  0.09255  9.6e-05  1.037908  0.0  0.094357  5.2e-05  1.039089  0.0  0.095485  0.091317  0.000143  1.037036  0.0
H  H21  1  0.70303118  0.64581469  0.55547722  1  0.083149  4e-05  0.973296  0.0  0.091748  -9.7e-05  1.038034  0.0  0.093544  -5.3e-05  1.039215  0.0  0.09503  0.090518  -0.000145  1.03715  0.0
H  H22  1  0.91552113  0.27637448  0.18896349  1  0.099898  -0.000261  0.974985  -0.001  0.106993  -5.6e-05  1.04197  0.0  0.111363  -3.7e-05  1.038588  0.0  0.100252  0.103496  -8.6e-05  1.044689  0.0
H  H23  1  0.41557700  0.18885577  0.27644311  1  0.099978  0.000263  0.975124  0.001  0.106934  5.6e-05  1.042253  0.0  0.111312  3.7e-05  1.038883  0.0  0.100279  0.103433  8.6e-05  1.044975  0.0
H  H24  1  0.08279211  0.72330752  0.81171628  1  0.099213  0.000262  0.976461  0.001  0.106699  5.8e-05  1.043007  0.0  0.111103  3.8e-05  1.039518  0.0  0.100223  0.10317  8.8e-05  1.045798  0.0
H  H25  1  0.58293344  0.81172544  0.72266943  1  0.099545  -0.00026  0.976143  -0.001  0.106677  -5.7e-05  1.043122  0.0  0.111056  -3.8e-05  1.039671  0.0  0.100375  0.103181  -8.7e-05  1.045902  0.0
H  H26  1  0.11730712  0.09242655  0.24802924  1  0.115259  0.000193  0.955785  0.0  0.123489  3e-05  1.018129  0.0  0.128893  3.9e-05  1.014587  0.0  0.104954  0.118942  1.1e-05  1.021379  0.0
H  H27  1  0.61786826  0.24773972  0.09280078  1  0.115164  -0.000195  0.956039  0.0  0.123081  -3e-05  1.01878  0.0  0.128474  -4e-05  1.015281  0.0  0.104759  0.118546  -1.1e-05  1.022007  0.0
H  H28  1  0.88116785  0.90723692  0.75232393  1  0.115255  -0.000191  0.956929  0.0  0.123415  -3.1e-05  1.019386  0.0  0.128829  -4e-05  1.015861  0.0  0.10502  0.11887  -1.2e-05  1.022632  0.0
H  H29  1  0.38158864  0.75230683  0.90696821  1  0.11532  0.000192  0.95644  0.0  0.123268  3.1e-05  1.019051  0.0  0.128675  3.9e-05  1.015534  0.0  0.105017  0.118744  1.2e-05  1.022275  0.0
C  C30  1  0.04738728  0.93042305  0.98406830  1  0.515132  -0.001317  3.88045  -0.003  0.478168  0.000365  4.182924  -0.001  0.510741  4.1e-05  4.177853  -0.001  0.208459  0.455516  0.000672  4.18486  -0.001
C  C31  1  0.54739564  0.98400805  0.93042543  1  0.51538  0.001313  3.879806  0.003  0.478169  -0.000367  4.182507  0.001  0.510743  -3.8e-05  4.177441  0.001  0.20837  0.455523  -0.000671  4.184428  0.001
C  C32  1  0.95244962  0.06932003  0.01554754  1  0.514654  0.001299  3.880493  0.003  0.477419  -0.000376  4.183303  0.001  0.509967  -4.4e-05  4.178285  0.001  0.208655  0.454783  -0.00068  4.185219  0.001
C  C33  1  0.45244531  0.01543722  0.06938307  1  0.514611  -0.001303  3.879562  -0.003  0.477496  0.000372  4.182218  -0.001  0.510048  4.5e-05  4.177187  -0.001  0.208903  0.454856  0.000679  4.18414  -0.001
C  C34  1  0.08763928  0.23071917  0.67670288  1  0.077663  0.024274  3.649547  0.027  0.040237  0.008252  3.907916  0.009  0.057061  0.004934  3.914991  0.006  0.049722  0.027284  0.010483  3.905504  0.012
C  C35  1  0.58757346  0.67664013  0.23062432  1  0.07742  -0.024267  3.649194  -0.027  0.040052  -0.008259  3.907372  -0.009  0.056878  -0.004946  3.914431  -0.006  0.049715  0.027101  -0.010488  3.904959  -0.012
C  C36  1  0.91299010  0.76987604  0.32299172  1  0.077499  -0.024169  3.650504  -0.027  0.03992  -0.008242  3.908527  -0.009  0.056767  -0.00493  3.915593  -0.006  0.049669  0.026985  -0.010483  3.906105  -0.012
C  C37  1  0.41305278  0.32299185  0.76978219  1  0.077209  0.024205  3.650531  0.027  0.040125  0.008246  3.908786  0.009  0.05696  0.004935  3.915826  0.006  0.049607  0.027196  0.010487  3.906346  0.012
C  C38  1  0.26015626  0.03823521  0.62311524  1  0.092236  0.009344  3.679562  0.011  0.060788  0.002457  3.942396  0.003  0.068768  0.00213  3.958604  0.003  0.030461  0.055436  0.002346  3.93178  0.003
C  C39  1  0.76047208  0.62299021  0.03830427  1  0.091703  -0.009347  3.679983  -0.011  0.060335  -0.002459  3.94283  -0.003  0.068304  -0.002135  3.959045  -0.003  0.030078  0.054984  -0.002346  3.932216  -0.003
C  C40  1  0.74014425  0.96223341  0.37640186  1  0.092807  -0.009257  3.680807  -0.011  0.061344  -0.00245  3.943335  -0.003  0.069327  -0.002128  3.959569  -0.003  0.030543  0.056008  -0.002333  3.932715  -0.003
C  C41  1  0.24051011  0.37632983  0.96240968  1  0.093122  0.009265  3.680586  0.011  0.062451  0.002451  3.942927  0.003  0.070441  0.002128  3.95912  0.003  0.030793  0.057107  0.002336  3.932319  0.003
C  C42  1  0.22188185  0.04480780  0.49490633  1  -0.14796  -0.008442  3.722456  -0.01  -0.165619  -0.001327  3.970786  -0.002  -0.172956  -0.001298  3.990896  -0.002  -0.079101  -0.160888  -0.000742  3.956999  -0.001
C  C43  1  0.72236561  0.49470479  0.04500152  1  -0.147035  0.008448  3.721851  0.01  -0.164685  0.001328  3.970358  0.002  -0.171999  0.001304  3.990479  0.002  -0.078875  -0.159971  0.00074  3.956567  0.001
C  C44  1  0.77805376  0.95561383  0.50475162  1  -0.14892  0.008361  3.722166  0.01  -0.166201  0.001326  3.970684  0.002  -0.173535  0.001303  3.990808  0.002  -0.079044  -0.161503  0.000738  3.956898  0.001
C  C45  1  0.27848527  0.50466739  0.95570933  1  -0.149157  -0.008371  3.723455  -0.01  -0.166765  -0.001328  3.971865  -0.002  -0.174119  -0.001302  3.992007  -0.002  -0.079289  -0.162051  -0.000742  3.958065  -0.001
C  C46  1  0.10896535  0.14898166  0.45214872  1  0.08094  0.009184  3.791655  0.011  0.094506  0.002767  4.017258  0.003  0.099795  0.001736  4.039598  0.002  0.001345  0.091335  0.003391  4.002051  0.004
C  C47  1  0.60926515  0.45197915  0.14910436  1  0.081256  -0.009192  3.789926  -0.011  0.094241  -0.002769  4.016175  -0.003  0.099487  -0.001741  4.038575  -0.002  0.001489  0.091102  -0.003394  4.00092  -0.004
C  C48  1  0.89074309  0.85133705  0.54775688  1  0.08219  -0.009121  3.791722  -0.011  0.094946  -0.002763  4.017602  -0.003  0.100217  -0.001739  4.039976  -0.002  0.001295  0.091795  -0.003387  4.002372  -0.004
C  C49  1  0.39104254  0.54772354  0.85122280  1  0.081822  0.009137  3.791654  0.011  0.095176  0.002765  4.017229  0.003  0.100465  0.001738  4.039596  0.002  0.001392  0.092015  0.003387  4.002012  0.004
C  C50  1  0.04026351  0.24512455  0.54749580  1  -0.000136  -0.006689  3.820164  -0.01  0.020488  -0.001102  4.044082  -0.002  0.014382  -0.000907  4.066076  -0.002  -0.010096  0.024159  -0.000958  4.029589  -0.002
C  C51  1  0.54027233  0.54740109  0.24508533  1  -0.000308  0.006697  3.819823  0.01  0.020792  0.001102  4.04341  0.002  0.014701  0.000912  4.065418  0.002  -0.010024  0.024461  0.000958  4.028885  0.002
C  C52  1  0.96005030  0.75546934  0.45232001  1  -0.001133  0.006641  3.821948  0.01  0.020662  0.001102  4.044367  0.002  0.01455  0.000911  4.066421  0.002  -0.009986  0.024356  0.000961  4.029814  0.002
C  C53  1  0.46017545  0.45230706  0.75527793  1  -0.000747  -0.00665  3.82064  -0.01  0.020332  -0.001103  4.043871  -0.002  0.01421  -0.000911  4.065908  -0.002  -0.010081  0.024028  -0.00096  4.029338  -0.002
C  C54  1  0.92762448  0.35211730  0.51047959  1  -0.115654  0.010962  3.773481  0.013  -0.135556  0.002621  4.018152  0.003  -0.136069  0.00155  4.04004  0.002  -0.091032  -0.135622  0.003444  4.003332  0.004
C  C55  1  0.42740523  0.51046080  0.35196871  1  -0.115433  -0.010973  3.773338  -0.013  -0.135547  -0.002624  4.017908  -0.003  -0.136068  -0.001554  4.039793  -0.002  -0.091173  -0.135607  -0.003449  4.003096  -0.004
C  C56  1  0.07276002  0.64858605  0.48943600  1  -0.115547  -0.010878  3.773985  -0.013  -0.135744  -0.002619  4.018512  -0.003  -0.136323  -0.001556  4.040365  -0.002  -0.091506  -0.135778  -0.003447  4.003726  -0.004
C  C57  1  0.57275967  0.48942778  0.64819086  1  -0.115381  0.010898  3.773827  0.013  -0.135534  0.002618  4.01849  0.003  -0.136074  0.001553  4.040404  0.002  -0.091001  -0.135596  0.003446  4.003659  0.004
C  C58  1  0.88373676  0.36249393  0.38341205  1  -0.074542  -0.007575  3.775166  -0.009  -0.085868  -0.001117  4.0233  -0.002  -0.09009  -0.000871  4.045666  -0.001  -0.093702  -0.083011  -0.001148  4.008877  -0.002
C  C59  1  0.38350428  0.38339951  0.36236629  1  -0.074929  0.007589  3.775443  0.009  -0.08602  0.001118  4.023611  0.002  -0.09023  0.000873  4.045985  0.001  -0.093558  -0.083179  0.001148  4.009183  0.002
C  C60  1  0.11591813  0.63786790  0.61683348  1  -0.075547  0.007498  3.77632  0.009  -0.086967  0.001115  4.024792  0.002  -0.091185  0.000874  4.047171  0.001  -0.094047  -0.084117  0.001146  4.010349  0.002
C  C61  1  0.61593698  0.61682954  0.63729740  1  -0.074463  -0.007514  3.775428  -0.009  -0.085654  -0.001115  4.023608  -0.002  -0.089869  -0.000874  4.04599  -0.001  -0.093514  -0.082797  -0.001148  4.00915  -0.002
C  C62  1  0.95115420  0.26749799  0.28905550  1  -0.050362  0.011517  3.734335  0.013  -0.066241  0.003142  3.985761  0.004  -0.063337  0.00181  4.00233  0.002  -0.086389  -0.069339  0.004197  3.976267  0.005
C  C63  1  0.45121299  0.28895610  0.26754468  1  -0.050613  -0.011531  3.734922  -0.013  -0.066352  -0.003147  3.986162  -0.004  -0.063463  -0.001818  4.002735  -0.002  -0.08648  -0.069445  -0.004201  3.976688  -0.005
C  C64  1  0.04774620  0.73245896  0.71135195  1  -0.048956  -0.011431  3.7356  -0.013  -0.06517  -0.003136  3.986841  -0.003  -0.06226  -0.001816  4.003451  -0.002  -0.086116  -0.068244  -0.004192  3.977308  -0.005
C  C65  1  0.54789378  0.71135150  0.73193183  1  -0.05  0.01146  3.735637  0.013  -0.065977  0.003139  3.987008  0.003  -0.063047  0.001814  4.003601  0.002  -0.086308  -0.069092  0.004194  3.977509  0.005
C  C66  1  0.06223793  0.16299674  0.32223350  1  -0.105593  -0.008319  3.688731  -0.01  -0.127033  -0.001312  3.940239  -0.002  -0.131495  -0.001042  3.957076  -0.001  -0.084233  -0.124235  -0.001166  3.929748  -0.002
C  C67  1  0.56258597  0.32203654  0.16319884  1  -0.105453  0.008334  3.688499  0.01  -0.126545  0.001315  3.940278  0.002  -0.131003  0.001046  3.957121  0.001  -0.084314  -0.123773  0.001167  3.929799  0.002
C  C68  1  0.93674836  0.83697527  0.67799660  1  -0.106011  0.008235  3.689506  0.01  -0.127277  0.001311  3.941214  0.002  -0.131764  0.001051  3.958072  0.001  -0.084555  -0.124505  0.001164  3.930725  0.002
C  C69  1  0.43705586  0.67797141  0.83667848  1  -0.105807  -0.008253  3.689412  -0.01  -0.12691  -0.001313  3.940957  -0.002  -0.131398  -0.001046  3.957808  -0.001  -0.084886  -0.124146  -0.001166  3.930493  -0.002
N  N70  1  0.19348147  0.13102119  0.71402464  1  -0.25419  0.002694  3.449114  0.001  -0.211158  0.003097  3.743393  0.005  -0.234893  0.002443  3.758636  0.004  -0.352984  -0.197067  0.004153  3.733665  0.006
N  N71  1  0.69353929  0.71393997  0.13097713  1  -0.254018  -0.0027  3.44994  -0.001  -0.211222  -0.003104  3.744326  -0.005  -0.234941  -0.002446  3.759558  -0.004  -0.353113  -0.197137  -0.004161  3.734575  -0.006
N  N72  1  0.80695261  0.86934797  0.28563080  1  -0.253704  -0.00273  3.450064  -0.001  -0.211067  -0.003078  3.744821  -0.005  -0.234861  -0.002429  3.760165  -0.004  -0.353196  -0.197002  -0.004127  3.735069  -0.006
N  N73  1  0.30711565  0.28560103  0.86942423  1  -0.253771  0.00274  3.449989  0.001  -0.211847  0.003086  3.745165  0.005  -0.235593  0.002436  3.760435  0.004  -0.353041  -0.197772  0.004137  3.735428  0.006
O  O74  1  0.18194155  0.93231593  0.92435781  1  -0.507349  0.008256  2.167718  0.013  -0.483241  0.00345  2.435128  0.007  -0.521925  0.003137  2.432901  0.006  -0.290371  -0.455853  0.002162  2.434694  0.004
O  O75  1  0.68189650  0.92423334  0.93229984  1  -0.507209  -0.008242  2.167256  -0.013  -0.483162  -0.003438  2.434814  -0.007  -0.521844  -0.003128  2.432594  -0.006  -0.290342  -0.455752  -0.002153  2.434327  -0.004
O  O76  1  0.81782898  0.06745234  0.07514651  1  -0.506781  -0.008333  2.167638  -0.013  -0.482633  -0.003489  2.435154  -0.007  -0.521325  -0.003172  2.432937  -0.006  -0.290422  -0.455214  -0.002211  2.434672  -0.004
O  O77  1  0.31786586  0.07506358  0.06756356  1  -0.507136  0.008346  2.166886  0.013  -0.483099  0.003492  2.434451  0.007  -0.521805  0.003172  2.432214  0.006  -0.290908  -0.455667  0.002211  2.433981  0.004
O  O78  1  0.98692086  0.82427540  0.01801040  1  -0.546334  0.036691  2.0647  0.055  -0.518166  0.029573  2.316257  0.046  -0.549908  0.02401  2.309027  0.038  -0.286753  -0.493561  0.033817  2.31837  0.052
O  O79  1  0.48699674  0.01805114  0.82426560  1  -0.546688  -0.036667  2.064198  -0.055  -0.518193  -0.029561  2.315586  -0.046  -0.549944  -0.024  2.308368  -0.038  -0.286805  -0.493596  -0.033819  2.317709  -0.052
O  O80  1  0.01290024  0.17547059  0.98167256  1  -0.546527  -0.036535  2.063048  -0.055  -0.518151  -0.029482  2.314471  -0.046  -0.549882  -0.023937  2.307317  -0.038  -0.287098  -0.493585  -0.033713  2.316589  -0.052
O  O81  1  0.51287111  0.98149091  0.17552581  1  -0.54647  0.036552  2.063209  0.055  -0.517992  0.029487  2.314485  0.046  -0.549727  0.023941  2.307326  0.038  -0.287029  -0.493411  0.033705  2.316587  0.052
