# generated using pymatgen
data_NiH20C16(N2O3)2
_symmetry_space_group_name_H-M   'P 1'
_cell_length_a   7.90711029
_cell_length_b   10.69266271
_cell_length_c   11.33142862
_cell_angle_alpha   103.69746199
_cell_angle_beta   102.32568615
_cell_angle_gamma   103.96219509
_symmetry_Int_Tables_number   1
_chemical_formula_structural   NiH20C16(N2O3)2
_chemical_formula_sum   'Ni2 H40 C32 N8 O12'
_cell_volume   865.30021348
_cell_formula_units_Z   2
loop_
 _symmetry_equiv_pos_site_id
 _symmetry_equiv_pos_as_xyz
  1  'x, y, z'
loop_
 _atom_site_type_symbol
 _atom_site_label
 _atom_site_symmetry_multiplicity
 _atom_site_fract_x
 _atom_site_fract_y
 _atom_site_fract_z
 _atom_site_occupancy
 _atom_site_hle17_ddec_charge
 _atom_site_hle17_ddec_spin_density
 _atom_site_hle17_ddec_sum_bond_order
 _atom_site_hle17_magmom
 _atom_site_hse06_10hf_ddec_charge
 _atom_site_hse06_10hf_ddec_spin_density
 _atom_site_hse06_10hf_ddec_sum_bond_order
 _atom_site_hse06_10hf_magmom
 _atom_site_hse06_ddec_charge
 _atom_site_hse06_ddec_spin_density
 _atom_site_hse06_ddec_sum_bond_order
 _atom_site_hse06_magmom
 _atom_site_pbe_cm5_charge
 _atom_site_pbe_ddec_charge
 _atom_site_pbe_ddec_spin_density
 _atom_site_pbe_ddec_sum_bond_order
 _atom_site_pbe_magmom
Ni  Ni0  1  0.50000127  0.49999918  0.99999922  1  0.887188  1.773779  1.913252  1.534  0.885239  1.833232  2.294725  1.652  0.973849  1.881769  2.224419  1.732  0.628079  0.81606  1.788899  2.349731  1.581
Ni  Ni1  1  0.50000123  0.00000038  0.00000032  1  0.875625  1.763101  1.913316  1.526  0.868829  1.824277  2.293173  1.644  0.960605  1.87592  2.220899  1.727  0.634841  0.798257  1.777314  2.34848  1.572
H  H2  1  0.41850802  0.71953731  0.68810986  1  0.10709  -0.000418  0.955411  0.0  0.118198  -8.6e-05  1.022747  0.0  0.120241  -7.7e-05  1.022567  0.0  0.096784  0.116678  -9.6e-05  1.023225  0.0
H  H3  1  0.58149117  0.28046123  0.31188813  1  0.107067  -0.000426  0.955473  0.0  0.118187  -8.6e-05  1.022807  0.0  0.120229  -7.7e-05  1.022628  0.0  0.096769  0.116662  -9.6e-05  1.023281  0.0
H  H4  1  0.46783648  0.60351892  0.56928179  1  0.116646  0.00037  0.926639  0.001  0.12957  0.000342  0.987998  0.0  0.132091  0.000223  0.986334  0.0  0.102309  0.127862  0.000479  0.989229  0.001
H  H5  1  0.53216271  0.39647962  0.43071619  1  0.116648  0.00037  0.92664  0.001  0.12958  0.000342  0.988005  0.0  0.132101  0.000223  0.986341  0.0  0.102309  0.127867  0.000479  0.989231  0.001
H  H6  1  0.23264845  0.52253180  0.38318529  1  0.094337  -9e-06  0.9706  0.0  0.10304  1.8e-05  1.036847  0.0  0.106118  1.7e-05  1.035655  0.0  0.09356  0.100844  2e-05  1.037719  0.0
H  H7  1  0.76735118  0.47746775  0.61681211  1  0.094364  -8e-06  0.97058  0.0  0.103072  1.8e-05  1.036821  0.0  0.10615  1.8e-05  1.035628  0.0  0.09357  0.100875  2e-05  1.037692  0.0
H  H8  1  0.09547123  0.56795174  0.73490771  1  0.086758  0.000225  0.968873  0.0  0.098885  0.000312  1.030254  0.0  0.101951  0.000213  1.028856  0.0  0.095732  0.096626  0.000416  1.031425  0.0
H  H9  1  0.90452752  0.43204578  0.26508911  1  0.086704  0.00022  0.968894  0.0  0.098839  0.000312  1.030271  0.0  0.101906  0.000214  1.028875  0.0  0.095712  0.096587  0.000416  1.031428  0.0
H  H10  1  0.47628974  0.64071572  0.19908380  1  0.395897  -0.00105  0.927767  -0.001  0.362531  -0.000434  0.999325  0.0  0.374456  -0.000535  0.982282  -0.001  0.278055  0.35409  -0.00028  1.011299  0.0
H  H11  1  0.52370815  0.35928283  0.80091488  1  0.395883  -0.001051  0.927786  -0.001  0.362518  -0.000434  0.999341  0.0  0.374444  -0.000535  0.982297  -0.001  0.278066  0.354076  -0.00028  1.011316  0.0
H  H12  1  0.52662402  0.76020964  0.13321819  1  0.415351  9.4e-05  0.884258  0.0  0.388812  0.000571  0.945532  0.001  0.400763  0.000339  0.928587  0.001  0.288398  0.380118  0.000817  0.957774  0.001
H  H13  1  0.47337774  0.23978887  0.86678018  1  0.415338  9.3e-05  0.884268  0.0  0.388808  0.000571  0.945532  0.001  0.400757  0.000339  0.928592  0.001  0.288412  0.380114  0.000817  0.957772  0.001
H  H14  1  0.15931152  0.33464255  0.74743400  1  0.099641  5e-06  0.96999  0.0  0.109108  0.000125  1.030281  0.0  0.11118  7.4e-05  1.029531  0.0  0.114469  0.107429  0.000175  1.031164  0.001
H  H15  1  0.84069200  0.66536001  0.25256290  1  0.099676  7e-06  0.969951  0.0  0.109145  0.000125  1.030224  0.0  0.111215  7.4e-05  1.029475  0.0  0.11446  0.107462  0.000175  1.031125  0.001
H  H16  1  0.17461105  0.43464753  0.13292834  1  0.088001  2.5e-05  0.938684  0.001  0.099206  4.2e-05  0.998829  0.0  0.101054  2.2e-05  0.996678  0.0  0.136272  0.097674  6.3e-05  1.000596  0.0
H  H17  1  0.82539158  0.56534996  0.86706817  1  0.088026  2.7e-05  0.938621  0.001  0.099237  4.2e-05  0.998761  0.0  0.101085  2.2e-05  0.996609  0.0  0.136274  0.097706  6.3e-05  1.000526  0.0
H  H18  1  0.84544585  0.28955644  0.00306502  1  0.316849  0.000629  0.897684  0.001  0.299652  0.000571  0.954082  0.001  0.308605  0.000405  0.946816  0.0  0.312572  0.293092  0.000737  0.959552  0.001
H  H19  1  0.15455635  0.71044309  0.99693189  1  0.316821  0.000628  0.897693  0.001  0.299688  0.000571  0.954016  0.001  0.308607  0.000404  0.946805  0.0  0.312571  0.293138  0.000737  0.959486  0.001
H  H20  1  0.81151684  0.22946767  0.76588919  1  0.098037  0.00045  0.990744  0.001  0.107329  0.000426  1.055672  0.0  0.10957  0.00031  1.054998  0.0  0.113369  0.10553  0.000562  1.056535  0.0
H  H21  1  0.18848410  0.77053491  0.23410732  1  0.098053  0.000445  0.990741  0.0  0.107334  0.000426  1.05569  0.0  0.109578  0.00031  1.05501  0.0  0.11336  0.105536  0.000562  1.056553  0.0
H  H22  1  0.08921020  0.98882821  0.57047139  1  0.100695  0.000565  0.951205  0.001  0.115905  0.000391  1.011725  0.0  0.118005  0.000241  1.009934  0.0  0.096793  0.114563  0.000567  1.012868  0.001
H  H23  1  0.91079029  0.01117336  0.42952835  1  0.100657  0.000567  0.951249  0.001  0.115833  0.000391  1.011785  0.0  0.11793  0.000241  1.009998  0.0  0.096779  0.114492  0.000568  1.012927  0.001
H  H24  1  0.24238444  0.15248535  0.66399159  1  0.109232  -0.000384  0.950938  0.0  0.123191  -3.6e-05  1.01239  0.0  0.125929  -2.2e-05  1.010365  0.0  0.10106  0.12117  -4.8e-05  1.014046  0.0
H  H25  1  0.75761475  0.84751623  0.33600885  1  0.10923  -0.000388  0.950935  0.0  0.123158  -3.6e-05  1.012414  0.0  0.125895  -2.2e-05  1.010389  0.0  0.101061  0.121138  -4.8e-05  1.014073  0.0
H  H26  1  0.25357018  0.80408390  0.49832936  1  0.105721  -4.2e-05  0.952251  0.0  0.11824  -7e-06  1.008803  0.0  0.120888  -3e-06  1.008827  0.0  0.104473  0.116412  -1.4e-05  1.00878  0.0
H  H27  1  0.74642771  0.19591769  0.50167265  1  0.105726  -4.1e-05  0.952236  0.0  0.118249  -6e-06  1.008789  0.0  0.120896  -3e-06  1.008815  0.0  0.104478  0.116419  -1.4e-05  1.008762  0.0
H  H28  1  0.50922027  0.23479946  0.60424801  1  0.113324  6.4e-05  0.986026  0.0  0.124266  0.000106  1.046938  0.0  0.127995  7.8e-05  1.044316  0.0  0.103168  0.121377  0.000161  1.049266  0.0
H  H29  1  0.49078020  0.76520211  0.39575350  1  0.113282  5e-05  0.986041  0.0  0.124242  0.000106  1.046942  0.0  0.127959  7.8e-05  1.044336  0.0  0.103149  0.121356  0.000161  1.049274  0.0
H  H30  1  0.25501405  0.81261637  0.83821810  1  0.396968  -0.00125  0.921706  -0.002  0.362777  -0.000599  0.998791  -0.001  0.374749  -0.000667  0.981798  -0.001  0.281788  0.354351  -0.000476  1.010671  0.0
H  H31  1  0.74498514  0.18738521  0.16178234  1  0.396918  -0.001251  0.921766  -0.002  0.362758  -0.000599  0.998822  -0.001  0.37473  -0.000667  0.981829  -0.001  0.281782  0.354335  -0.000476  1.010699  0.0
H  H32  1  0.37530756  0.72489539  0.89340150  1  0.420759  -0.00037  0.874506  -0.001  0.39332  0.000178  0.942257  0.0  0.405396  8e-06  0.925254  0.0  0.291778  0.384588  0.000373  0.954466  0.0
H  H33  1  0.62469205  0.27510416  0.10659678  1  0.420724  -0.000372  0.874565  -0.001  0.393298  0.000178  0.942286  0.0  0.405372  8e-06  0.925286  0.0  0.291779  0.384566  0.000372  0.954494  0.0
H  H34  1  0.20244373  0.15561864  0.97987036  1  0.110269  -3e-05  0.971154  0.0  0.116834  7.9e-05  1.033364  0.0  0.118844  2.8e-05  1.033337  0.0  0.118198  0.115328  0.000129  1.033546  0.001
H  H35  1  0.79755025  0.84437690  0.02013058  1  0.110267  -2.9e-05  0.971123  0.0  0.116809  7.9e-05  1.03337  0.0  0.118819  2.8e-05  1.033342  0.0  0.118178  0.115296  0.000129  1.03355  0.001
H  H36  1  0.03514239  0.20929184  0.17234173  1  0.113217  0.000415  0.982084  0.0  0.123373  0.000371  1.042009  0.0  0.12612  0.000268  1.040609  0.0  0.12381  0.121281  0.00047  1.043214  0.0
H  H37  1  0.96485889  0.79070565  0.82766428  1  0.113247  0.000414  0.982013  0.0  0.123349  0.000371  1.042  0.0  0.126097  0.000268  1.0406  0.0  0.123813  0.121258  0.00047  1.043205  0.0
H  H38  1  0.16457032  0.10183328  0.33043742  1  0.301331  0.000474  0.864369  0.001  0.294112  0.000383  0.906403  0.0  0.299859  0.000285  0.903332  0.0  0.33757  0.289847  0.000484  0.908932  0.001
H  H39  1  0.83543957  0.89816615  0.66956856  1  0.301296  0.000475  0.864353  0.001  0.294077  0.000383  0.906405  0.0  0.299825  0.000285  0.903334  0.0  0.337594  0.289816  0.000484  0.908934  0.001
H  H40  1  0.38769508  0.98307354  0.26048937  1  0.076371  -5.2e-05  0.998676  0.0  0.084001  5e-06  1.066725  0.0  0.084998  -2.4e-05  1.066408  0.0  0.127426  0.08302  4.7e-05  1.067295  0.0
H  H41  1  0.61231269  0.01692693  0.73951300  1  0.076399  -4.9e-05  0.998747  0.001  0.084075  6e-06  1.066745  0.0  0.085073  -2.4e-05  1.066427  0.0  0.12745  0.083091  4.7e-05  1.067317  0.0
C  C42  1  0.44756966  0.53951638  0.73276686  1  0.703939  -0.005018  3.822304  -0.004  0.658116  -0.001487  4.130913  -0.001  0.692926  -0.001343  4.123956  -0.001  0.213894  0.634056  -0.001623  4.134387  -0.001
C  C43  1  0.55242694  0.46048219  0.26723074  1  0.703879  -0.005033  3.822404  -0.004  0.658072  -0.001486  4.131015  -0.001  0.692882  -0.00134  4.124059  -0.001  0.213883  0.634007  -0.001623  4.134488  -0.001
C  C44  1  0.38851784  0.61175386  0.63781195  1  -0.312887  0.004629  3.682884  0.006  -0.356071  0.002672  3.923579  0.004  -0.361824  0.001782  3.930344  0.002  -0.165535  -0.352022  0.003619  3.919097  0.005
C  C45  1  0.61147921  0.38824572  0.36218595  1  -0.3128  0.004636  3.682785  0.006  -0.356054  0.002671  3.923581  0.004  -0.361808  0.001781  3.930347  0.002  -0.165489  -0.35198  0.003619  3.919063  0.005
C  C46  1  0.18766486  0.55196973  0.56736860  1  0.117351  0.000167  3.743451  0.0  0.136525  5e-06  3.979807  0.0  0.137265  -4.7e-05  4.003895  0.0  -0.013648  0.135906  9.2e-05  3.96364  0.0
C  C47  1  0.81233305  0.44803187  0.43263077  1  0.117353  0.000129  3.743432  0.0  0.136552  5e-06  3.979775  0.0  0.137291  -4.8e-05  4.003863  0.0  -0.013656  0.135926  9.2e-05  3.963608  0.0
C  C48  1  0.13022620  0.51241368  0.43453430  1  -0.136382  0.000311  3.755276  0.0  -0.153416  0.000184  4.001059  0.0  -0.156689  0.000105  4.022878  0.0  -0.101712  -0.150991  0.000304  3.986016  0.0
C  C49  1  0.86977298  0.48758485  0.56546280  1  -0.136455  0.000336  3.755457  0.0  -0.153496  0.000184  4.001222  0.0  -0.156769  0.000105  4.02304  0.0  -0.10173  -0.151069  0.000304  3.98618  0.0
C  C50  1  0.05442532  0.53841373  0.63160618  1  -0.11795  0.000409  3.760249  0.0  -0.138173  0.000345  4.008558  0.0  -0.140308  0.000218  4.029327  0.0  -0.102287  -0.136578  0.000513  3.994397  0.001
C  C51  1  0.94557387  0.46158481  0.36839093  1  -0.117931  0.000448  3.76018  0.001  -0.138159  0.000345  4.008472  0.0  -0.140295  0.000218  4.029242  0.0  -0.10228  -0.136562  0.000513  3.994317  0.001
C  C52  1  0.11188028  0.33756379  0.83062280  1  -0.029255  -0.003493  3.768678  -0.002  -0.056642  -0.001379  4.040849  -0.001  -0.054033  -0.001769  4.061785  -0.001  -0.012537  -0.058768  -0.001134  4.027183  0.0
C  C53  1  0.88812108  0.66243676  0.16937420  1  -0.029332  -0.003513  3.76884  -0.002  -0.056701  -0.001379  4.040985  -0.001  -0.054091  -0.001767  4.061923  -0.001  -0.01256  -0.058831  -0.001134  4.027316  0.0
C  C54  1  0.12555119  0.39237519  0.03067150  1  0.21643  -0.011793  3.660428  -0.007  0.161478  -0.004549  3.938792  -0.002  0.17739  -0.004785  3.95119  -0.003  0.14222  0.150797  -0.004561  3.930272  -0.002
C  C55  1  0.87445102  0.60762434  0.96932540  1  0.216436  -0.011799  3.660266  -0.007  0.161516  -0.00455  3.938651  -0.002  0.177428  -0.004786  3.951041  -0.003  0.142266  0.150844  -0.004561  3.930132  -0.002
C  C56  1  0.93918064  0.28468084  0.83813793  1  -0.020744  0.002783  3.715775  0.003  -0.058648  0.001338  3.975796  0.002  -0.056703  0.001158  3.99392  0.001  -0.007679  -0.060118  0.001568  3.964243  0.002
C  C57  1  0.06082071  0.71531971  0.16185996  1  -0.020832  0.002803  3.71589  0.003  -0.058703  0.001338  3.975916  0.002  -0.05676  0.001158  3.994033  0.001  -0.007718  -0.060165  0.001568  3.964367  0.002
C  C58  1  0.26138535  0.98768296  0.74288069  1  0.690815  -0.005162  3.832723  -0.004  0.644659  -0.001424  4.142496  -0.001  0.679285  -0.00136  4.13586  -0.001  0.214206  0.620703  -0.001414  4.145938  -0.001
C  C59  1  0.73861427  0.01231963  0.25712180  1  0.69072  -0.005182  3.832848  -0.004  0.644662  -0.001423  4.142495  -0.001  0.679285  -0.001359  4.13586  -0.001  0.214199  0.6207  -0.001414  4.145935  -0.001
C  C60  1  0.22854633  0.04457507  0.63083857  1  -0.309642  0.005131  3.701802  0.007  -0.358874  0.003068  3.951129  0.004  -0.363641  0.002036  3.956382  0.003  -0.164833  -0.355319  0.004182  3.94738  0.005
C  C61  1  0.77144943  0.95542757  0.36916158  1  -0.309642  0.005131  3.701962  0.007  -0.358811  0.003067  3.951194  0.004  -0.363574  0.002035  3.956446  0.003  -0.164867  -0.355254  0.004182  3.947448  0.005
C  C62  1  0.36443147  0.02216598  0.55866688  1  0.098212  0.000452  3.765774  0.0  0.117505  -2.2e-05  4.008106  0.0  0.117883  -9.8e-05  4.032052  0.0  -0.019816  0.117138  0.000124  3.991715  0.0
C  C63  1  0.63556685  0.97783662  0.44133630  1  0.098067  0.000425  3.766059  0.0  0.117409  -2.1e-05  4.008298  0.0  0.117786  -9.5e-05  4.032243  0.0  -0.019841  0.117041  0.000124  3.991912  0.0
C  C64  1  0.36044326  0.89039912  0.49803746  1  -0.123482  0.000744  3.737932  0.001  -0.143423  0.000325  3.988198  0.0  -0.146196  0.000179  4.009642  0.0  -0.09597  -0.14124  0.000561  3.973303  0.001
C  C65  1  0.63955206  0.10960250  0.50196416  1  -0.123319  0.000769  3.73795  0.001  -0.143283  0.000325  3.988201  0.0  -0.146057  0.000179  4.009653  0.0  -0.095894  -0.141097  0.000561  3.973296  0.001
C  C66  1  0.50532985  0.13153799  0.55943251  1  -0.139923  0.000426  3.737113  0.0  -0.159746  0.000387  3.986728  0.0  -0.161999  0.000251  4.00628  0.0  -0.099652  -0.157958  0.000542  3.973519  0.0
C  C67  1  0.49466848  0.86846462  0.44056979  1  -0.139752  0.000475  3.737173  0.0  -0.159604  0.000386  3.986746  0.0  -0.161848  0.00025  4.00631  0.0  -0.099568  -0.157821  0.000542  3.973551  0.0
C  C68  1  0.21555310  0.12805197  0.06640120  1  0.003575  -0.004458  3.726996  -0.002  -0.027305  -0.001804  3.999833  -0.001  -0.024005  -0.002282  4.020447  -0.001  -0.004348  -0.029793  -0.001469  3.986198  -0.001
C  C69  1  0.78444390  0.87194455  0.93359954  1  0.003671  -0.004483  3.727018  -0.002  -0.027195  -0.001803  3.999811  -0.001  -0.023896  -0.002282  4.020425  -0.001  -0.004276  -0.029674  -0.001469  3.986171  -0.001
C  C70  1  0.13366376  0.15674588  0.16024501  1  -0.01201  0.003441  3.689075  0.004  -0.0506  0.001483  3.950734  0.002  -0.04934  0.001357  3.968198  0.002  -0.001853  -0.05164  0.001671  3.939593  0.002
C  C71  1  0.86633796  0.84325262  0.83975954  1  -0.011976  0.003458  3.689121  0.004  -0.050524  0.001483  3.950789  0.002  -0.049264  0.001357  3.968256  0.002  -0.001824  -0.051568  0.001671  3.939651  0.002
C  C72  1  0.31563725  0.03618347  0.20827032  1  0.202195  -0.011868  3.682003  -0.007  0.148588  -0.004365  3.958738  -0.002  0.164009  -0.004729  3.972518  -0.002  0.134946  0.138086  -0.00431  3.949566  -0.002
C  C73  1  0.68436923  0.96381702  0.79173186  1  0.2021  -0.011883  3.682177  -0.007  0.148439  -0.004364  3.958913  -0.002  0.163859  -0.004728  3.972693  -0.002  0.134901  0.13794  -0.00431  3.949738  -0.002
N  N74  1  0.22726781  0.40426796  0.95157620  1  -0.356486  0.045072  3.306563  0.072  -0.321794  0.028915  3.618373  0.047  -0.350551  0.022745  3.636951  0.039  -0.362069  -0.301355  0.033741  3.605609  0.052
N  N75  1  0.77273439  0.59573156  0.04842247  1  -0.356513  0.045074  3.30658  0.072  -0.321849  0.028916  3.618405  0.047  -0.350607  0.022746  3.636983  0.039  -0.362089  -0.301408  0.03374  3.605638  0.052
N  N76  1  0.95088669  0.31992421  0.96523084  1  -0.277386  0.000464  3.458138  0.002  -0.207025  0.000561  3.687286  0.001  -0.222741  0.000298  3.700467  0.001  -0.379845  -0.196597  0.000823  3.678777  0.002
N  N77  1  0.04911551  0.68007531  0.03476694  1  -0.277269  0.000461  3.458121  0.002  -0.207012  0.000561  3.687288  0.001  -0.222702  0.000297  3.700495  0.001  -0.379798  -0.196605  0.000823  3.678794  0.002
N  N78  1  0.32884923  0.05329450  0.09743768  1  -0.355717  0.044761  3.304394  0.072  -0.316483  0.028412  3.611292  0.046  -0.345991  0.022432  3.629829  0.039  -0.36145  -0.295706  0.032976  3.598857  0.051
N  N79  1  0.67115295  0.94670502  0.90256363  1  -0.355797  0.044763  3.304572  0.072  -0.31653  0.028412  3.611451  0.046  -0.346039  0.022431  3.629988  0.039  -0.361479  -0.295751  0.032975  3.599011  0.051
N  N80  1  0.19810614  0.09761978  0.24843634  1  -0.278641  -0.000185  3.486941  0.001  -0.214303  8.2e-05  3.720436  0.001  -0.229014  -4e-05  3.735153  0.001  -0.382213  -0.204655  0.000198  3.71104  0.001
N  N81  1  0.80190075  0.90237866  0.75156809  1  -0.278583  -0.000188  3.487098  0.001  -0.214269  8.2e-05  3.720622  0.001  -0.228978  -4.1e-05  3.735337  0.001  -0.382268  -0.204623  0.000198  3.71123  0.001
O  O82  1  0.49080774  0.43389465  0.69316354  1  -0.64015  -0.001636  1.95926  0.0  -0.588427  -0.001216  2.188254  0.0  -0.613567  -0.001352  2.177777  -0.001  -0.323315  -0.570726  -0.000921  2.195021  0.0
O  O83  1  0.50918887  0.56610391  0.30683406  1  -0.640135  -0.001636  1.959273  0.0  -0.588428  -0.001215  2.188274  0.0  -0.613565  -0.001352  2.177796  -0.001  -0.32333  -0.570728  -0.00092  2.195045  0.0
O  O84  1  0.44620567  0.58865001  0.84754248  1  -0.632224  0.042405  2.080648  0.074  -0.58806  0.028552  2.33985  0.051  -0.626163  0.02065  2.332622  0.039  -0.301567  -0.558901  0.036171  2.343377  0.061
O  O85  1  0.55379309  0.41135056  0.15245678  1  -0.632218  0.042409  2.080734  0.074  -0.588047  0.028551  2.339921  0.051  -0.626147  0.020649  2.332694  0.039  -0.301591  -0.558889  0.036171  2.34345  0.061
O  O86  1  0.45041718  0.66606057  0.11815728  1  -0.800549  0.04121  1.945596  0.069  -0.773628  0.029661  2.160479  0.05  -0.803609  0.021969  2.12637  0.04  -0.581143  -0.750243  0.036677  2.18435  0.059
O  O87  1  0.54958458  0.33393794  0.88184109  1  -0.800523  0.04121  1.945612  0.069  -0.773617  0.029659  2.160522  0.05  -0.803596  0.021969  2.126417  0.04  -0.581176  -0.750235  0.036677  2.184393  0.059
O  O88  1  0.37801326  0.06742077  0.84702890  1  -0.623849  0.043125  2.074227  0.075  -0.572981  0.029422  2.323757  0.052  -0.611297  0.021412  2.315905  0.04  -0.299287  -0.544217  0.037011  2.32829  0.062
O  O89  1  0.62198851  0.93258079  0.15297104  1  -0.623878  0.043132  2.07431  0.075  -0.57301  0.029424  2.323773  0.052  -0.61132  0.021414  2.315917  0.04  -0.299262  -0.544238  0.037013  2.328298  0.062
O  O90  1  0.17881779  0.86469511  0.72302172  1  -0.615711  -0.001095  1.984052  0.0  -0.564067  -0.000706  2.212272  0.0  -0.589106  -0.000973  2.204648  0.0  -0.312198  -0.546521  -0.000343  2.217037  0.001
O  O91  1  0.82117624  0.13530652  0.27697971  1  -0.615532  -0.00109  1.983979  0.0  -0.564062  -0.000707  2.212275  0.0  -0.58909  -0.000973  2.204629  0.0  -0.312214  -0.546519  -0.000344  2.217037  0.001
O  O92  1  0.31489870  0.79550611  0.91923542  1  -0.797474  0.041025  1.954401  0.069  -0.76661  0.030026  2.173704  0.051  -0.798038  0.022158  2.140008  0.04  -0.561358  -0.742403  0.037308  2.197148  0.06
O  O93  1  0.68510265  0.20449444  0.08076335  1  -0.79743  0.041028  1.954495  0.069  -0.766564  0.030026  2.17378  0.051  -0.798004  0.022158  2.140087  0.04  -0.56136  -0.74236  0.037309  2.19722  0.06
