# generated using pymatgen
data_CuH16C14Se2(NCl)2
_symmetry_space_group_name_H-M   'P 1'
_cell_length_a   10.10103638
_cell_length_b   11.38542299
_cell_length_c   14.73210972
_cell_angle_alpha   90.00021331
_cell_angle_beta   89.99855036
_cell_angle_gamma   90.00020302
_symmetry_Int_Tables_number   1
_chemical_formula_structural   CuH16C14Se2(NCl)2
_chemical_formula_sum   'Cu4 H64 C56 Se8 N8 Cl8'
_cell_volume   1694.25996969
_cell_formula_units_Z   4
loop_
 _symmetry_equiv_pos_site_id
 _symmetry_equiv_pos_as_xyz
  1  'x, y, z'
loop_
 _atom_site_type_symbol
 _atom_site_label
 _atom_site_symmetry_multiplicity
 _atom_site_fract_x
 _atom_site_fract_y
 _atom_site_fract_z
 _atom_site_occupancy
 _atom_site_pbe_cm5_charge
 _atom_site_pbe_ddec_charge
 _atom_site_pbe_ddec_spin_density
 _atom_site_pbe_ddec_sum_bond_order
 _atom_site_pbe_magmom
Cu  Cu0  1  0.00000067  0.00000384  0.50000035  1  0.590111  0.551226  0.695024  2.55881  0.496
Cu  Cu1  1  0.49999690  0.50000186  0.49999877  1  0.590191  0.551371  -0.671964  2.558998  -0.497
Cu  Cu2  1  0.00000298  0.49999723  0.00000140  1  0.590201  0.551426  -0.671903  2.55881  -0.497
Cu  Cu3  1  0.49998831  0.99998647  0.00000525  1  0.590105  0.551179  -0.671908  2.55881  -0.497
H  H4  1  0.07276459  0.81732921  0.63691407  1  0.118068  0.084947  0.000768  1.005001  0.002
H  H5  1  0.57275866  0.68267734  0.36308725  1  0.118094  0.085053  -0.000702  1.004824  -0.002
H  H6  1  0.92723411  0.31732684  0.86308536  1  0.118059  0.084961  -0.001505  1.004971  -0.002
H  H7  1  0.42723717  0.18267494  0.13691381  1  0.118081  0.084989  -0.001503  1.004953  -0.002
H  H8  1  0.92723515  0.18267188  0.36308686  1  0.118041  0.084961  0.000768  1.005006  0.002
H  H9  1  0.42724108  0.31732551  0.63691164  1  0.118083  0.085045  -0.000703  1.004889  -0.002
H  H10  1  0.07276662  0.68267600  0.13691082  1  0.118095  0.085072  -0.001505  1.004921  -0.002
H  H11  1  0.57276257  0.81732791  0.86308576  1  0.118071  0.085018  -0.001503  1.004984  -0.002
H  H12  1  0.98459083  0.75933054  0.79121935  1  0.095017  0.106001  0.000597  1.049972  0.001
H  H13  1  0.48460235  0.74067116  0.20878298  1  0.094996  0.105959  -0.000655  1.050009  -0.001
H  H14  1  0.01540764  0.25933334  0.70877720  1  0.095036  0.106057  -0.000555  1.049897  -0.001
H  H15  1  0.51539470  0.24066802  0.29121418  1  0.094977  0.105902  -0.000666  1.050119  -0.001
H  H16  1  0.01540891  0.24066879  0.20877886  1  0.095001  0.105985  0.000597  1.049966  0.001
H  H17  1  0.51539936  0.25932993  0.79121456  1  0.094987  0.105946  -0.000655  1.050025  -0.001
H  H18  1  0.98459507  0.74067390  0.29121762  1  0.094972  0.105939  -0.000554  1.050016  -0.001
H  H19  1  0.48460603  0.75933307  0.70878539  1  0.094963  0.1059  -0.000666  1.050102  -0.001
H  H20  1  0.79569638  0.87287646  0.85543531  1  0.103042  0.101519  -0.001015  1.020697  0.0
H  H21  1  0.29570586  0.62713693  0.14456283  1  0.102995  0.101442  -0.001145  1.020827  0.0
H  H22  1  0.20430452  0.37287516  0.64456361  1  0.103027  0.101485  0.001046  1.020717  0.0
H  H23  1  0.70429766  0.12713909  0.35543807  1  0.103015  0.101469  -0.00118  1.020736  0.0
H  H24  1  0.20430533  0.12712463  0.14456630  1  0.103038  0.101496  -0.001016  1.020728  0.0
H  H25  1  0.70429684  0.37286240  0.85543606  1  0.103004  0.101454  -0.001144  1.020773  0.0
H  H26  1  0.79569918  0.62713208  0.35543596  1  0.103007  0.101416  0.001046  1.020832  0.0
H  H27  1  0.29570109  0.87286111  0.64456150  1  0.103003  0.101456  -0.001179  1.020688  0.0
H  H28  1  0.70683216  0.04594241  0.77028619  1  0.097799  0.11928  0.000555  1.031948  0.001
H  H29  1  0.20683584  0.45406745  0.22971613  1  0.097849  0.1194  -0.000639  1.031981  -0.001
H  H30  1  0.29317338  0.54593626  0.72971450  1  0.097833  0.119388  -0.000664  1.031827  -0.001
H  H31  1  0.79316404  0.95406571  0.27028232  1  0.097848  0.119392  -0.0005  1.031946  -0.001
H  H32  1  0.29317055  0.95405692  0.22971474  1  0.097801  0.119305  0.000556  1.031913  0.001
H  H33  1  0.79316390  0.54593451  0.77028209  1  0.097835  0.119365  -0.000639  1.031993  -0.001
H  H34  1  0.70683131  0.45406922  0.27028711  1  0.097852  0.11941  -0.000664  1.031956  -0.001
H  H35  1  0.20683669  0.04593626  0.72971589  1  0.09782  0.11937  -0.000501  1.031919  -0.001
H  H36  1  0.55530364  0.10306315  0.64274781  1  0.088658  0.106017  7e-06  0.999807  0.0
H  H37  1  0.05530833  0.39693833  0.35725238  1  0.088651  0.105966  2.4e-05  0.999922  0.0
H  H38  1  0.44469619  0.60306161  0.85725169  1  0.08864  0.105974  4.8e-05  0.999883  0.0
H  H39  1  0.94469727  0.89693908  0.14274726  1  0.088651  0.105973  1e-05  0.99989  0.0
H  H40  1  0.44469016  0.89693793  0.35725448  1  0.088671  0.106006  7e-06  0.999866  0.0
H  H41  1  0.94469438  0.60306276  0.64274719  1  0.088657  0.10599  2.3e-05  0.999866  0.0
H  H42  1  0.55529959  0.39694124  0.14274788  1  0.088634  0.105967  4.9e-05  0.999903  0.0
H  H43  1  0.05530346  0.10306288  0.85725095  1  0.088628  0.105947  1e-05  0.999883  0.0
H  H44  1  0.55678671  0.18957265  0.54158386  1  0.083329  0.109745  0.000214  1.040458  0.0
H  H45  1  0.05678534  0.31042620  0.45841563  1  0.083364  0.109805  -0.000217  1.040386  0.0
H  H46  1  0.44321049  0.68957247  0.95841656  1  0.083335  0.10979  -4.6e-05  1.040428  0.0
H  H47  1  0.94321298  0.81042909  0.04158377  1  0.083359  0.109794  -5.1e-05  1.04044  0.0
H  H48  1  0.44321203  0.81042580  0.45841707  1  0.083326  0.109751  0.000214  1.040457  0.0
H  H49  1  0.94321440  0.68957313  0.54158394  1  0.083337  0.109771  -0.000217  1.040436  0.0
H  H50  1  0.55678925  0.31042950  0.04158369  1  0.083353  0.109793  -4.6e-05  1.040443  0.0
H  H51  1  0.05678775  0.18957375  0.95841444  1  0.083332  0.109762  -5.1e-05  1.04044  0.0
H  H52  1  0.59475432  0.92209977  0.55579029  1  0.080764  0.084628  -2.4e-05  0.996515  0.0
H  H53  1  0.09475452  0.57789982  0.44420930  1  0.080785  0.084648  3.1e-05  0.996534  0.0
H  H54  1  0.40524480  0.42209878  0.94420945  1  0.080772  0.084653  1.3e-05  0.996471  0.0
H  H55  1  0.90524584  0.07790205  0.05579011  1  0.080772  0.084629  1.1e-05  0.996511  0.0
H  H56  1  0.40524641  0.07790044  0.44420996  1  0.080774  0.084644  -2.4e-05  0.996494  0.0
H  H57  1  0.90524324  0.42210039  0.55579027  1  0.08076  0.084612  3.1e-05  0.996531  0.0
H  H58  1  0.59475494  0.57790143  0.05578945  1  0.080779  0.084654  1.3e-05  0.996507  0.0
H  H59  1  0.09475588  0.92209992  0.94420946  1  0.080784  0.08465  1.1e-05  0.996504  0.0
H  H60  1  0.64011892  0.00052032  0.45855878  1  0.076166  0.077265  -2.2e-05  1.04555  0.0
H  H61  1  0.14011623  0.49947968  0.54144062  1  0.076162  0.077222  4.7e-05  1.045567  0.0
H  H62  1  0.35988014  0.50051962  0.04144041  1  0.076136  0.077213  0.000128  1.045558  0.0
H  H63  1  0.85988221  0.99948080  0.95856001  1  0.076134  0.07721  9.1e-05  1.045565  0.0
H  H64  1  0.35987983  0.99948165  0.54144215  1  0.076165  0.077272  -2.3e-05  1.045557  0.0
H  H65  1  0.85988153  0.50052141  0.45855963  1  0.076125  0.077198  4.7e-05  1.045532  0.0
H  H66  1  0.64011960  0.49948059  0.95855781  1  0.076191  0.077327  0.000128  1.045509  0.0
H  H67  1  0.14011951  0.00052116  0.04143956  1  0.076134  0.07721  9.1e-05  1.045516  0.0
C  C68  1  0.83995420  0.01852044  0.65675815  1  0.085466  0.155875  -0.000654  3.914159  -0.002
C  C69  1  0.33996271  0.48147930  0.34324254  1  0.085474  0.15577  0.000634  3.91424  0.002
C  C70  1  0.16004529  0.51851881  0.84324247  1  0.085478  0.155814  0.000216  3.914183  0.001
C  C71  1  0.66003629  0.98148098  0.15675735  1  0.085494  0.155834  0.00032  3.914083  0.001
C  C72  1  0.16004158  0.98147977  0.34324278  1  0.08547  0.155828  -0.000652  3.914189  -0.002
C  C73  1  0.66003604  0.51852266  0.65675567  1  0.085457  0.155764  0.000634  3.914282  0.002
C  C74  1  0.83996039  0.48148052  0.15675846  1  0.085509  0.155801  0.000217  3.914268  0.001
C  C75  1  0.33996246  0.01851923  0.84324087  1  0.08554  0.155798  0.000321  3.913999  0.001
C  C76  1  0.99151733  0.86441375  0.66930276  1  0.047721  0.098643  0.000238  3.933024  -0.001
C  C77  1  0.49151998  0.63557919  0.33069402  1  0.047837  0.098585  -0.000133  3.93317  0.001
C  C78  1  0.00848452  0.36441272  0.83069953  1  0.04775  0.098621  -0.000286  3.93309  0.0
C  C79  1  0.50847863  0.13557896  0.16929876  1  0.047876  0.098686  -0.000184  3.932768  0.0
C  C80  1  0.00848340  0.13558734  0.33069682  1  0.047745  0.098534  0.000239  3.933052  -0.001
C  C81  1  0.50847778  0.36442366  0.66930080  1  0.047872  0.098629  -0.000132  3.932864  0.001
C  C82  1  0.99151719  0.63558837  0.16929733  1  0.047731  0.098465  -0.000285  3.932863  0.0
C  C83  1  0.49152012  0.86442389  0.83070013  1  0.047884  0.09856  -0.000185  3.932905  0.0
C  C84  1  0.94221285  0.83267943  0.75371942  1  -0.085286  -0.124863  0.004007  3.959238  0.005
C  C85  1  0.44222666  0.66731247  0.24627753  1  -0.085322  -0.124817  -0.004572  3.959417  -0.005
C  C86  1  0.05778393  0.33268167  0.74627938  1  -0.085325  -0.124963  -0.003897  3.959194  -0.005
C  C87  1  0.55777505  0.16731631  0.25372213  1  -0.085256  -0.124656  -0.004612  3.959192  -0.005
C  C88  1  0.05778590  0.16732078  0.24627811  1  -0.085255  -0.124829  0.004008  3.959158  0.005
C  C89  1  0.55777605  0.33268423  0.75372204  1  -0.085315  -0.124801  -0.004573  3.95923  -0.005
C  C90  1  0.94221185  0.66732820  0.25371680  1  -0.085205  -0.124677  -0.003897  3.959002  -0.005
C  C91  1  0.44222568  0.83268653  0.74627744  1  -0.085285  -0.124686  -0.004609  3.959219  -0.005
C  C92  1  0.83641327  0.89662867  0.78943630  1  -0.064905  -0.01054  -0.003609  3.935019  -0.003
C  C93  1  0.33642121  0.60337607  0.21056250  1  -0.064831  -0.010381  0.001611  3.935195  0.002
C  C94  1  0.16358871  0.39662667  0.71056473  1  -0.064832  -0.010428  0.003688  3.934976  0.003
C  C95  1  0.66357826  0.10337691  0.28943698  1  -0.064842  -0.010492  0.001627  3.935281  0.002
C  C96  1  0.16358943  0.10337154  0.21056463  1  -0.064879  -0.010466  -0.003608  3.935033  -0.003
C  C97  1  0.66357556  0.39662589  0.78943708  1  -0.064848  -0.010459  0.001609  3.935287  0.002
C  C98  1  0.83641796  0.60337705  0.28943553  1  -0.064883  -0.010448  0.003689  3.935338  0.003
C  C99  1  0.33642247  0.89662418  0.71056191  1  -0.064868  -0.010504  0.001623  3.935266  0.002
C  C100  1  0.78527405  0.99177294  0.74133311  1  -0.085406  -0.147933  0.003706  3.944737  0.004
C  C101  1  0.28526994  0.50823603  0.25866793  1  -0.085455  -0.148097  -0.003758  3.944835  -0.004
C  C102  1  0.21473128  0.49176870  0.75866819  1  -0.085441  -0.148027  -0.003867  3.944664  -0.004
C  C103  1  0.71472816  0.00823943  0.24133603  1  -0.085466  -0.148055  -0.003667  3.944748  -0.004
C  C104  1  0.21472766  0.00822815  0.25866850  1  -0.085394  -0.147971  0.003707  3.944777  0.004
C  C105  1  0.71472980  0.49176418  0.74133300  1  -0.085403  -0.147977  -0.003759  3.944744  -0.004
C  C106  1  0.78526747  0.50823766  0.24133410  1  -0.085478  -0.14808  -0.003868  3.944818  -0.004
C  C107  1  0.28527158  0.99176078  0.75866354  1  -0.085475  -0.148039  -0.003667  3.944753  -0.004
C  C108  1  0.59660563  0.11034078  0.57406551  1  -0.177313  -0.194497  -0.000273  3.824272  0.0
C  C109  1  0.09661073  0.38965732  0.42593261  1  -0.177325  -0.194532  0.000279  3.824363  0.0
C  C110  1  0.40339224  0.61034207  0.92593401  1  -0.177304  -0.194529  0.000421  3.824259  0.001
C  C111  1  0.90339187  0.88965937  0.07406634  1  -0.177289  -0.194514  0.00039  3.824282  0.001
C  C112  1  0.40338718  0.88965767  0.42593542  1  -0.177325  -0.194535  -0.000272  3.824406  0.0
C  C113  1  0.90339297  0.61034113  0.57406629  1  -0.177304  -0.194531  0.000278  3.824336  0.0
C  C114  1  0.59660849  0.38965989  0.07406692  1  -0.177296  -0.194517  0.000422  3.824212  0.001
C  C115  1  0.09660688  0.11034260  0.92593255  1  -0.177289  -0.194498  0.000388  3.824251  0.001
C  C116  1  0.57188030  0.00190633  0.51657347  1  -0.17882  -0.132409  -1.1e-05  3.944248  0.0
C  C117  1  0.07188272  0.49809081  0.48342508  1  -0.178758  -0.132335  3e-05  3.944115  0.0
C  C118  1  0.42812011  0.50190710  0.98342574  1  -0.178739  -0.132293  -1.6e-05  3.944116  0.0
C  C119  1  0.92811932  0.99809353  0.01657350  1  -0.178742  -0.132271  -8.7e-05  3.944148  0.0
C  C120  1  0.42811746  0.99809212  0.48342746  1  -0.178774  -0.132364  -1.1e-05  3.944215  0.0
C  C121  1  0.92811801  0.50190764  0.51657381  1  -0.17871  -0.132203  3e-05  3.94407  0.0
C  C122  1  0.57188260  0.49809398  0.01657315  1  -0.17879  -0.13241  -1.6e-05  3.944195  0.0
C  C123  1  0.07188141  0.00190843  0.98342608  1  -0.178741  -0.132284  -8.7e-05  3.94411  0.0
Se  Se124  1  0.78620488  0.15191180  0.58451050  1  0.087747  0.005619  0.001292  2.588966  0.003
Se  Se125  1  0.28620722  0.34808602  0.41548433  1  0.087819  0.005737  -0.001509  2.589067  -0.003
Se  Se126  1  0.21379118  0.65191333  0.91548914  1  0.087808  0.005721  -0.004376  2.588943  -0.005
Se  Se127  1  0.71379125  0.84808927  0.08451721  1  0.087852  0.005805  -0.004835  2.588891  -0.005
Se  Se128  1  0.21378892  0.84809192  0.41549586  1  0.087747  0.005627  0.001293  2.589096  0.003
Se  Se129  1  0.71379450  0.65191507  0.58451320  1  0.087796  0.005712  -0.001512  2.588994  -0.003
Se  Se130  1  0.78621054  0.34808161  0.08452333  1  0.087853  0.0058  -0.004375  2.588867  -0.005
Se  Se131  1  0.28620750  0.15191181  0.91548237  1  0.087794  0.005728  -0.004839  2.588912  -0.005
N  N132  1  0.93946036  0.95407381  0.62178400  1  -0.362613  -0.236295  0.061382  3.700286  0.075
N  N133  1  0.43945991  0.54592774  0.37821911  1  -0.36266  -0.236211  -0.05949  3.700489  -0.075
N  N134  1  0.06053393  0.45407581  0.87821514  1  -0.362649  -0.236269  -0.059329  3.700377  -0.075
N  N135  1  0.56054033  0.04592657  0.12177817  1  -0.362685  -0.236311  -0.059397  3.700461  -0.075
N  N136  1  0.06053937  0.04592903  0.37821692  1  -0.362647  -0.236127  0.061378  3.700248  0.075
N  N137  1  0.56054082  0.45407422  0.62177978  1  -0.362668  -0.236293  -0.059492  3.700556  -0.075
N  N138  1  0.93946779  0.54592176  0.12178375  1  -0.362692  -0.236299  -0.059327  3.700629  -0.075
N  N139  1  0.43945149  0.95406837  0.87822344  1  -0.362696  -0.236183  -0.059407  3.700398  -0.075
Cl  Cl140  1  0.13409982  0.14128662  0.56703595  1  -0.304673  -0.478819  0.101369  1.205405  0.111
Cl  Cl141  1  0.63411380  0.35872565  0.43297577  1  -0.304636  -0.478774  -0.098408  1.20547  -0.113
Cl  Cl142  1  0.86590610  0.64128150  0.93297859  1  -0.304701  -0.478884  -0.098089  1.205499  -0.112
Cl  Cl143  1  0.36586293  0.85868381  0.06703530  1  -0.304731  -0.478901  -0.098245  1.205257  -0.112
Cl  Cl144  1  0.86591081  0.85871007  0.43296158  1  -0.30467  -0.478833  0.101365  1.205375  0.111
Cl  Cl145  1  0.36589485  0.64127807  0.56701633  1  -0.304623  -0.478735  -0.098413  1.205576  -0.113
Cl  Cl146  1  0.13409661  0.35870817  0.06702845  1  -0.304719  -0.478886  -0.098082  1.205449  -0.112
Cl  Cl147  1  0.63412492  0.14126107  0.93298260  1  -0.304733  -0.478897  -0.098294  1.205461  -0.112
