# generated using pymatgen
data_Cu4H8C13N8
_symmetry_space_group_name_H-M   'P 1'
_cell_length_a   14.91870534
_cell_length_b   14.91695739
_cell_length_c   14.91608264
_cell_angle_alpha   89.99822991
_cell_angle_beta   89.99639199
_cell_angle_gamma   89.98869383
_symmetry_Int_Tables_number   1
_chemical_formula_structural   Cu4H8C13N8
_chemical_formula_sum   'Cu12 H24 C39 N24'
_cell_volume   3319.45019484
_cell_formula_units_Z   3
loop_
 _symmetry_equiv_pos_site_id
 _symmetry_equiv_pos_as_xyz
  1  'x, y, z'
loop_
 _atom_site_type_symbol
 _atom_site_label
 _atom_site_symmetry_multiplicity
 _atom_site_fract_x
 _atom_site_fract_y
 _atom_site_fract_z
 _atom_site_occupancy
 _atom_site_pbe_bader_charge
 _atom_site_pbe_bader_spin_density
 _atom_site_pbe_cm5_charge
 _atom_site_pbe_ddec_charge
 _atom_site_pbe_ddec_spin_density
 _atom_site_pbe_ddec_sum_bond_order
 _atom_site_pbe_magmom
Cu  Cu0  1  0.74867784  0.74887633  0.89893260  1  0.515191  0  0.479184  0.201147  0  2.115429  0
Cu  Cu1  1  0.89884501  0.74866951  0.74751863  1  0.547259  0  0.480084  0.20114  0  2.117918  0
Cu  Cu2  1  0.75067207  0.90218586  0.75105794  1  0.515852  0  0.480409  0.200052  0  2.121179  0
Cu  Cu3  1  0.74938887  0.25108911  0.10032957  1  0.517372  0  0.479323  0.20094  0  2.116385  0
Cu  Cu4  1  0.90201382  0.25003163  0.24916094  1  0.527775  0  0.481296  0.200531  0  2.122038  0
Cu  Cu5  1  0.74866961  0.10185604  0.25255403  1  0.543782  0  0.47941  0.201424  0  2.11451  0
Cu  Cu6  1  0.25071271  0.74896301  0.10052986  1  0.515877  0  0.478847  0.200865  0  2.114829  0
Cu  Cu7  1  0.09778535  0.75059255  0.24900255  1  0.515507  0  0.480866  0.200225  0  2.122018  0
Cu  Cu8  1  0.25199467  0.89804491  0.25284905  1  0.533265  0  0.47962  0.20152  0  2.115771  0
Cu  Cu9  1  0.25094125  0.25070950  0.89994723  1  0.516278  0  0.479024  0.200495  0  2.115191  0
Cu  Cu10  1  0.10186292  0.25194813  0.74744450  1  0.519506  0  0.480114  0.200877  0  2.118807  0
Cu  Cu11  1  0.24992068  0.09836332  0.75098759  1  0.533423  0  0.480962  0.200957  0  2.121132  0
H  H12  1  0.81884246  0.59097402  0.02283199  1  0.087091  0  0.116398  0.109119  0  0.999626  0
H  H13  1  0.02434603  0.59222178  0.81807971  1  0.095305  0  0.116442  0.109682  0  0.998555  0
H  H14  1  0.59429152  0.02718720  0.82273112  1  0.099151  0  0.116637  0.109734  0  0.998324  0
H  H15  1  0.59044134  0.81785582  0.02358786  1  0.097301  0  0.116563  0.109644  0  0.999811  0
H  H16  1  0.02118675  0.81700338  0.58747550  1  0.11363  0  0.116255  0.10915  0  1.000651  0
H  H17  1  0.82329078  0.02887916  0.59665188  1  0.087431  0  0.116645  0.10942  0  0.998357  0
H  H18  1  0.81887286  0.40885150  0.97541935  1  0.113994  0  0.11618  0.108894  0  1.0003  0
H  H19  1  0.02635046  0.40707337  0.17817002  1  0.113327  0  0.116526  0.109684  0  0.998875  0
H  H20  1  0.59192681  0.97635415  0.18248619  1  0.083837  0  0.116418  0.109633  0  0.999139  0
H  H21  1  0.59177836  0.18050331  0.97630908  1  0.085209  0  0.116485  0.109609  0  0.998872  0
H  H22  1  0.02893939  0.17733172  0.40327464  1  0.080893  0  0.1166  0.109393  0  0.997368  0
H  H23  1  0.81686736  0.97972641  0.41298450  1  0.092354  0  0.116297  0.10905  0  1.00032  0
H  H24  1  0.18145109  0.59072541  0.97601481  1  0.103111  0  0.116242  0.109189  0  1.000354  0
H  H25  1  0.97285196  0.59412678  0.17758845  1  0.09487  0  0.116702  0.110033  0  0.997931  0
H  H26  1  0.40916031  0.02304841  0.18303290  1  0.099299  0  0.116243  0.109393  0  0.999323  0
H  H27  1  0.40789220  0.81979732  0.97599755  1  0.096903  0  0.116483  0.1098  0  0.998843  0
H  H28  1  0.97117071  0.82362689  0.40313048  1  0.088699  0  0.116747  0.109914  0  0.997701  0
H  H29  1  0.18404729  0.02032845  0.41324690  1  0.086551  0  0.116114  0.109098  0  1.000561  0
H  H30  1  0.18010383  0.40829466  0.02402950  1  0.126632  0  0.116574  0.109605  0  0.998829  0
H  H31  1  0.97664559  0.40884160  0.81727100  1  0.084846  0  0.116272  0.109186  0  0.999459  0
H  H32  1  0.40689716  0.97375024  0.82188026  1  0.099271  0  0.116466  0.109357  0  0.998845  0
H  H33  1  0.40868444  0.18097161  0.02487793  1  0.112398  0  0.116073  0.108759  0  1.000395  0
H  H34  1  0.97954505  0.18380434  0.58740634  1  0.113969  0  0.116149  0.109149  0  1.0001  0
H  H35  1  0.17735904  0.97181299  0.59640851  1  0.084301  0  0.116761  0.109819  0  0.997832  0
C  C36  1  0.86078038  0.60176444  0.96440161  1  0.383099  0  -0.002175  -0.061557  0  3.976428  0
C  C37  1  0.94217593  0.56133304  0.94098800  1  0.041265  0  -0.033974  -0.039375  0  3.982656  0
C  C38  1  0.96571540  0.60236556  0.85991757  1  0.35579  0  -0.001891  -0.062161  0  3.976435  0
C  C39  1  0.60392363  0.96778815  0.86360423  1  0.40919  0  -0.001682  -0.061354  0  3.977383  0
C  C40  1  0.56196464  0.94282224  0.94375559  1  -0.063485  0  -0.034941  -0.041479  0  3.985143  0
C  C41  1  0.60201344  0.86095571  0.96615312  1  0.426778  0  -0.002508  -0.061802  0  3.976824  0
C  C42  1  0.96442003  0.86062590  0.60035879  1  0.303228  0  -0.002541  -0.06241  0  3.979238  0
C  C43  1  0.94256754  0.94327099  0.56165415  1  0.049892  0  -0.03463  -0.040759  0  3.986239  0
C  C44  1  0.86329176  0.96870162  0.60488315  1  0.412023  0  -0.001552  -0.060616  0  3.975479  0
C  C45  1  0.86144294  0.39770362  0.03332947  1  0.418503  0  -0.001948  -0.061075  0  3.977252  0
C  C46  1  0.94283819  0.43835247  0.05624603  1  -0.063825  0  -0.034681  -0.040871  0  3.984691  0
C  C47  1  0.96737399  0.39690325  0.13680849  1  0.397873  0  -0.002197  -0.062547  0  3.978367  0
C  C48  1  0.60234320  0.03463157  0.14022293  1  0.321487  0  -0.002044  -0.062381  0  3.976436  0
C  C49  1  0.56147814  0.05776470  0.05894519  1  0.091588  0  -0.033992  -0.038949  0  3.981117  0
C  C50  1  0.60227290  0.13883906  0.03500887  1  0.38977  0  -0.002173  -0.062655  0  3.976837  0
C  C51  1  0.96869349  0.13740242  0.39519719  1  0.427227  0  -0.00122  -0.060021  0  3.974283  0
C  C52  1  0.94323862  0.05815133  0.43849839  1  0.0008  0  -0.034335  -0.040898  0  3.986693  0
C  C53  1  0.86049674  0.03644477  0.39997964  1  0.371473  0  -0.002631  -0.062245  0  3.978975  0
C  C54  1  0.13857151  0.60226692  0.03362481  1  0.427351  0  -0.002243  -0.060776  0  3.977109  0
C  C55  1  0.05691596  0.56202812  0.05627930  1  -0.060567  0  -0.034976  -0.042321  0  3.986341  0
C  C56  1  0.03208484  0.60389651  0.13652268  1  0.410575  0  -0.001834  -0.061579  0  3.977299  0
C  C57  1  0.39842785  0.96497259  0.14057045  1  0.352931  0  -0.001974  -0.062552  0  3.97591  0
C  C58  1  0.43885614  0.94206866  0.05900129  1  0.040709  0  -0.033772  -0.038754  0  3.979837  0
C  C59  1  0.39774519  0.86120279  0.03492330  1  0.372294  0  -0.00222  -0.062513  0  3.976027  0
C  C60  1  0.03158875  0.86331695  0.39515714  1  0.410968  0  -0.001654  -0.061376  0  3.976507  0
C  C61  1  0.05734334  0.94241149  0.43856401  1  0.018465  0  -0.034591  -0.040658  0  3.987655  0
C  C62  1  0.14019283  0.96381377  0.40012191  1  0.356747  0  -0.00268  -0.062467  0  3.978937  0
C  C63  1  0.13866141  0.39787326  0.96519155  1  0.336253  0  -0.002041  -0.062061  0  3.976876  0
C  C64  1  0.05773405  0.43882873  0.94115289  1  0.052458  0  -0.034284  -0.039624  0  3.982723  0
C  C65  1  0.03476292  0.39822431  0.85970334  1  0.364332  0  -0.002018  -0.062087  0  3.976508  0
C  C66  1  0.39671642  0.03266289  0.86332779  1  0.413038  0  -0.001965  -0.060746  0  3.977154  0
C  C67  1  0.43824884  0.05709438  0.94387640  1  -0.062196  0  -0.034725  -0.041915  0  3.983274  0
C  C68  1  0.39756911  0.13846727  0.96692250  1  0.418895  0  -0.002039  -0.060877  0  3.977189  0
C  C69  1  0.03633284  0.14016355  0.60017327  1  0.349372  0  -0.002293  -0.061799  0  3.976697  0
C  C70  1  0.05812430  0.05749359  0.56150769  1  0.005571  0  -0.033933  -0.040087  0  3.987216  0
C  C71  1  0.13740471  0.03202829  0.60469830  1  0.422126  0  -0.001758  -0.061665  0  3.976444  0
C  C72  1  0.00033435  0.00036260  0.50004415  1  0.123089  0  0.025171  0.100815  0  3.89595  0
C  C73  1  0.99992996  0.50013786  0.99861725  1  0.124816  0  0.025551  0.100293  0  3.889764  0
C  C74  1  0.50014311  0.99991979  0.00147274  1  0.129018  0  0.025353  0.099984  0  3.885949  0
N  N75  1  0.90246999  0.66294140  0.83654741  1  -0.74382  0  -0.340448  -0.140154  0  3.771318  0
N  N76  1  0.83732662  0.66261624  0.90144352  1  -0.797992  0  -0.340444  -0.141493  0  3.770734  0
N  N77  1  0.66356297  0.83858553  0.90344543  1  -0.744886  0  -0.340029  -0.141153  0  3.770531  0
N  N78  1  0.66473369  0.90495825  0.83982912  1  -0.767581  0  -0.340397  -0.139687  0  3.773957  0
N  N79  1  0.83941502  0.90534942  0.66512008  1  -0.743507  0  -0.339682  -0.13879  0  3.771701  0
N  N80  1  0.90219898  0.83823695  0.66235414  1  -0.770051  0  -0.341029  -0.141857  0  3.772502  0
N  N81  1  0.90472306  0.33582136  0.16029118  1  -0.76573  0  -0.34064  -0.139426  0  3.774257  0
N  N82  1  0.83892769  0.33631099  0.09608369  1  -0.759081  0  -0.339825  -0.140283  0  3.771825  0
N  N83  1  0.66313162  0.16247595  0.09788304  1  -0.812144  0  -0.340493  -0.14121  0  3.771888  0
N  N84  1  0.66313854  0.09779799  0.16324604  1  -0.736703  0  -0.33997  -0.140242  0  3.76905  0
N  N85  1  0.83805290  0.09869506  0.33801511  1  -0.763067  0  -0.340903  -0.142044  0  3.768512  0
N  N86  1  0.90524408  0.16137510  0.33513084  1  -0.773357  0  -0.340437  -0.139438  0  3.771492  0
N  N87  1  0.09484481  0.66484604  0.16009549  1  -0.756497  0  -0.340147  -0.139042  0  3.774969  0
N  N88  1  0.16099888  0.66386010  0.09624651  1  -0.758696  0  -0.340084  -0.141661  0  3.770979  0
N  N89  1  0.33712881  0.83745129  0.09800409  1  -0.804307  0  -0.34017  -0.14129  0  3.770656  0
N  N90  1  0.33758384  0.90186661  0.16362776  1  -0.724889  0  -0.340158  -0.139851  0  3.770708  0
N  N91  1  0.16243458  0.90153079  0.33810340  1  -0.766906  0  -0.340641  -0.142332  0  3.770398  0
N  N92  1  0.09497069  0.83915503  0.33509290  1  -0.744684  0  -0.339786  -0.138361  0  3.773743  0
N  N93  1  0.09791922  0.33741380  0.83670103  1  -0.713009  0  -0.340204  -0.139586  0  3.773085  0
N  N94  1  0.16241106  0.33714018  0.90223090  1  -0.805078  0  -0.340159  -0.140988  0  3.770464  0
N  N95  1  0.33608804  0.16105991  0.90427445  1  -0.718871  0  -0.339508  -0.139396  0  3.770006  0
N  N96  1  0.33557389  0.09533248  0.83998146  1  -0.806578  0  -0.340828  -0.141135  0  3.774959  0
N  N97  1  0.16137932  0.09540120  0.66485031  1  -0.775219  0  -0.340622  -0.139405  0  3.772658  0
N  N98  1  0.09863268  0.16255477  0.66209530  1  -0.767729  0  -0.340767  -0.141744  0  3.770891  0
