# generated using pymatgen
data_H12RhC16(NO3)2
_symmetry_space_group_name_H-M   'P 1'
_cell_length_a   9.54955010
_cell_length_b   10.12031971
_cell_length_c   20.16006051
_cell_angle_alpha   100.77971694
_cell_angle_beta   90.00455025
_cell_angle_gamma   118.15213990
_symmetry_Int_Tables_number   1
_chemical_formula_structural   H12RhC16(NO3)2
_chemical_formula_sum   'H48 Rh4 C64 N8 O24'
_cell_volume   1678.75244917
_cell_formula_units_Z   4
loop_
 _symmetry_equiv_pos_site_id
 _symmetry_equiv_pos_as_xyz
  1  'x, y, z'
loop_
 _atom_site_type_symbol
 _atom_site_label
 _atom_site_symmetry_multiplicity
 _atom_site_fract_x
 _atom_site_fract_y
 _atom_site_fract_z
 _atom_site_occupancy
 _atom_site_pbe_bader_spin_density
 _atom_site_pbe_cm5_charge
 _atom_site_pbe_ddec_charge
 _atom_site_pbe_ddec_spin_density
 _atom_site_pbe_ddec_sum_bond_order
 _atom_site_pbe_magmom
H  H0  1  0.42141084  0.69239056  0.05056618  1  0  0.102835  0.106888  0  1.019081  0
H  H1  1  0.72924315  0.30755678  0.44946001  1  0  0.102506  0.106177  0  1.020316  0
H  H2  1  0.57859009  0.30760929  0.94943341  1  0  0.102862  0.106959  0  1.019033  0
H  H3  1  0.27075788  0.69244538  0.55054128  1  0  0.10252  0.106208  0  1.020317  0
H  H4  1  0.35879363  0.56720125  0.92806131  1  0  0.100402  0.098384  0  1.025235  0
H  H5  1  0.79186154  0.43271479  0.57196863  1  0  0.10057  0.098677  0  1.025144  0
H  H6  1  0.64120568  0.43279745  0.07193817  1  0  0.100404  0.098393  0  1.025235  0
H  H7  1  0.20814216  0.56728851  0.42803228  1  0  0.100578  0.098699  0  1.02507  0
H  H8  1  0.57893460  0.59139572  0.85637459  1  0  0.102433  0.099793  0  0.997819  0
H  H9  1  0.98776654  0.40850397  0.64364578  1  0  0.102537  0.100188  0  0.998549  0
H  H10  1  0.42106470  0.40860299  0.14362489  1  0  0.102441  0.099798  0  0.997822  0
H  H11  1  0.01223554  0.59149818  0.35635551  1  0  0.102535  0.100201  0  0.998626  0
H  H12  1  0.86144810  0.73924478  0.90801118  1  0  0.10139  0.102524  0  1.016422  0
H  H13  1  0.12239026  0.26058217  0.59201922  1  0  0.10135  0.102688  0  1.017824  0
H  H14  1  0.13855178  0.26075507  0.09198841  1  0  0.101388  0.102522  0  1.016425  0
H  H15  1  0.87761010  0.73941654  0.40798126  1  0  0.101332  0.102618  0  1.017855  0
H  H16  1  0.92282679  0.86167210  0.03138504  1  0  0.105313  0.110302  0  1.003481  0
H  H17  1  0.06137575  0.13826972  0.46860775  1  0  0.104886  0.109796  0  1.003096  0
H  H18  1  0.07717356  0.13832661  0.96861445  1  0  0.105312  0.110303  0  1.003442  0
H  H19  1  0.93862355  0.86172899  0.53139273  1  0  0.104881  0.109782  0  1.003166  0
H  H20  1  0.75919656  0.40556937  0.17120804  1  0  0.102381  0.103098  0  1.021592  0
H  H21  1  0.35397533  0.59430944  0.32876741  1  0  0.102643  0.103066  0  1.021436  0
H  H22  1  0.24080333  0.59443048  0.82879156  1  0  0.10236  0.103082  0  1.021635  0
H  H23  1  0.64602398  0.40568927  0.67123405  1  0  0.10265  0.103086  0  1.02146  0
H  H24  1  0.88062272  0.64816832  0.12662039  1  0  0.099465  0.103608  0  1.017252  0
H  H25  1  0.23280441  0.35171836  0.37330867  1  0  0.099563  0.103233  0  1.018122  0
H  H26  1  0.11937716  0.35183153  0.87337870  1  0  0.099455  0.103582  0  1.017279  0
H  H27  1  0.76719641  0.64827920  0.62669120  1  0  0.099583  0.10325  0  1.018123  0
H  H28  1  0.17170562  0.78346026  0.11841209  1  0  0.0943  0.089399  0  1.041617  0
H  H29  1  0.38854359  0.21644938  0.38152656  1  0  0.094393  0.089831  0  1.042031  0
H  H30  1  0.82829321  0.21653959  0.88158651  1  0  0.094316  0.089414  0  1.041632  0
H  H31  1  0.61145724  0.78354817  0.61847282  1  0  0.094388  0.089828  0  1.042091  0
H  H32  1  0.34675029  0.69238339  0.16241361  1  0  0.099837  0.107125  0  1.040413  0
H  H33  1  0.65475944  0.30754499  0.33757775  1  0  0.09951  0.106176  0  1.040832  0
H  H34  1  0.65324959  0.30761646  0.83758499  1  0  0.09984  0.10713  0  1.040424  0
H  H35  1  0.34524101  0.69245601  0.66242244  1  0  0.099498  0.106174  0  1.04083  0
H  H36  1  0.22522572  0.45323574  0.20812159  1  0  0.101374  0.100209  0  1.03267  0
H  H37  1  0.77240412  0.54679919  0.29187169  1  0  0.101389  0.100634  0  1.032345  0
H  H38  1  0.77477416  0.54676411  0.79187750  1  0  0.10138  0.100215  0  1.032685  0
H  H39  1  0.22759577  0.45320066  0.70812939  1  0  0.101392  0.100623  0  1.032332  0
H  H40  1  0.35140959  0.87700378  0.32684566  1  0  0.12205  0.101299  0  1.010207  0
H  H41  1  0.47443140  0.12298798  0.17318948  1  0  0.121964  0.10059  0  1.010407  0
H  H42  1  0.64859039  0.12299837  0.67315464  1  0  0.122035  0.101248  0  1.010229  0
H  H43  1  0.52556686  0.87701073  0.82681001  1  0  0.121948  0.100572  0  1.010442  0
H  H44  1  0.08671209  0.87723162  0.32686142  1  0  0.12178  0.099705  0  1.010839  0
H  H45  1  0.20950737  0.12275021  0.17315985  1  0  0.121687  0.099709  0  1.010197  0
H  H46  1  0.91328732  0.12276939  0.67313927  1  0  0.121776  0.099709  0  1.010819  0
H  H47  1  0.79049089  0.87724849  0.82683964  1  0  0.121712  0.099754  0  1.010169  0
Rh  Rh48  1  0.65424591  0.99997799  0.25002114  1  0  0.645687  0.536027  0  3.773537  0
Rh  Rh49  1  0.34575502  0.00002187  0.74997894  1  0  0.645671  0.536004  0  3.773632  0
Rh  Rh50  1  0.90787656  0.00000682  0.25000289  1  0  0.645234  0.540467  0  3.778218  0
Rh  Rh51  1  0.09212437  0.99999304  0.74999769  1  0  0.645247  0.540529  0  3.778172  0
C  C52  1  0.71346271  0.86191193  0.12131897  1  0  0.210766  0.532203  0  4.133853  0
C  C53  1  0.85181629  0.13815315  0.37869822  1  0  0.211184  0.531959  0  4.13273  0
C  C54  1  0.28653660  0.13808677  0.87868151  1  0  0.210815  0.532242  0  4.13386  0
C  C55  1  0.14818150  0.86184670  0.62130137  1  0  0.211253  0.53212  0  4.132617  0
C  C56  1  0.67589523  0.78540800  0.04820050  1  0  -0.025522  -0.044806  0  4.008766  0
C  C57  1  0.89080372  0.21464452  0.45181952  1  0  -0.025924  -0.045463  0  4.007515  0
C  C58  1  0.32410570  0.21459185  0.95179909  1  0  -0.025525  -0.044767  0  4.008788  0
C  C59  1  0.10919673  0.78535648  0.54818068  1  0  -0.025917  -0.045454  0  4.007571  0
C  C60  1  0.51699427  0.70273942  0.01887304  1  0  -0.093957  -0.111122  0  3.984389  0
C  C61  1  0.81454704  0.29727547  0.48114747  1  0  -0.093787  -0.110544  0  3.984417  0
C  C62  1  0.48300608  0.29725929  0.98112644  1  0  -0.093943  -0.111167  0  3.984313  0
C  C63  1  0.18545399  0.70272668  0.51885382  1  0  -0.093846  -0.110645  0  3.984492  0
C  C64  1  0.48261085  0.63258169  0.95018721  1  0  -0.094021  -0.084863  0  4.016106  0
C  C65  1  0.85034853  0.36737901  0.54983941  1  0  -0.09427  -0.084821  0  4.016904  0
C  C66  1  0.51738741  0.36741702  0.04981277  1  0  -0.094089  -0.084999  0  4.016123  0
C  C67  1  0.14965412  0.63262429  0.45016150  1  0  -0.094221  -0.084723  0  4.016826  0
C  C68  1  0.60627144  0.64602611  0.91021276  1  0  -0.085498  -0.069837  0  3.980993  0
C  C69  1  0.96052910  0.35387130  0.58981286  1  0  -0.084934  -0.070213  0  3.9831  0
C  C70  1  0.39372740  0.35397374  0.08978733  1  0  -0.085473  -0.069764  0  3.980892  0
C  C71  1  0.03947241  0.64612970  0.41018833  1  0  -0.08494  -0.070287  0  3.983292  0
C  C72  1  0.76491221  0.72879432  0.93919434  1  0  -0.089935  -0.082097  0  3.998715  0
C  C73  1  0.03637077  0.27108882  0.56083092  1  0  -0.089752  -0.082378  0  4.000399  0
C  C74  1  0.23508605  0.27120439  0.06080515  1  0  -0.089981  -0.08216  0  3.998571  0
C  C75  1  0.96363073  0.72891218  0.43916977  1  0  -0.089744  -0.082283  0  4.000381  0
C  C76  1  0.79981154  0.79732612  0.00810212  1  0  -0.084596  -0.095071  0  3.959521  0
C  C77  1  0.00279033  0.20267543  0.49190869  1  0  -0.084706  -0.094364  0  3.95676  0
C  C78  1  0.20018835  0.20267374  0.99189748  1  0  -0.084578  -0.095041  0  3.959377  0
C  C79  1  0.99720908  0.79732557  0.50809200  1  0  -0.084711  -0.094397  0  3.956818  0
C  C80  1  0.91245905  0.26636753  0.21399966  1  0  0.210469  0.530635  0  4.130578  0
C  C81  1  0.64631382  0.73356550  0.28599022  1  0  0.211939  0.534083  0  4.127412  0
C  C82  1  0.08754083  0.73363232  0.78599993  1  0  0.210457  0.530629  0  4.130606  0
C  C83  1  0.35368664  0.26643550  0.71401097  1  0  0.211912  0.534067  0  4.127471  0
C  C84  1  0.98494050  0.41371990  0.19079596  1  0  -0.024807  -0.047387  0  4.005581  0
C  C85  1  0.57159546  0.58621075  0.30917828  1  0  -0.024846  -0.048952  0  4.008033  0
C  C86  1  0.01506043  0.58627995  0.80920314  1  0  -0.024788  -0.047408  0  4.005596  0
C  C87  1  0.42840547  0.41378911  0.69082230  1  0  -0.024832  -0.048886  0  4.007949  0
C  C88  1  0.88741640  0.46929172  0.16855499  1  0  -0.088051  -0.100796  0  3.981549  0
C  C89  1  0.41850975  0.53061358  0.33141118  1  0  -0.088699  -0.10089  0  3.98144  0
C  C90  1  0.11258406  0.53070928  0.83144471  1  0  -0.088047  -0.10081  0  3.981602  0
C  C91  1  0.58149004  0.46938398  0.66858969  1  0  -0.088704  -0.100956  0  3.981432  0
C  C92  1  0.95482813  0.60256786  0.14296955  1  0  -0.092966  -0.08329  0  3.995237  0
C  C93  1  0.35262360  0.39728688  0.35695623  1  0  -0.092438  -0.081728  0  3.995768  0
C  C94  1  0.04517071  0.39743199  0.85703005  1  0  -0.092951  -0.083193  0  3.99521  0
C  C95  1  0.64737676  0.60271183  0.64304425  1  0  -0.092465  -0.08174  0  3.995707  0
C  C96  1  0.11951945  0.68029426  0.13915940  1  0  -0.089676  -0.068439  0  3.984574  0
C  C97  1  0.43960953  0.31960960  0.36077274  1  0  -0.090344  -0.070558  0  3.987157  0
C  C98  1  0.88048043  0.31970558  0.86083920  1  0  -0.089691  -0.068535  0  3.98468  0
C  C99  1  0.56038920  0.68038796  0.63922763  1  0  -0.090361  -0.070583  0  3.987224  0
C  C100  1  0.21778242  0.62824809  0.16310652  1  0  -0.095344  -0.090884  0  3.998287  0
C  C101  1  0.58996300  0.37169034  0.33686179  1  0  -0.09473  -0.088174  0  3.99576  0
C  C102  1  0.78221746  0.37175175  0.83689208  1  0  -0.095318  -0.090802  0  3.998302  0
C  C103  1  0.41003526  0.62830836  0.66313819  1  0  -0.094689  -0.088171  0  3.995681  0
C  C104  1  0.15068298  0.49544778  0.18902601  1  0  -0.086686  -0.098049  0  3.978565  0
C  C105  1  0.65565244  0.50451477  0.31095940  1  0  -0.08696  -0.099157  0  3.978963  0
C  C106  1  0.84931585  0.50455207  0.81097308  1  0  -0.086713  -0.098076  0  3.978572  0
C  C107  1  0.34434849  0.49548509  0.68904168  1  0  -0.08694  -0.099095  0  3.978849  0
C  C108  1  0.31901330  0.93174644  0.29249392  1  0  0.050944  0.033917  0  3.921523  0
C  C109  1  0.38729261  0.06822932  0.20754045  1  0  0.051258  0.035726  0  3.919005  0
C  C110  1  0.68098449  0.06825341  0.70750716  1  0  0.050901  0.033898  0  3.921472  0
C  C111  1  0.61270251  0.93176938  0.79245903  1  0  0.051232  0.035705  0  3.919044  0
C  C112  1  0.17391384  0.93207639  0.29254824  1  0  0.051331  0.035536  0  3.913978  0
C  C113  1  0.24186353  0.06790424  0.20747616  1  0  0.051585  0.035161  0  3.9126  0
C  C114  1  0.82608395  0.06792346  0.70745185  1  0  0.051363  0.035509  0  3.913985  0
C  C115  1  0.75813263  0.93209447  0.79252332  1  0  0.051613  0.035136  0  3.912535  0
N  N116  1  0.42640622  0.99998291  0.25002178  1  0  -0.321944  -0.144383  0  3.562654  0
N  N117  1  0.57358994  0.00001579  0.74997771  1  0  -0.321909  -0.144311  0  3.562581  0
N  N118  1  0.13460011  0.99998772  0.25000185  1  0  -0.322719  -0.141648  0  3.572418  0
N  N119  1  0.86539663  0.00001214  0.74999823  1  0  -0.322738  -0.141627  0  3.572412  0
N  N120  1  0.61111991  0.05612013  0.00706847  1  0  0.10877  0.398791  0  4.151505  0
N  N121  1  0.55501661  0.94390078  0.49293313  1  0  0.108886  0.398838  0  4.152524  0
N  N122  1  0.38888290  0.94387512  0.99292573  1  0  0.108685  0.398725  0  4.151922  0
N  N123  1  0.44498986  0.05610598  0.50707355  1  0  0.108587  0.398438  0  4.152452  0
O  O124  1  0.60567606  0.88555096  0.15069218  1  0  -0.296369  -0.447056  0  2.466532  0
O  O125  1  0.72038622  0.11456817  0.34933498  1  0  -0.296556  -0.446996  0  2.466277  0
O  O126  1  0.39432325  0.11444775  0.84930781  1  0  -0.296385  -0.447084  0  2.466536  0
O  O127  1  0.27960947  0.88543168  0.65066511  1  0  -0.296601  -0.447085  0  2.466329  0
O  O128  1  0.85125076  0.89912607  0.14927429  1  0  -0.295386  -0.440262  0  2.44469  0
O  O129  1  0.95227541  0.10080358  0.35073873  1  0  -0.295293  -0.439796  0  2.44396  0
O  O130  1  0.14875017  0.10087378  0.85072580  1  0  -0.295412  -0.440283  0  2.444713  0
O  O131  1  0.04772123  0.89919398  0.64926114  1  0  -0.295325  -0.439877  0  2.443828  0
O  O132  1  0.76279124  0.20522913  0.22117492  1  0  -0.295312  -0.438553  0  2.469253  0
O  O133  1  0.55768828  0.79461925  0.27882341  1  0  -0.295852  -0.440514  0  2.468547  0
O  O134  1  0.23720864  0.79477072  0.77882417  1  0  -0.295328  -0.438581  0  2.469302  0
O  O135  1  0.44231322  0.20538176  0.72117827  1  0  -0.295825  -0.440527  0  2.468643  0
O  O136  1  0.00424626  0.20997993  0.22415808  1  0  -0.29718  -0.447971  0  2.437929  0
O  O137  1  0.79451473  0.79009728  0.27587260  1  0  -0.297972  -0.449022  0  2.436614  0
O  O138  1  0.99575467  0.79001992  0.77584201  1  0  -0.297175  -0.447959  0  2.437944  0
O  O139  1  0.20548515  0.20990257  0.72412798  1  0  -0.297993  -0.449066  0  2.436633  0
O  O140  1  0.65952824  0.12677626  0.06464501  1  0  -0.032611  -0.187674  0  2.10846  0
O  O141  1  0.53274261  0.87321763  0.43536151  1  0  -0.032649  -0.187852  0  2.109286  0
O  O142  1  0.34047525  0.87322243  0.93535051  1  0  -0.032516  -0.187607  0  2.108755  0
O  O143  1  0.46725832  0.12678222  0.56463908  1  0  -0.032276  -0.187297  0  2.109617  0
O  O144  1  0.67423862  0.04171025  0.95639134  1  0  -0.041144  -0.210534  0  2.107849  0
O  O145  1  0.63260475  0.95837482  0.54360918  1  0  -0.041169  -0.210267  0  2.107655  0
O  O146  1  0.32576153  0.95828385  0.04360375  1  0  -0.041148  -0.210516  0  2.107986  0
O  O147  1  0.36739638  0.04162962  0.45639084  1  0  -0.041233  -0.210424  0  2.107072  0
