# generated using pymatgen
data_Cu5H15C15S3N3Cl5
_symmetry_space_group_name_H-M   'P 1'
_cell_length_a   5.23076206
_cell_length_b   10.45391443
_cell_length_c   11.69702928
_cell_angle_alpha   113.52201829
_cell_angle_beta   97.47690239
_cell_angle_gamma   102.10367851
_symmetry_Int_Tables_number   1
_chemical_formula_structural   Cu5H15C15S3N3Cl5
_chemical_formula_sum   'Cu5 H15 C15 S3 N3 Cl5'
_cell_volume   556.88496218
_cell_formula_units_Z   1
loop_
 _symmetry_equiv_pos_site_id
 _symmetry_equiv_pos_as_xyz
  1  'x, y, z'
loop_
 _atom_site_type_symbol
 _atom_site_label
 _atom_site_symmetry_multiplicity
 _atom_site_fract_x
 _atom_site_fract_y
 _atom_site_fract_z
 _atom_site_occupancy
 _atom_site_pbe_bader_spin_density
 _atom_site_pbe_cm5_charge
 _atom_site_pbe_ddec_charge
 _atom_site_pbe_ddec_spin_density
 _atom_site_pbe_ddec_sum_bond_order
 _atom_site_pbe_magmom
Cu  Cu0  1  0.78232359  0.56288441  0.99982758  1  0  0.319755  0.299364  0  2.692738  0
Cu  Cu1  1  0.27027540  0.46568484  0.18214408  1  0  0.338417  0.346595  0  2.615012  0
Cu  Cu2  1  0.08785082  0.28346013  0.81782761  1  0  0.338163  0.346768  0  2.611503  0
Cu  Cu3  1  0.58903238  0.79953102  0.12553074  1  0  0.281538  0.283477  0  2.693901  0
Cu  Cu4  1  0.46341882  0.67384447  0.87389264  1  0  0.281106  0.282925  0  2.693595  0
H  H5  1  0.46504690  0.86238428  0.61308435  1  0  0.297726  0.269172  0  0.96742  0
H  H6  1  0.85246813  0.24925760  0.38713658  1  0  0.298803  0.269779  0  0.967164  0
H  H7  1  0.04517726  0.99348146  0.00003987  1  0  0.310306  0.276816  0  0.935512  0
H  H8  1  0.16219081  0.81626264  0.24469907  1  0  0.089049  0.113971  0  1.066393  0
H  H9  1  0.91662480  0.57166408  0.75486609  1  0  0.08936  0.114739  0  1.066144  0
H  H10  1  0.53989687  0.91640511  0.44324660  1  0  0.113746  0.104032  0  1.02791  0
H  H11  1  0.09628117  0.47326440  0.55655652  1  0  0.114236  0.104344  0  1.029583  0
H  H12  1  0.05704874  0.72949577  0.62258378  1  0  0.121165  0.099139  0  1.009401  0
H  H13  1  0.43572101  0.10655308  0.37792919  1  0  0.120984  0.098978  0  1.010042  0
H  H14  1  0.66387713  0.61397707  0.43026159  1  0  0.090988  0.12394  0  1.065703  0
H  H15  1  0.23410977  0.18350315  0.56998404  1  0  0.09057  0.123327  0  1.065396  0
H  H16  1  0.74613328  0.33879074  0.20816661  1  0  0.094846  0.121793  0  1.042619  0
H  H17  1  0.53928096  0.13075937  0.79220148  1  0  0.094923  0.121955  0  1.042929  0
H  H18  1  0.31503209  0.16689914  0.19859824  1  0  0.108665  0.099854  0  1.044421  0
H  H19  1  0.11773777  0.96814403  0.80151877  1  0  0.108825  0.100147  0  1.044792  0
C  C20  1  0.88427315  0.70464554  0.32092913  1  0  0.010806  0.186582  0  3.942698  0
C  C21  1  0.56303199  0.38366343  0.67895440  1  0  0.009894  0.186368  0  3.940724  0
C  C22  1  0.13315846  0.79314458  0.32571040  1  0  -0.092407  -0.184161  0  3.965689  0
C  C23  1  0.80682609  0.46750326  0.67400791  1  0  -0.094044  -0.186558  0  3.966388  0
C  C24  1  0.34076038  0.84953370  0.43306306  1  0  0.052524  0.099929  0  3.879424  0
C  C25  1  0.90753349  0.41652098  0.56681918  1  0  0.053928  0.099494  0  3.879921  0
C  C26  1  0.06681625  0.74269107  0.53547886  1  0  0.057787  0.105879  0  3.897447  0
C  C27  1  0.53213070  0.20698333  0.46483537  1  0  0.057701  0.104111  0  3.896486  0
C  C28  1  0.85296991  0.68170955  0.42978883  1  0  -0.091047  -0.172703  0  3.912783  0
C  C29  1  0.42356831  0.25170131  0.57036325  1  0  -0.090389  -0.17103  0  3.90935  0
C  C30  1  0.67451770  0.24946972  0.00015470  1  0  0.005299  0.181363  0  3.930567  0
C  C31  1  0.61060124  0.25998503  0.11631696  1  0  -0.096492  -0.180401  0  3.959949  0
C  C32  1  0.49501924  0.14372073  0.88396347  1  0  -0.097446  -0.181919  0  3.961188  0
C  C33  1  0.37948214  0.16509043  0.11355524  1  0  0.051038  0.099252  0  3.892868  0
C  C34  1  0.26663411  0.05154889  0.88663267  1  0  0.051297  0.099311  0  3.893155  0
S  S35  1  0.62284179  0.62550100  0.18256041  1  0  -0.275987  -0.340474  0  3.806266  0
S  S36  1  0.43983879  0.44291401  0.81723179  1  0  -0.275194  -0.338765  0  3.802312  0
S  S37  1  0.96217764  0.37164427  0.00003459  1  0  -0.272716  -0.345807  0  3.718045  0
N  N38  1  0.30488722  0.82290128  0.53479350  1  0  -0.355778  -0.144025  0  3.710044  0
N  N39  1  0.77056579  0.28801197  0.46536731  1  0  -0.356982  -0.142828  0  3.710124  0
N  N40  1  0.21519216  0.06358283  0.00007825  1  0  -0.355432  -0.132829  0  3.696048  0
Cl  Cl41  1  0.15856096  0.73877928  0.99967268  1  0  -0.261057  -0.37019  0  2.074916  0
Cl  Cl42  1  0.24213088  0.42571047  0.35288466  1  0  -0.328963  -0.50021  0  1.43372  0
Cl  Cl43  1  0.88930971  0.07285520  0.64719168  1  0  -0.329039  -0.500364  0  1.434058  0
Cl  Cl44  1  0.85429059  0.02311721  0.21779092  1  0  -0.340664  -0.485761  0  1.410669  0
Cl  Cl45  1  0.63745303  0.80521134  0.78171825  1  0  -0.339807  -0.485376  0  1.413045  0
