# generated using pymatgen
data_Zn2H36C44N4O15
_symmetry_space_group_name_H-M   'P 1'
_cell_length_a   9.72644864
_cell_length_b   10.95042142
_cell_length_c   23.66629020
_cell_angle_alpha   90.63025668
_cell_angle_beta   90.39035876
_cell_angle_gamma   90.59873768
_symmetry_Int_Tables_number   1
_chemical_formula_structural   Zn2H36C44N4O15
_chemical_formula_sum   'Zn2 H36 C44 N4 O15'
_cell_volume   2520.31545650
_cell_formula_units_Z   1
loop_
 _symmetry_equiv_pos_site_id
 _symmetry_equiv_pos_as_xyz
  1  'x, y, z'
loop_
 _atom_site_type_symbol
 _atom_site_label
 _atom_site_symmetry_multiplicity
 _atom_site_fract_x
 _atom_site_fract_y
 _atom_site_fract_z
 _atom_site_occupancy
 _atom_site_pbe_bader_charge
 _atom_site_pbe_bader_spin_density
 _atom_site_pbe_cm5_charge
 _atom_site_pbe_ddec_charge
 _atom_site_pbe_ddec_spin_density
 _atom_site_pbe_ddec_sum_bond_order
 _atom_site_pbe_magmom
Zn  Zn0  1  0.36497529  0.50759289  0.50330596  1  1.286589  0  0.661198  0.844969  0  2.455595  0
Zn  Zn1  1  0.64476564  0.49905940  0.50422938  1  1.288376  0  0.665305  0.841259  0  2.470554  0
H  H2  1  0.44035266  0.82060467  0.05209338  1  0.16707  0  0.123546  0.144268  0  0.97192  0
H  H3  1  0.87516561  0.41872632  0.42921179  1  0.175777  0  0.144169  0.118618  0  0.948592  0
H  H4  1  0.90539703  0.50272306  0.54664244  1  0.431385  0  0.319964  0.287011  0  0.912209  0
H  H5  1  0.49054468  0.19941435  0.95481245  1  0.126836  0  0.117471  0.124295  0  0.98915  0
H  H6  1  0.51315225  0.21050365  0.06153953  1  0.146303  0  0.118297  0.125605  0  0.978409  0
H  H7  1  0.68809865  0.43288863  0.79797094  1  0.082748  0  0.11376  0.137651  0  0.975103  0
H  H8  1  0.28906760  0.50876173  0.67286672  1  0.11535  0  0.106291  0.111671  0  0.997461  0
H  H9  1  0.26132035  0.52632115  0.77777444  1  0.070391  0  0.108202  0.1175  0  0.983995  0
H  H10  1  0.82764727  0.99941686  0.40509244  1  0.038183  0  0.095497  0.049755  0  0.969603  0
H  H11  1  0.66134765  0.00026213  0.37251320  1  0.056065  0  0.102847  0.064523  0  0.970933  0
H  H12  1  0.69847045  0.79036080  0.33336227  1  0.038457  0  0.094102  0.133635  0  1.004229  0
H  H13  1  0.74854079  0.54213387  0.32004964  1  0.081726  0  0.10197  0.102044  0  1.015929  0
H  H14  1  0.83617404  0.88860236  0.31277062  1  0.032178  0  0.094384  0.12499  0  0.994154  0
H  H15  1  0.86010820  0.78294525  0.36872863  1  0.06316  0  0.091628  0.125051  0  0.995004  0
H  H16  1  0.19461950  0.83989239  0.93237827  1  0.028546  0  0.098386  0.0562  0  0.966313  0
H  H17  1  0.29755226  0.79244750  0.87333559  1  0.102832  0  0.103401  0.076685  0  1.026148  0
H  H18  1  0.39580949  0.00302968  0.86550536  1  0.077882  0  0.101558  0.145756  0  0.977316  0
H  H19  1  0.21385666  0.00518357  0.85928832  1  0.038719  0  0.099462  0.133467  0  0.983354  0
H  H20  1  0.29424957  0.05302882  0.92361175  1  0.01261  0  0.088401  0.11739  0  1.010298  0
H  H21  1  0.69159832  0.28508210  0.62922879  1  0.070343  0  0.096996  0.064187  0  0.99609  0
H  H22  1  0.72058110  0.22039801  0.69747631  1  0.045924  0  0.097523  0.055394  0  0.963421  0
H  H23  1  0.97151932  0.28038685  0.69116241  1  0.038485  0  0.093248  0.126009  0  0.991399  0
H  H24  1  0.30884461  0.52828065  0.32809046  1  0.075343  0  0.102866  0.106697  0  1.003624  0
H  H25  1  0.92112923  0.18167652  0.63417022  1  0.062003  0  0.094954  0.125697  0  0.993559  0
H  H26  1  0.94137356  0.34143027  0.62291689  1  0.00275  0  0.083327  0.108993  0  1.017053  0
H  H27  1  0.87613251  0.38554265  0.24545834  1  0.006609  0  0.083806  0.109437  0  1.006422  0
H  H28  1  0.77853454  0.34684615  0.18421144  1  0.066714  0  0.087254  0.125702  0  1.015971  0
H  H29  1  0.94213432  0.42045464  0.17752870  1  0.021172  0  0.083754  0.108538  0  1.006014  0
H  H30  1  0.75872629  0.57422139  0.16263080  1  0.016534  0  0.090524  0.081858  0  0.993684  0
H  H31  1  0.84882500  0.60868760  0.22563333  1  0.020531  0  0.095298  0.091028  0  0.969244  0
H  H32  1  0.29680583  0.52548139  0.22175389  1  0.072663  0  0.106857  0.112614  0  0.98584  0
H  H33  1  0.68076232  0.11935706  0.46836023  1  0.115171  0  0.109217  0.115224  0  0.995714  0
H  H34  1  0.36603970  0.09120064  0.47349765  1  0.094808  0  0.106346  0.1237  0  0.993049  0
H  H35  1  0.43123250  0.92239334  0.53097782  1  0.054486  0  0.105962  0.141664  0  1.005937  0
H  H36  1  0.13101673  0.35826686  0.45320149  1  0.175919  0  0.143654  0.119598  0  0.954717  0
H  H37  1  0.10405136  0.59313701  0.51228429  1  0.442852  0  0.321967  0.290406  0  0.901755  0
C  C38  1  0.50289240  0.73827419  0.51189317  1  1.548263  0  0.203758  0.666408  0  4.175341  0
C  C39  1  0.46014715  0.38039474  0.88405718  1  1.361412  0  0.24113  0.438791  0  4.115814  0
C  C40  1  0.59981830  0.45110684  0.77089554  1  0.043364  0  -0.092021  -0.264461  0  3.943022  0
C  C41  1  0.50902464  0.46727146  0.61300006  1  1.541106  0  0.215253  0.606241  0  4.170232  0
C  C42  1  0.61527151  0.43977636  0.71234013  1  0.518759  0  0.096749  0.264964  0  4.01921  0
C  C43  1  0.50192666  0.46288336  0.67631319  1  -0.028168  0  -0.02137  -0.14085  0  3.914509  0
C  C44  1  0.37549552  0.49230845  0.70117953  1  0.033957  0  -0.07935  -0.055385  0  3.985689  0
C  C45  1  0.35995677  0.50262140  0.75933112  1  -0.011544  0  -0.093428  -0.175494  0  4.001878  0
C  C46  1  0.47393065  0.48288315  0.79387156  1  0.3149  0  0.089767  0.219101  0  4.045094  0
C  C47  1  0.64629247  0.53875424  0.23871881  1  0.062016  0  0.0004  0.059326  0  3.916065  0
C  C48  1  0.64983727  0.53853480  0.29786838  1  -0.113248  0  -0.080723  -0.143015  0  3.94882  0
C  C49  1  0.44703360  0.73263498  0.03031335  1  -0.046894  0  -0.068465  -0.171696  0  3.90119  0
C  C50  1  0.52977491  0.53363519  0.32994184  1  0.03694  0  -0.016237  -0.026438  0  3.977942  0
C  C51  1  0.40158807  0.53070466  0.30259530  1  0.015086  0  -0.084751  -0.08342  0  3.98889  0
C  C52  1  0.39531953  0.52955075  0.24397156  1  -0.015204  0  -0.086324  -0.149891  0  4.010102  0
C  C53  1  0.47174149  0.26879218  0.48249358  1  1.549308  0  0.204915  0.636598  0  4.179421  0
C  C54  1  0.51639552  0.53241429  0.21273268  1  0.302936  0  0.089428  0.136373  0  3.984135  0
C  C55  1  0.58319335  0.06899580  0.47030953  1  -0.129708  0  -0.078663  -0.127344  0  4.014535  0
C  C56  1  0.46747811  0.13453659  0.47459828  1  0.000554  0  -0.095608  -0.218544  0  3.916735  0
C  C57  1  0.58928280  0.93589925  0.47128143  1  0.475669  0  0.088624  0.277694  0  4.084953  0
C  C58  1  0.50597991  0.87162801  0.50641873  1  0.059115  0  -0.123281  -0.380473  0  3.881424  0
C  C59  1  0.07923344  0.43714977  0.47217778  1  0.673033  0  0.123438  0.170469  0  3.85373  0
C  C60  1  0.42898342  0.72901902  0.97072115  1  0.560787  0  0.113537  0.268733  0  4.013621  0
C  C61  1  0.92800964  0.44527502  0.46865860  1  0.689469  0  0.124341  0.170234  0  3.856766  0
C  C62  1  0.53701749  0.52815001  0.39321241  1  1.524036  0  0.213295  0.595793  0  4.164604  0
C  C63  1  0.50833414  0.41010851  0.12636237  1  1.325172  0  0.246465  0.435911  0  4.093446  0
C  C64  1  0.48651893  0.63796166  0.12333883  1  1.305934  0  0.244754  0.43421  0  4.09864  0
C  C65  1  0.46938773  0.62843569  0.06100730  1  -0.013671  0  -0.005722  -0.043521  0  4.01785  0
C  C66  1  0.47381951  0.51322026  0.03316114  1  0.067627  0  -0.003026  0.016781  0  4.012666  0
C  C67  1  0.49277230  0.40493671  0.06409409  1  -0.077311  0  -0.006844  -0.061239  0  3.999248  0
C  C68  1  0.74040698  0.94115970  0.39100920  1  0.386678  0  -0.062551  0.085179  0  3.915257  0
C  C69  1  0.78637137  0.84486741  0.34895389  1  -0.056921  0  -0.242722  -0.394767  0  3.972396  0
C  C70  1  0.29000554  0.85720515  0.90872212  1  0.36234  0  -0.065905  0.075826  0  3.898227  0
C  C71  1  0.44371845  0.61697730  0.94115736  1  -0.001398  0  -0.020018  -0.194326  0  3.946011  0
C  C72  1  0.29963841  0.98723339  0.88837130  1  -0.033785  0  -0.240422  -0.390206  0  3.97186  0
C  C73  1  0.75645860  0.29009979  0.66746238  1  0.376397  0  -0.068478  0.087192  0  3.915387  0
C  C74  1  0.90638526  0.27253055  0.65317968  1  -0.044341  0  -0.24149  -0.382864  0  3.986194  0
C  C75  1  0.77839043  0.54148583  0.20563833  1  0.016049  0  -0.158389  -0.134489  0  3.979938  0
C  C76  1  0.84795460  0.41618345  0.20288332  1  -0.047561  0  -0.244025  -0.351329  0  3.954066  0
C  C77  1  0.46135723  0.50815846  0.97311609  1  -0.025018  0  0.004044  0.050976  0  3.995255  0
C  C78  1  0.46867005  0.39199192  0.94622915  1  -0.046324  0  -0.007415  -0.066176  0  3.984073  0
C  C79  1  0.48582222  0.28631744  0.97761532  1  -0.012491  0  -0.065449  -0.074276  0  3.946301  0
C  C80  1  0.49819456  0.29227564  0.03648992  1  0.015368  0  -0.068436  -0.079504  0  3.952814  0
C  C81  1  0.45889759  0.60939975  0.87905203  1  1.370655  0  0.239875  0.448447  0  4.10019  0
N  N82  1  0.50414823  0.52700293  0.15184003  1  -1.196705  0  -0.232559  -0.209636  0  3.596176  0
N  N83  1  0.46155918  0.49107651  0.85459799  1  -1.227945  0  -0.231671  -0.225753  0  3.582989  0
N  N84  1  0.15486531  0.51843508  0.49648033  1  -1.176151  0  -0.43006  -0.374599  0  3.251304  0
N  N85  1  0.85377752  0.48205845  0.50964257  1  -1.183186  0  -0.429694  -0.371313  0  3.262081  0
O  O86  1  0.38450991  0.68932807  0.52033186  1  -1.154452  0  -0.339496  -0.569069  0  2.240917  0
O  O87  1  0.42375928  0.53715884  0.41964569  1  -1.166148  0  -0.320501  -0.56502  0  2.320818  0
O  O88  1  0.65483147  0.51323625  0.41582485  1  -1.172232  0  -0.322219  -0.559434  0  2.29713  0
O  O89  1  0.52492224  0.31867507  0.15521695  1  -1.095492  0  -0.271357  -0.432834  0  2.079969  0
O  O90  1  0.68460305  0.87797239  0.43921333  1  -1.055723  0  -0.17646  -0.185923  0  2.508147  0
O  O91  1  0.40357113  0.83971549  0.94846618  1  -1.058612  0  -0.177546  -0.205344  0  2.519117  0
O  O92  1  0.74430416  0.40902250  0.69422183  1  -1.074367  0  -0.208007  -0.248449  0  2.502756  0
O  O93  1  0.48613809  0.73567897  0.14932821  1  -1.096784  0  -0.277554  -0.431061  0  2.055619  0
O  O94  1  0.47341351  0.69892489  0.84855252  1  -1.100936  0  -0.267316  -0.423556  0  2.114894  0
O  O95  1  0.45594232  0.28148479  0.85892508  1  -1.106534  0  -0.276188  -0.438297  0  2.078258  0
O  O96  1  0.61566915  0.68060155  0.50799800  1  -1.1526  0  -0.321737  -0.550811  0  2.326266  0
O  O97  1  0.39442054  0.46282186  0.58638451  1  -1.165983  0  -0.323395  -0.557762  0  2.31691  0
O  O98  1  0.62652182  0.47890084  0.59023340  1  -1.152957  0  -0.316074  -0.545478  0  2.332808  0
O  O99  1  0.35622662  0.32337968  0.48211313  1  -1.168739  0  -0.326138  -0.564029  0  2.280032  0
O  O100  1  0.58895713  0.31983394  0.49023072  1  -1.171285  0  -0.324079  -0.566261  0  2.325371  0
