# generated using pymatgen
data_Zn4H14C23O13
_symmetry_space_group_name_H-M   'P 1'
_cell_length_a   18.62256842
_cell_length_b   18.61874401
_cell_length_c   18.61503894
_cell_angle_alpha   119.96646004
_cell_angle_beta   119.58629679
_cell_angle_gamma   90.38939353
_symmetry_Int_Tables_number   1
_chemical_formula_structural   Zn4H14C23O13
_chemical_formula_sum   'Zn8 H28 C46 O26'
_cell_volume   4579.12632560
_cell_formula_units_Z   2
loop_
 _symmetry_equiv_pos_site_id
 _symmetry_equiv_pos_as_xyz
  1  'x, y, z'
loop_
 _atom_site_type_symbol
 _atom_site_label
 _atom_site_symmetry_multiplicity
 _atom_site_fract_x
 _atom_site_fract_y
 _atom_site_fract_z
 _atom_site_occupancy
 _atom_site_pbe_bader_charge
 _atom_site_pbe_bader_spin_density
 _atom_site_pbe_cm5_charge
 _atom_site_pbe_ddec_charge
 _atom_site_pbe_ddec_spin_density
 _atom_site_pbe_ddec_sum_bond_order
 _atom_site_pbe_magmom
Zn  Zn0  1  0.87005020  0.95564000  0.41378774  1  1.298524  0  0.667732  0.961118  0  2.374396  0
Zn  Zn1  1  0.04231002  0.12823916  0.58565558  1  1.315054  0  0.66636  0.961198  0  2.382682  0
Zn  Zn2  1  0.04208014  0.95563703  0.41346620  1  1.307126  0  0.666874  0.957423  0  2.385876  0
Zn  Zn3  1  0.04163150  0.95603563  0.58572208  1  1.29887  0  0.667704  0.962342  0  2.375622  0
Zn  Zn4  1  0.63003828  0.54397644  0.58565846  1  1.299678  0  0.668146  0.961892  0  2.373889  0
Zn  Zn5  1  0.45789675  0.54357189  0.58576200  1  1.322156  0  0.666007  0.961597  0  2.385086  0
Zn  Zn6  1  0.45781820  0.37185297  0.41346944  1  1.312185  0  0.666318  0.958456  0  2.386344  0
Zn  Zn7  1  0.45834626  0.54434332  0.41393104  1  1.312244  0  0.6682  0.960882  0  2.37277  0
H  H8  1  0.70779286  0.02839041  0.64082509  1  0.067751  0  0.101979  0.098026  0  0.993201  0
H  H9  1  0.20872208  0.31287902  0.90715788  1  0.094042  0  0.113236  0.111779  0  0.975225  0
H  H10  1  0.89467285  0.72058673  0.42514797  1  0.059577  0  0.100653  0.104103  0  1.011939  0
H  H11  1  0.19883229  0.15295022  0.91703261  1  0.082644  0  0.113044  0.13046  0  0.984769  0
H  H12  1  0.28882132  0.18745875  0.38226245  1  0.103663  0  0.113227  0.111952  0  0.975914  0
H  H13  1  0.30789709  0.34464465  0.57079057  1  0.056188  0  0.112846  0.130818  0  0.985086  0
H  H14  1  0.21166225  0.09365042  0.39888531  1  0.121006  0  0.112728  0.111192  0  0.976195  0
H  H15  1  0.19237358  0.26307911  0.53676818  1  0.074854  0  0.11301  0.130921  0  0.985275  0
H  H16  1  0.59462994  0.18719530  0.39639703  1  0.104946  0  0.112912  0.111506  0  0.975505  0
H  H17  1  0.76445699  0.34692466  0.54555336  1  0.100939  0  0.112552  0.130591  0  0.98475  0
H  H18  1  0.68710390  0.09394613  0.38744143  1  0.104678  0  0.113296  0.112104  0  0.975218  0
H  H19  1  0.65316757  0.71790027  0.91731903  1  0.078495  0  0.112643  0.130017  0  0.984525  0
H  H20  1  0.84671438  0.26422140  0.56461206  1  0.093107  0  0.112487  0.130195  0  0.985011  0
H  H21  1  0.88705692  0.56677196  0.35851773  1  0.049217  0  0.102411  0.098387  0  0.992858  0
H  H22  1  0.79179105  0.47151300  0.35862517  1  0.02509  0  0.102422  0.098428  0  0.992306  0
H  H23  1  0.70469640  0.53066832  0.42536361  1  0.05761  0  0.100695  0.105532  0  1.009892  0
H  H24  1  0.60528910  0.77933415  0.57459526  1  0.05667  0  0.100659  0.104154  0  1.011577  0
H  H25  1  0.61252707  0.93304160  0.64086240  1  0.049217  0  0.102028  0.098077  0  0.993239  0
H  H26  1  0.79521007  0.96948088  0.57453634  1  0.063359  0  0.100826  0.104419  0  1.011881  0
H  H27  1  0.81267595  0.69960075  0.90663159  1  0.09316  0  0.113468  0.112161  0  0.975589  0
H  H28  1  0.30004924  0.23576477  0.08222874  1  0.063538  0  0.112415  0.130119  0  0.984899  0
H  H29  1  0.90519871  0.80156132  0.09239816  1  0.087996  0  0.112463  0.110588  0  0.975849  0
H  H30  1  0.73541769  0.78127101  0.08242362  1  0.088995  0  0.113252  0.131221  0  0.984285  0
H  H31  1  0.30293074  0.70990359  0.39732309  1  0.092057  0  0.113088  0.111904  0  0.975514  0
H  H32  1  0.28154741  0.69879458  0.54591070  1  0.07338  0  0.112908  0.130684  0  0.98457  0
H  H33  1  0.19981610  0.79226123  0.38728274  1  0.100685  0  0.112344  0.110782  0  0.976728  0
H  H34  1  0.21741364  0.80017668  0.56492778  1  0.071035  0  0.112923  0.13043  0  0.98475  0
H  H35  1  0.29281954  0.40604714  0.09294356  1  0.114452  0  0.113254  0.111741  0  0.975832  0
C  C36  1  0.13506472  0.13766414  0.77379980  1  1.552355  0  0.217539  0.636674  0  4.19343  0
C  C37  1  0.65116412  0.90619324  0.61143376  1  -0.033472  0  -0.095248  -0.087286  0  4.053326  0
C  C38  1  0.70526725  0.96033090  0.61142144  1  -0.006683  0  -0.095065  -0.08723  0  4.053042  0
C  C39  1  0.86334880  0.86066111  0.22559244  1  1.52343  0  0.217046  0.63647  0  4.192714  0
C  C40  1  0.75437957  0.92750662  0.57474880  1  -0.040512  0  -0.092152  -0.127874  0  3.985227  0
C  C41  1  0.77955702  0.72230277  0.94462471  1  0.076421  0  -0.065252  -0.020739  0  3.97012  0
C  C42  1  0.69119189  0.69693834  0.88556664  1  -0.081439  0  -0.084579  -0.219941  0  3.869673  0
C  C43  1  0.83434832  0.77815015  0.05459961  1  -0.052239  0  -0.065137  -0.020158  0  3.969594  0
C  C44  1  0.80492521  0.80281900  0.11388297  1  -0.027852  0  -0.085531  -0.221342  0  3.871892  0
C  C45  1  0.27908325  0.72389361  0.44452746  1  0.054459  0  -0.066833  -0.022028  0  3.971289  0
C  C46  1  0.30375934  0.68938631  0.49844186  1  -0.067035  0  -0.084511  -0.220527  0  3.871229  0
C  C47  1  0.74554844  0.57258888  0.42511339  1  -0.03284  0  -0.091738  -0.128646  0  3.985067  0
C  C48  1  0.22252904  0.77728414  0.44315108  1  -0.068383  0  -0.065906  -0.022237  0  3.971133  0
C  C49  1  0.19639870  0.81056287  0.50582771  1  -0.024939  0  -0.085297  -0.219595  0  3.870362  0
C  C50  1  0.27735395  0.33490409  0.05489427  1  -0.060811  0  -0.065056  -0.020449  0  3.969508  0
C  C51  1  0.86159411  0.13555300  0.50132055  1  1.547641  0  0.217897  0.638323  0  4.190103  0
C  C52  1  0.31098143  0.30554006  0.11391953  1  -0.010932  0  -0.085132  -0.221145  0  3.871316  0
C  C53  1  0.22319361  0.27973997  0.94488407  1  0.075096  0  -0.065384  -0.020279  0  3.96836  0
C  C54  1  0.18879053  0.19100996  0.88554413  1  -0.083446  0  -0.084566  -0.220075  0  3.870815  0
C  C55  1  0.27704344  0.21972369  0.44124766  1  -0.100443  0  -0.065198  -0.020343  0  3.97404  0
C  C56  1  0.31441569  0.30805348  0.50805773  1  0.042601  0  -0.086177  -0.223112  0  3.877383  0
C  C57  1  0.22343656  0.16441654  0.44292244  1  -0.038474  0  -0.065362  -0.020125  0  3.972608  0
C  C58  1  0.74751759  0.66149254  0.46401882  1  0.072243  0  -0.000651  0.06011  0  3.975928  0
C  C59  1  0.18589451  0.19383464  0.49369015  1  -0.004876  0  -0.086408  -0.223648  0  3.87539  0
C  C60  1  0.66548164  0.22028235  0.44385544  1  -0.01821  0  -0.065713  -0.020727  0  3.97019  0
C  C61  1  0.69492276  0.30897347  0.49766174  1  -0.133244  0  -0.085364  -0.221722  0  3.871965  0
C  C62  1  0.72026355  0.16508473  0.44305840  1  -0.05028  0  -0.065807  -0.021366  0  3.971155  0
C  C63  1  0.13750914  0.86333716  0.50014584  1  1.557459  0  0.217169  0.634958  0  4.196572  0
C  C64  1  0.80864660  0.19440157  0.50592987  1  0.001635  0  -0.08543  -0.221854  0  3.871805  0
C  C65  1  0.36229809  0.63620769  0.49814305  1  1.526495  0  0.217259  0.636569  0  4.192433  0
C  C66  1  0.63658848  0.36238009  0.49689515  1  1.559607  0  0.216872  0.635289  0  4.195521  0
C  C67  1  0.63823852  0.63930077  0.77377595  1  1.533847  0  0.218074  0.637867  0  4.191661  0
C  C68  1  0.36525701  0.36431849  0.22565553  1  1.486011  0  0.218277  0.638929  0  4.189073  0
C  C69  1  0.80264821  0.71661670  0.46401416  1  -0.029204  0  -2.9e-05  0.062101  0  3.973646  0
C  C70  1  0.36645785  0.36223125  0.50194337  1  1.518504  0  0.217959  0.638508  0  4.19422  0
C  C71  1  0.63898458  0.63901276  0.49999924  1  1.582375  0  0.232845  0.622236  0  4.168681  0
C  C72  1  0.13366653  0.13566347  0.49562499  1  1.522336  0  0.217886  0.639465  0  4.191784  0
C  C73  1  0.86119935  0.86112680  0.49994263  1  1.570953  0  0.233038  0.621771  0  4.16809  0
C  C74  1  0.85255460  0.67955978  0.42502518  1  -0.082827  0  -0.091436  -0.12733  0  3.98515  0
C  C75  1  0.84855247  0.59371233  0.38812258  1  -0.030874  0  -0.094722  -0.086411  0  4.051553  0
C  C76  1  0.79444780  0.53961360  0.38817751  1  0.036714  0  -0.094756  -0.086428  0  4.051647  0
C  C77  1  0.69628150  0.69626849  0.50004971  1  -0.012839  0  -0.00603  -0.112611  0  3.893507  0
C  C78  1  0.69750550  0.78352943  0.53600871  1  -0.035511  0  -0.000888  0.059477  0  3.97562  0
C  C79  1  0.75260594  0.83865297  0.53596728  1  0.070908  0  -0.000209  0.062298  0  3.972769  0
C  C80  1  0.80395224  0.80392859  0.50003617  1  -0.015397  0  -0.006437  -0.114287  0  3.891167  0
C  C81  1  0.64739318  0.82042577  0.57475925  1  -0.082233  0  -0.092218  -0.127746  0  3.985926  0
O  O82  1  0.99889854  0.99878711  0.49956479  1  -1.194719  0  -0.571463  -1.029526  0  2.53414  0
O  O83  1  0.38872774  0.32491558  0.26936735  1  -1.154295  0  -0.321561  -0.551669  0  2.29759  0
O  O84  1  0.39048480  0.44554761  0.56538537  1  -1.153219  0  -0.320446  -0.549935  0  2.293012  0
O  O85  1  0.11154352  0.05423919  0.72977512  1  -1.154012  0  -0.319727  -0.548669  0  2.295854  0
O  O86  1  0.55643311  0.61652559  0.43835452  1  -1.180761  0  -0.309907  -0.543424  0  2.322167  0
O  O87  1  0.38299386  0.32305401  0.43554613  1  -1.170154  0  -0.319505  -0.554505  0  2.321364  0
O  O88  1  0.67789758  0.61796491  0.56153925  1  -1.175493  0  -0.309496  -0.542533  0  2.321423  0
O  O89  1  0.67799208  0.61468037  0.73040907  1  -1.178933  0  -0.318922  -0.553204  0  2.316478  0
O  O90  1  0.38427007  0.44745259  0.26911584  1  -1.157746  0  -0.319264  -0.553902  0  2.31599  0
O  O91  1  0.38209310  0.61197412  0.55708614  1  -1.148071  0  -0.320421  -0.550334  0  2.294014  0
O  O92  1  0.55380882  0.32277839  0.43921541  1  -1.172623  0  -0.318384  -0.552155  0  2.318467  0
O  O93  1  0.82179354  0.05237831  0.43799963  1  -1.171951  0  -0.319446  -0.554643  0  2.314113  0
O  O94  1  0.82404620  0.88142035  0.26974502  1  -1.157888  0  -0.319817  -0.548669  0  2.295784  0
O  O95  1  0.94468636  0.17488314  0.56323526  1  -1.152069  0  -0.320907  -0.551464  0  2.295607  0
O  O96  1  0.11343404  0.88206671  0.43612821  1  -1.170259  0  -0.318717  -0.552309  0  2.320844  0
O  O97  1  0.10972112  0.17512632  0.55501154  1  -1.147314  0  -0.321225  -0.551167  0  2.293992  0
O  O98  1  0.94379970  0.88257559  0.56037650  1  -1.177225  0  -0.308974  -0.541855  0  2.321002  0
O  O99  1  0.11693164  0.05273351  0.43969388  1  -1.163981  0  -0.319833  -0.554898  0  2.321877  0
O  O100  1  0.82216143  0.88317511  0.43940902  1  -1.172105  0  -0.308819  -0.542074  0  2.323038  0
O  O101  1  0.11557699  0.88567167  0.56172807  1  -1.163053  0  -0.320704  -0.550421  0  2.294732  0
O  O102  1  0.11657825  0.17734154  0.73060668  1  -1.184223  0  -0.319298  -0.554245  0  2.31751  0
O  O103  1  0.94616943  0.88491784  0.26859061  1  -1.174625  0  -0.319326  -0.553619  0  2.319947  0
O  O104  1  0.50119984  0.50117995  0.49959099  1  -1.226409  0  -0.5716  -1.029528  0  2.533845  0
O  O105  1  0.38809209  0.61893887  0.44091297  1  -1.176088  0  -0.318993  -0.553926  0  2.317173  0
O  O106  1  0.67602174  0.44581502  0.55599743  1  -1.156305  0  -0.321405  -0.551311  0  2.295548  0
O  O107  1  0.55514410  0.61909409  0.72994645  1  -1.146763  0  -0.320591  -0.551003  0  2.296217  0
