# generated using pymatgen
data_ZnH12C11N2O5
_symmetry_space_group_name_H-M   'P 1'
_cell_length_a   10.75513766
_cell_length_b   11.23280174
_cell_length_c   14.91493070
_cell_angle_alpha   89.99994329
_cell_angle_beta   89.99996973
_cell_angle_gamma   90.00001703
_symmetry_Int_Tables_number   1
_chemical_formula_structural   ZnH12C11N2O5
_chemical_formula_sum   'Zn4 H48 C44 N8 O20'
_cell_volume   1801.87768478
_cell_formula_units_Z   4
loop_
 _symmetry_equiv_pos_site_id
 _symmetry_equiv_pos_as_xyz
  1  'x, y, z'
loop_
 _atom_site_type_symbol
 _atom_site_label
 _atom_site_symmetry_multiplicity
 _atom_site_fract_x
 _atom_site_fract_y
 _atom_site_fract_z
 _atom_site_occupancy
 _atom_site_pbe_bader_charge
 _atom_site_pbe_bader_spin_density
 _atom_site_pbe_cm5_charge
 _atom_site_pbe_ddec_charge
 _atom_site_pbe_ddec_spin_density
 _atom_site_pbe_ddec_sum_bond_order
 _atom_site_pbe_magmom
Zn  Zn0  1  0.34442802  0.82176732  0.15768859  1  1.291384  0  0.695598  0.855095  0  2.342543  0
Zn  Zn1  1  0.15557381  0.17823206  0.65768918  1  1.290762  0  0.695597  0.855095  0  2.342556  0
Zn  Zn2  1  0.65557313  0.32176821  0.34231177  1  1.290777  0  0.695578  0.855065  0  2.34254  0
Zn  Zn3  1  0.84442600  0.67823018  0.84231057  1  1.290739  0  0.69559  0.855104  0  2.342542  0
H  H4  1  0.52672964  0.54492270  0.29368594  1  0.139676  0  0.124326  0.103546  0  1.013503  0
H  H5  1  0.44575242  0.26500666  0.46586051  1  0.16449  0  0.121771  0.105171  0  1.039116  0
H  H6  1  0.17074066  0.54073216  0.42611036  1  0.135225  0  0.118534  0.124967  0  0.99105  0
H  H7  1  0.07726548  0.85217466  0.14525881  1  0.104508  0  0.104231  0.169338  0  1.015508  0
H  H8  1  0.96870084  0.96246604  0.18178374  1  0.071102  0  0.102568  0.154294  0  1.011719  0
H  H9  1  0.01203894  0.84404126  0.25499182  1  0.081222  0  0.10742  0.166315  0  0.983549  0
H  H10  1  0.93954252  0.11071320  0.28671247  1  0.126856  0  0.104767  0.132646  0  1.033705  0
H  H11  1  0.00775896  0.13910039  0.39301552  1  0.072785  0  0.109059  0.124204  0  1.016375  0
H  H12  1  0.96440423  0.99111861  0.36455695  1  0.05686  0  0.106239  0.119613  0  0.981039  0
H  H13  1  0.22795325  0.12432938  0.41305446  1  0.046103  0  0.107744  0.126598  0  0.993183  0
H  H14  1  0.20865741  0.22575650  0.32191421  1  0.056655  0  0.102874  0.115233  0  0.991261  0
H  H15  1  0.31623946  0.10519532  0.31255180  1  0.065717  0  0.11537  0.139326  0  1.001384  0
H  H16  1  0.97326860  0.45507753  0.79368419  1  0.139637  0  0.124337  0.103551  0  1.013485  0
H  H17  1  0.05424268  0.73499053  0.96586274  1  0.164482  0  0.121764  0.105141  0  1.039193  0
H  H18  1  0.32925634  0.45926776  0.92611067  1  0.134916  0  0.118548  0.125025  0  0.990977  0
H  H19  1  0.42273729  0.14782117  0.64525864  1  0.104554  0  0.104229  0.169351  0  1.015534  0
H  H20  1  0.53130119  0.03753078  0.68178448  1  0.07104  0  0.102533  0.154236  0  1.011799  0
H  H21  1  0.48796562  0.15595710  0.75499095  1  0.081244  0  0.107404  0.16629  0  0.983619  0
H  H22  1  0.56045851  0.88928616  0.78671391  1  0.126882  0  0.104763  0.132629  0  1.033711  0
H  H23  1  0.49224177  0.86089957  0.89301815  1  0.072502  0  0.109048  0.124197  0  1.016379  0
H  H24  1  0.53559767  0.00888064  0.86455905  1  0.05684  0  0.106243  0.119659  0  0.981026  0
H  H25  1  0.27204747  0.87567144  0.91305649  1  0.046046  0  0.107706  0.126554  0  0.993199  0
H  H26  1  0.29134152  0.77424445  0.82191698  1  0.056786  0  0.10286  0.115244  0  0.991093  0
H  H27  1  0.18376133  0.89480652  0.81255319  1  0.065765  0  0.115374  0.13934  0  1.001365  0
H  H28  1  0.47327235  0.04492016  0.20631463  1  0.139536  0  0.124333  0.103558  0  1.013425  0
H  H29  1  0.55424871  0.76500599  0.03413788  1  0.164485  0  0.121773  0.105141  0  1.039116  0
H  H30  1  0.82925761  0.04073434  0.07388619  1  0.134895  0  0.118532  0.124974  0  0.991033  0
H  H31  1  0.92273661  0.35217917  0.35474153  1  0.104545  0  0.104236  0.169341  0  1.015526  0
H  H32  1  0.03129942  0.46246945  0.31821585  1  0.071056  0  0.102549  0.154245  0  1.011778  0
H  H33  1  0.98796408  0.34404326  0.24500987  1  0.081248  0  0.107422  0.166304  0  0.983605  0
H  H34  1  0.06045764  0.61071393  0.21328671  1  0.12688  0  0.104773  0.132662  0  1.033688  0
H  H35  1  0.99224027  0.63910064  0.10698364  1  0.072772  0  0.109061  0.12425  0  1.016344  0
H  H36  1  0.03559604  0.49111960  0.13544261  1  0.056873  0  0.10625  0.11962  0  0.981052  0
H  H37  1  0.77204597  0.62432960  0.08694538  1  0.046092  0  0.107734  0.126594  0  0.993175  0
H  H38  1  0.79134092  0.72575749  0.17808488  1  0.056658  0  0.10286  0.115227  0  0.991176  0
H  H39  1  0.68376162  0.60519449  0.18744805  1  0.065718  0  0.115374  0.139336  0  1.001378  0
H  H40  1  0.02672852  0.95507471  0.70631737  1  0.139431  0  0.124332  0.103569  0  1.013443  0
H  H41  1  0.94575808  0.23499013  0.53413965  1  0.164498  0  0.121781  0.105151  0  1.039205  0
H  H42  1  0.67074078  0.95927152  0.57389088  1  0.135243  0  0.118539  0.124998  0  0.991004  0
H  H43  1  0.57726530  0.64782276  0.85474113  1  0.104537  0  0.10423  0.169325  0  1.015529  0
H  H44  1  0.46870044  0.53753238  0.81821739  1  0.071075  0  0.102547  0.154251  0  1.011743  0
H  H45  1  0.51203605  0.65595703  0.74500949  1  0.081241  0  0.107419  0.166301  0  0.983576  0
H  H46  1  0.43954137  0.38928804  0.71328501  1  0.126916  0  0.104781  0.132688  0  1.033678  0
H  H47  1  0.50775810  0.36089984  0.60698281  1  0.07252  0  0.109035  0.12417  0  1.016381  0
H  H48  1  0.46440302  0.50888159  0.63544015  1  0.056823  0  0.106261  0.119699  0  0.981001  0
H  H49  1  0.72795148  0.37567091  0.58694378  1  0.046064  0  0.107711  0.126561  0  0.993192  0
H  H50  1  0.70865647  0.27424290  0.67808471  1  0.056746  0  0.102865  0.11523  0  0.991188  0
H  H51  1  0.81623763  0.39480499  0.68744774  1  0.065752  0  0.115396  0.139372  0  1.001361  0
C  C52  1  0.45994572  0.50458366  0.33931072  1  0.453179  0  0.063636  0.093505  0  3.866006  0
C  C53  1  0.41439069  0.34888067  0.43669776  1  0.505136  0  0.056891  0.071581  0  3.893819  0
C  C54  1  0.29779432  0.39701022  0.45623322  1  -0.064145  0  -0.010145  -0.074076  0  3.970081  0
C  C55  1  0.26210350  0.50220128  0.41341570  1  -0.055051  0  -0.047104  -0.057188  0  3.897777  0
C  C56  1  0.34404298  0.55704784  0.35372514  1  0.067702  0  -0.007919  -0.065225  0  3.951054  0
C  C57  1  0.21060898  0.33384249  0.51930764  1  1.592648  0  0.201039  0.562308  0  4.258108  0
C  C58  1  0.30588822  0.66538949  0.30062261  1  1.607274  0  0.201483  0.574355  0  4.248152  0
C  C59  1  0.15198325  0.97731703  0.23830041  1  1.350623  0  0.255752  0.536901  0  4.007419  0
C  C60  1  0.04586838  0.90476435  0.20262212  1  -0.096205  0  -0.237688  -0.52301  0  3.906017  0
C  C61  1  0.00251404  0.07480658  0.33809071  1  0.225522  0  -0.133599  -0.277799  0  3.885734  0
C  C62  1  0.22624433  0.13221437  0.33967296  1  0.313097  0  -0.13135  -0.266065  0  3.89185  0
C  C63  1  0.04005226  0.49541459  0.83931045  1  0.453153  0  0.063638  0.093547  0  3.865704  0
C  C64  1  0.08560444  0.65111834  0.93669937  1  0.505122  0  0.056908  0.071565  0  3.893948  0
C  C65  1  0.20220265  0.60298698  0.95623549  1  -0.064076  0  -0.010149  -0.073922  0  3.969946  0
C  C66  1  0.23789350  0.49779688  0.91341534  1  -0.054712  0  -0.047126  -0.057309  0  3.89779  0
C  C67  1  0.15595779  0.44295217  0.85372352  1  0.06767  0  -0.00789  -0.065224  0  3.950894  0
C  C68  1  0.28939109  0.66615796  0.01930853  1  1.592657  0  0.201016  0.562174  0  4.258232  0
C  C69  1  0.19411165  0.33461148  0.80062039  1  1.607289  0  0.201423  0.574287  0  4.248305  0
C  C70  1  0.34801946  0.02268135  0.73830104  1  1.350728  0  0.255754  0.536894  0  4.007522  0
C  C71  1  0.45413528  0.09523408  0.70262265  1  -0.096242  0  -0.23766  -0.52296  0  3.90618  0
C  C72  1  0.49748674  0.92519256  0.83809262  1  0.225775  0  -0.133587  -0.277836  0  3.885708  0
C  C73  1  0.27375551  0.86778655  0.83967567  1  0.312964  0  -0.131315  -0.266051  0  3.891605  0
C  C74  1  0.54005533  0.00458387  0.16068854  1  0.453664  0  0.063637  0.093532  0  3.865907  0
C  C75  1  0.58560861  0.84888176  0.06330124  1  0.505129  0  0.056878  0.071602  0  3.893792  0
C  C76  1  0.70220499  0.89701314  0.04376373  1  -0.064127  0  -0.010157  -0.074028  0  3.969989  0
C  C77  1  0.73789569  0.00220342  0.08658222  1  -0.054754  0  -0.047008  -0.057054  0  3.897693  0
C  C78  1  0.65595716  0.05704899  0.14627341  1  0.067676  0  -0.007987  -0.065424  0  3.951124  0
C  C79  1  0.78939182  0.83384308  0.98068998  1  1.592681  0  0.201045  0.562265  0  4.258149  0
C  C80  1  0.69411380  0.16538880  0.19937720  1  1.607323  0  0.201498  0.574454  0  4.247938  0
C  C81  1  0.84801888  0.47731897  0.26170050  1  1.350607  0  0.255731  0.536961  0  4.007541  0
C  C82  1  0.95413372  0.40476627  0.29737818  1  -0.096236  0  -0.23767  -0.522931  0  3.906131  0
C  C83  1  0.99748517  0.57480765  0.16190916  1  0.225525  0  -0.13369  -0.27792  0  3.88583  0
C  C84  1  0.77375490  0.63221449  0.16032620  1  0.313085  0  -0.131345  -0.266039  0  3.891771  0
C  C85  1  0.95994579  0.99541476  0.66069175  1  0.453697  0  0.063616  0.093481  0  3.865743  0
C  C86  1  0.91439630  0.15111878  0.56330309  1  0.505  0  0.056872  0.071604  0  3.893869  0
C  C87  1  0.79779621  0.10299009  0.54376767  1  -0.064482  0  -0.010106  -0.073969  0  3.969933  0
C  C88  1  0.76210270  0.99780065  0.58658618  1  -0.055067  0  -0.047157  -0.057319  0  3.897741  0
C  C89  1  0.84404025  0.94295322  0.64627671  1  0.067668  0  -0.007867  -0.065158  0  3.95083  0
C  C90  1  0.71061094  0.16616047  0.48069328  1  1.593082  0  0.201045  0.562307  0  4.257936  0
C  C91  1  0.80588543  0.83460977  0.69937791  1  1.607381  0  0.201504  0.574426  0  4.248023  0
C  C92  1  0.65198031  0.52268041  0.76170017  1  1.350597  0  0.255721  0.536869  0  4.007493  0
C  C93  1  0.54586730  0.59523395  0.79737783  1  -0.096229  0  -0.237654  -0.522912  0  3.906065  0
C  C94  1  0.50251316  0.42519364  0.66190761  1  0.225755  0  -0.133619  -0.277925  0  3.885728  0
C  C95  1  0.72624250  0.36778592  0.66032528  1  0.313023  0  -0.131321  -0.266066  0  3.89175  0
N  N96  1  0.49380021  0.40214170  0.37947989  1  -1.261572  0  -0.328074  -0.235777  0  3.58203  0
N  N97  1  0.12819910  0.05696424  0.30291588  1  -1.194405  0  -0.271843  -0.01154  0  3.630276  0
N  N98  1  0.00619682  0.59785650  0.87948090  1  -1.261542  0  -0.328118  -0.235836  0  3.582074  0
N  N99  1  0.37180170  0.94303673  0.80291782  1  -1.19441  0  -0.271853  -0.011543  0  3.630153  0
N  N100  1  0.50620003  0.90214179  0.12052041  1  -1.261885  0  -0.328084  -0.235809  0  3.582039  0
N  N101  1  0.87180011  0.55696433  0.19708401  1  -1.194413  0  -0.271751  -0.011577  0  3.630444  0
N  N102  1  0.99380297  0.09785599  0.62052226  1  -1.261758  0  -0.328092  -0.235838  0  3.582135  0
N  N103  1  0.62819820  0.44303603  0.69708307  1  -1.194423  0  -0.271844  -0.011507  0  3.630237  0
O  O104  1  0.26200578  0.24793781  0.56488146  1  -1.169027  0  -0.332804  -0.572519  0  2.340978  0
O  O105  1  0.09954485  0.36446707  0.52348401  1  -1.162983  0  -0.319533  -0.533289  0  2.09636  0
O  O106  1  0.39414932  0.70992874  0.25176952  1  -1.162647  0  -0.3397  -0.571188  0  2.314282  0
O  O107  1  0.19618717  0.70103419  0.30438596  1  -1.181514  0  -0.324758  -0.550994  0  2.115164  0
O  O108  1  0.26214270  0.96662072  0.20803140  1  -1.179726  0  -0.314759  -0.536305  0  2.355971  0
O  O109  1  0.23799054  0.75205991  0.06488499  1  -1.169565  0  -0.332824  -0.57252  0  2.34112  0
O  O110  1  0.40045522  0.63553071  0.02348287  1  -1.162941  0  -0.319495  -0.5332  0  2.096328  0
O  O111  1  0.10585058  0.29007230  0.75176803  1  -1.162671  0  -0.339647  -0.57114  0  2.314323  0
O  O112  1  0.30381270  0.29897034  0.80438439  1  -1.18153  0  -0.324762  -0.550984  0  2.115264  0
O  O113  1  0.23786003  0.03337860  0.70803340  1  -1.179657  0  -0.314724  -0.53626  0  2.356081  0
O  O114  1  0.73799313  0.74793933  0.93511555  1  -1.16904  0  -0.332837  -0.572579  0  2.341114  0
O  O115  1  0.90045688  0.86446858  0.97651561  1  -1.162985  0  -0.319509  -0.533236  0  2.09628  0
O  O116  1  0.60585272  0.20992618  0.24823093  1  -1.162614  0  -0.339723  -0.57124  0  2.314084  0
O  O117  1  0.80381301  0.20103531  0.19560912  1  -1.181559  0  -0.324773  -0.551019  0  2.115083  0
O  O118  1  0.73785942  0.46662081  0.29196752  1  -1.179578  0  -0.314745  -0.536305  0  2.356048  0
O  O119  1  0.76201152  0.25206249  0.43511743  1  -1.169101  0  -0.332844  -0.57258  0  2.341014  0
O  O120  1  0.59954587  0.13553764  0.47651965  1  -1.162933  0  -0.319497  -0.533249  0  2.096204  0
O  O121  1  0.89414462  0.79006877  0.74823030  1  -1.162606  0  -0.339691  -0.571227  0  2.314204  0
O  O122  1  0.69618529  0.79896594  0.69561125  1  -1.181624  0  -0.324804  -0.551036  0  2.115063  0
O  O123  1  0.76213974  0.53337676  0.79196780  1  -1.17956  0  -0.314748  -0.536303  0  2.356048  0
