# generated using pymatgen
data_ZnH42C23(N3O4)3
_symmetry_space_group_name_H-M   'P 1'
_cell_length_a   10.13474545
_cell_length_b   10.57026040
_cell_length_c   16.47878761
_cell_angle_alpha   91.49284015
_cell_angle_beta   94.13752937
_cell_angle_gamma   90.88914890
_symmetry_Int_Tables_number   1
_chemical_formula_structural   ZnH42C23(N3O4)3
_chemical_formula_sum   'Zn2 H84 C46 N18 O24'
_cell_volume   1759.85493577
_cell_formula_units_Z   2
loop_
 _symmetry_equiv_pos_site_id
 _symmetry_equiv_pos_as_xyz
  1  'x, y, z'
loop_
 _atom_site_type_symbol
 _atom_site_label
 _atom_site_symmetry_multiplicity
 _atom_site_fract_x
 _atom_site_fract_y
 _atom_site_fract_z
 _atom_site_occupancy
 _atom_site_pbe_bader_charge
 _atom_site_pbe_bader_spin_density
 _atom_site_pbe_cm5_charge
 _atom_site_pbe_ddec_charge
 _atom_site_pbe_ddec_spin_density
 _atom_site_pbe_ddec_sum_bond_order
 _atom_site_pbe_magmom
Zn  Zn0  1  0.35747454  0.50576222  0.47471780  1  1.319114  0  0.696201  0.919635  0  2.297931  0
Zn  Zn1  1  0.69523311  0.49907870  0.45198888  1  1.329472  0  0.694704  0.924846  0  2.200287  0
H  H2  1  0.97960550  0.32303590  0.51334065  1  0.126012  0  0.12512  0.054216  0  1.053583  0
H  H3  1  0.27653534  0.90899812  0.68113604  1  -0.002274  0  0.089356  0.09  0  1.006857  0
H  H4  1  0.44319720  0.95649813  0.70772172  1  0.073407  0  0.1007  0.111838  0  1.032109  0
H  H5  1  0.39997485  0.79293570  0.70155320  1  0.058202  0  0.091219  0.094788  0  1.03345  0
H  H6  1  0.61332937  0.77726281  0.63150524  1  0.453191  0  0.289634  0.250479  0  1.039527  0
H  H7  1  0.83288679  0.94628285  0.61741682  1  0.028135  0  0.085311  0.08883  0  1.01708  0
H  H8  1  0.76250791  0.97682715  0.71153142  1  -0.004064  0  0.076352  0.069488  0  1.026406  0
H  H9  1  0.81062943  0.82100920  0.68358890  1  0.078326  0  0.099823  0.105321  0  1.029211  0
H  H10  1  0.37159263  0.13429254  0.58139899  1  0.621472  0  0.303022  0.343389  0  0.985927  0
H  H11  1  0.65109789  0.20280104  0.62980415  1  0.617651  0  0.33197  0.368917  0  0.883629  0
H  H12  1  0.82009786  0.73582882  0.52914923  1  0.626299  0  0.316456  0.366624  0  0.941865  0
H  H13  1  0.13350934  0.34522251  0.42005147  1  0.075159  0  0.116195  0.053649  0  0.989109  0
H  H14  1  0.15183712  0.78351238  0.55662241  1  0.60485  0  0.32812  0.364448  0  0.880175  0
H  H15  1  0.93974633  0.57113070  0.37622771  1  0.617553  0  0.301993  0.339455  0  0.996567  0
H  H16  1  0.05076113  0.73754063  0.38609634  1  0.590975  0  0.309829  0.349795  0  0.938022  0
H  H17  1  0.76438325  0.59190767  0.62599376  1  0.460709  0  0.293611  0.252665  0  1.007882  0
H  H18  1  0.73711932  0.49804152  0.75135680  1  0.030371  0  0.087683  0.088498  0  1.044142  0
H  H19  1  0.79424695  0.65475425  0.77003345  1  0.052027  0  0.096904  0.102242  0  1.019804  0
H  H20  1  0.90725523  0.52924358  0.78115988  1  0.030474  0  0.096148  0.097284  0  1.018857  0
H  H21  1  0.21207742  0.55378452  0.73484632  1  0.474484  0  0.314021  0.250975  0  0.970125  0
H  H22  1  0.01690145  0.71107107  0.77049927  1  0.059905  0  0.102625  0.107187  0  1.025363  0
H  H23  1  0.03069057  0.73922583  0.66525305  1  0.135084  0  0.107099  0.120817  0  1.061803  0
H  H24  1  0.33936332  0.86367976  0.43466124  1  0.085522  0  0.109882  0.079887  0  1.024738  0
H  H25  1  0.17280491  0.75680184  0.73738303  1  0.089903  0  0.104129  0.109601  0  1.01783  0
H  H26  1  0.80866423  0.28243028  0.43486345  1  0.66607  0  0.30186  0.355476  0  0.985113  0
H  H27  1  0.96254749  0.40599453  0.32591468  1  0.58193  0  0.310838  0.34588  0  0.926917  0
H  H28  1  0.77521570  0.35207716  0.59460819  1  0.442096  0  0.290383  0.244439  0  1.008574  0
H  H29  1  0.87566288  0.18617514  0.69282994  1  0.04883  0  0.09545  0.09952  0  1.020126  0
H  H30  1  0.78337555  0.30952460  0.73652482  1  0.04231  0  0.093651  0.096852  0  1.028119  0
H  H31  1  0.95771236  0.31989917  0.74110925  1  0.054021  0  0.103572  0.112986  0  0.999145  0
H  H32  1  0.25253524  0.42104439  0.64285258  1  0.529051  0  0.30121  0.264095  0  1.020276  0
H  H33  1  0.18910048  0.19556942  0.66094726  1  0.042221  0  0.100729  0.107388  0  0.988097  0
H  H34  1  0.18735417  0.24169711  0.55813056  1  0.108996  0  0.112225  0.135233  0  1.006533  0
H  H35  1  0.74314338  0.95195672  0.50403384  1  0.064274  0  0.11678  0.074279  0  1.021506  0
H  H36  1  0.03531127  0.22635385  0.60609850  1  0.088937  0  0.109943  0.123347  0  1.046217  0
H  H37  1  0.35805402  0.73918343  0.91832878  1  0.45995  0  0.277959  0.218924  0  1.066712  0
H  H38  1  0.07674634  0.64317073  0.90357210  1  0.045321  0  0.093007  0.099985  0  1.0082  0
H  H39  1  0.12905398  0.80115255  0.88894160  1  -0.00243  0  0.093813  0.09613  0  0.996679  0
H  H40  1  0.13983068  0.73919130  0.98861396  1  0.043711  0  0.08045  0.081018  0  1.034082  0
H  H41  1  0.56871088  0.80391415  0.98539683  1  0.426862  0  0.292922  0.240362  0  0.991038  0
H  H42  1  0.56240218  0.91078874  0.86011058  1  -0.008756  0  0.093043  0.094129  0  1.002771  0
H  H43  1  0.56431383  0.76349535  0.80618087  1  0.053509  0  0.097354  0.109192  0  1.029288  0
H  H44  1  0.70723326  0.81592062  0.86748965  1  -0.005939  0  0.085516  0.083345  0  1.01747  0
H  H45  1  0.75343202  0.58542713  0.97987446  1  0.578296  0  0.28631  0.281495  0  1.049703  0
H  H46  1  0.30138559  0.63546606  0.12985100  1  0.591248  0  0.3293  0.354959  0  0.903312  0
H  H47  1  0.19307680  0.43000512  0.95667460  1  0.586718  0  0.288274  0.287291  0  1.037849  0
H  H48  1  0.71614181  0.46821341  0.07669361  1  0.480162  0  0.292862  0.255125  0  1.014675  0
H  H49  1  0.87746726  0.58593672  0.15507991  1  0.02439  0  0.097851  0.101066  0  1.006288  0
H  H50  1  0.72399003  0.61732122  0.19772986  1  0.053881  0  0.094247  0.104579  0  1.026967  0
H  H51  1  0.79464052  0.72976316  0.13373695  1  0.066323  0  0.098665  0.107582  0  0.992168  0
H  H52  1  0.28067626  0.35394986  0.05827980  1  0.512414  0  0.288683  0.26922  0  1.003446  0
H  H53  1  0.07506372  0.38315830  0.11723606  1  0.06969  0  0.108703  0.12311  0  0.968253  0
H  H54  1  0.07850347  0.54735654  0.09737415  1  0.02938  0  0.097878  0.102846  0  1.011918  0
H  H55  1  0.19085902  0.48327798  0.17449131  1  0.06072  0  0.09504  0.098903  0  1.01728  0
H  H56  1  0.32164286  0.34369253  0.87539473  1  0.520803  0  0.306522  0.267109  0  0.994132  0
H  H57  1  0.45722415  0.72242529  0.08299201  1  0.61158  0  0.307715  0.337919  0  0.989908  0
H  H58  1  0.34082721  0.17075379  0.78538167  1  0.020316  0  0.106739  0.114736  0  0.981969  0
H  H59  1  0.50800710  0.14533015  0.82112354  1  0.049163  0  0.107411  0.114696  0  1.007967  0
H  H60  1  0.46777171  0.28114681  0.76311638  1  0.101388  0  0.104669  0.120079  0  1.022761  0
H  H61  1  0.69141656  0.43896445  0.88657019  1  0.488736  0  0.292032  0.250115  0  1.036864  0
H  H62  1  0.65081263  0.17123677  0.93033504  1  0.041106  0  0.099892  0.10313  0  1.00788  0
H  H63  1  0.79572241  0.26370145  0.94983067  1  0.035742  0  0.088913  0.093095  0  0.99827  0
H  H64  1  0.74993272  0.20527368  0.84862170  1  -0.001008  0  0.084623  0.078743  0  1.02504  0
H  H65  1  0.39163771  0.23675914  0.93800632  1  0.516262  0  0.295452  0.271054  0  0.974694  0
H  H66  1  0.61191187  0.26442843  0.09578562  1  0.628339  0  0.323219  0.363779  0  0.892976  0
H  H67  1  0.51534481  0.81992978  0.33324961  1  0.379539  0  0.283019  0.215396  0  1.019764  0
H  H68  1  0.31751854  0.98301973  0.53309507  1  0.597945  0  0.283065  0.279835  0  1.066768  0
H  H69  1  0.37835304  0.81242633  0.22406683  1  0.0276  0  0.090308  0.094035  0  1.008569  0
H  H70  1  0.29018203  0.94633050  0.25508196  1  0.032412  0  0.093749  0.101377  0  1.028187  0
H  H71  1  0.26643908  0.79761962  0.30290849  1  0.056881  0  0.086381  0.095451  0  1.02031  0
H  H72  1  0.83479425  0.83764066  0.42188239  1  0.42658  0  0.280384  0.220162  0  1.045368  0
H  H73  1  0.82279566  0.80898051  0.28409322  1  0.02258  0  0.095452  0.100879  0  0.993789  0
H  H74  1  0.67509287  0.89577120  0.27194615  1  0.047392  0  0.097618  0.100368  0  1.032143  0
H  H75  1  0.67493229  0.74194963  0.31525825  1  -0.006526  0  0.081751  0.077529  0  1.034971  0
H  H76  1  0.36250453  0.21715823  0.36983553  1  0.408436  0  0.291126  0.245992  0  0.997793  0
H  H77  1  0.16834309  0.14532274  0.29066879  1  0.034346  0  0.093921  0.095006  0  0.989593  0
H  H78  1  0.13887000  0.15474598  0.39655083  1  0.021934  0  0.081756  0.081  0  1.028759  0
H  H79  1  0.76736306  0.15559340  0.52134212  1  0.626549  0  0.310717  0.341573  0  0.97025  0
H  H80  1  0.16683040  0.00684566  0.35010614  1  0.056252  0  0.098511  0.107195  0  1.008756  0
H  H81  1  0.54358089  0.08377440  0.32224642  1  0.451  0  0.284467  0.229235  0  1.050026  0
H  H82  1  0.69526310  0.10952308  0.23281212  1  0.003251  0  0.092824  0.092024  0  0.994867  0
H  H83  1  0.81739280  0.08313192  0.31337700  1  0.076158  0  0.092906  0.101007  0  1.029649  0
H  H84  1  0.76663314  0.24057674  0.29037929  1  0.010133  0  0.080058  0.080726  0  1.023305  0
H  H85  1  0.38331270  0.79823535  0.56113690  1  0.442282  0  0.29593  0.248567  0  0.997375  0
C  C86  1  0.55519673  0.73488889  0.47441968  1  1.553208  0  0.228489  0.601295  0  4.092368  0
C  C87  1  0.64993478  0.09074002  0.43042210  1  0.801095  0  0.171092  0.38414  0  3.73396  0
C  C88  1  0.54027929  0.92612222  0.56758691  1  0.676081  0  0.18021  0.217013  0  3.724365  0
C  C89  1  0.55017338  0.87948685  0.47331142  1  -0.02919  0  -0.017299  -0.157346  0  3.695441  0
C  C90  1  0.52676869  0.12950322  0.47900403  1  -0.002047  0  -0.021402  -0.315456  0  3.651815  0
C  C91  1  0.47336234  0.54634265  0.65532397  1  1.705455  0  0.212846  0.646776  0  4.295159  0
C  C92  1  0.54678052  0.07863689  0.56827764  1  0.99557  0  0.161413  0.415223  0  3.752349  0
C  C93  1  0.95811087  0.63199073  0.49356212  1  1.276495  0  0.226721  0.446504  0  3.890754  0
C  C94  1  0.11114292  0.64341368  0.48378411  1  1.295654  0  0.223956  0.503676  0  3.976692  0
C  C95  1  0.92397822  0.48046290  0.62083790  1  0.958653  0  0.27326  0.362824  0  3.825894  0
C  C96  1  0.06937200  0.47821570  0.65886774  1  1.167484  0  0.279814  0.290714  0  3.854237  0
C  C97  1  0.50435413  0.35853130  0.01884466  1  1.08056  0  0.140699  0.385679  0  3.910412  0
C  C98  1  0.95670425  0.40436090  0.47608268  1  0.679245  0  0.068156  0.185634  0  3.861364  0
C  C99  1  0.08055750  0.43395919  0.42788753  1  0.763305  0  0.076859  0.251241  0  3.933365  0
C  C100  1  0.51323997  0.27533014  0.48797300  1  1.559256  0  0.22285  0.623336  0  4.083726  0
C  C101  1  0.49547077  0.47882802  0.31046488  1  1.6681  0  0.221049  0.668736  0  4.262846  0
C  C102  1  0.32446176  0.55273671  0.93474100  1  0.858666  0  0.168881  0.296702  0  3.75232  0
C  C103  1  0.57626513  0.62256716  0.94726371  1  0.801047  0  0.163539  0.289655  0  3.728436  0
C  C104  1  0.57967926  0.59990397  0.04515929  1  0.816241  0  0.169592  0.301758  0  3.721039  0
C  C105  1  0.33183028  0.53400156  0.03278460  1  0.758754  0  0.161077  0.284775  0  3.708932  0
C  C106  1  0.48249411  0.47212059  0.22263913  1  0.278901  0  -0.046386  -0.193712  0  3.957933  0
C  C107  1  0.46920304  0.52473306  0.90362038  1  0.079662  0  0.009435  -0.093238  0  3.728615  0
C  C108  1  0.51428467  0.38302423  0.92175697  1  0.620064  0  0.177138  0.20547  0  3.616341  0
C  C109  1  0.47476533  0.49228121  0.06221242  1  0.071164  0  -0.021411  -0.160217  0  3.883152  0
C  C110  1  0.38050157  0.88512826  0.67418974  1  0.251853  0  -0.15476  -0.216556  0  3.95697  0
C  C111  1  0.76527094  0.90778877  0.66033680  1  0.295114  0  -0.152541  -0.182897  0  4.000175  0
C  C112  1  0.82111527  0.56277138  0.74417648  1  0.276866  0  -0.154929  -0.214304  0  3.971892  0
C  C113  1  0.08144634  0.70296048  0.72012049  1  0.204189  0  -0.140305  -0.231173  0  3.917841  0
C  C114  1  0.87010100  0.28935379  0.70208687  1  0.222099  0  -0.153192  -0.225172  0  3.978866  0
C  C115  1  0.13895231  0.25580477  0.61511576  1  0.249961  0  -0.135967  -0.220493  0  3.893257  0
C  C116  1  0.15115688  0.71606578  0.92391634  1  0.2823  0  -0.156843  -0.198605  0  3.996559  0
C  C117  1  0.59820380  0.81330178  0.86312190  1  0.345726  0  -0.150775  -0.196541  0  3.958981  0
C  C118  1  0.78003976  0.62859758  0.14364473  1  0.263009  0  -0.149137  -0.200315  0  3.942355  0
C  C119  1  0.47890687  0.47691493  0.14899144  1  -0.582326  0  -0.042487  -0.033221  0  4.154868  0
C  C120  1  0.14044473  0.46619935  0.11340584  1  0.249416  0  -0.145662  -0.216557  0  3.966907  0
C  C121  1  0.43370279  0.21756041  0.80877169  1  0.264775  0  -0.136385  -0.207453  0  3.859371  0
C  C122  1  0.71172775  0.24469149  0.90476340  1  0.31168  0  -0.150311  -0.193667  0  3.995899  0
C  C123  1  0.33951654  0.86093321  0.27700446  1  0.243693  0  -0.15362  -0.219882  0  3.968835  0
C  C124  1  0.73114638  0.83255711  0.31257174  1  0.310052  0  -0.153209  -0.217907  0  4.021228  0
C  C125  1  0.19646982  0.10707316  0.35073875  1  0.248559  0  -0.150977  -0.195095  0  3.97901  0
C  C126  1  0.73252739  0.14155795  0.29436992  1  0.274763  0  -0.156316  -0.193192  0  3.971485  0
C  C127  1  0.46079019  0.53703482  0.81598324  1  -0.557216  0  -0.021276  0.021406  0  4.061408  0
C  C128  1  0.45790235  0.53917070  0.74202338  1  0.216891  0  -0.061172  -0.257443  0  3.988942  0
C  C129  1  0.42644713  0.91938829  0.41943201  1  0.310285  0  -0.005344  -0.01911  0  3.7795  0
C  C130  1  0.67955749  0.94682437  0.44721294  1  0.324368  0  0.000305  -0.006761  0  3.788307  0
C  C131  1  0.39468000  0.06253252  0.43881783  1  0.797767  0  0.167762  0.384589  0  3.693221  0
N  N132  1  0.91805540  0.50831603  0.53028694  1  -0.947413  0  -0.303025  -0.364055  0  3.307181  0
N  N133  1  0.54210278  0.75392417  0.93264813  1  -1.080966  0  -0.484363  -0.376807  0  3.436583  0
N  N134  1  0.71583177  0.56489595  0.07058519  1  -1.093026  0  -0.48226  -0.372067  0  3.427127  0
N  N135  1  0.23047027  0.43853997  0.04977984  1  -1.137189  0  -0.484882  -0.383185  0  3.437559  0
N  N136  1  0.40759164  0.28954581  0.88355087  1  -1.100972  0  -0.490909  -0.26421  0  3.506742  0
N  N137  1  0.63521984  0.35758589  0.88585406  1  -1.153189  0  -0.492918  -0.384429  0  3.49885  0
N  N138  1  0.45256982  0.89391419  0.33433802  1  -1.056982  0  -0.488097  -0.310408  0  3.426777  0
N  N139  1  0.76882713  0.89309918  0.39092546  1  -1.095071  0  -0.503044  -0.333376  0  3.500861  0
N  N140  1  0.33991359  0.12295935  0.36657567  1  -1.044294  0  -0.489655  -0.391581  0  3.39964  0
N  N141  1  0.62426260  0.13307221  0.34848339  1  -1.093088  0  -0.493865  -0.400465  0  3.405577  0
N  N142  1  0.16586185  0.52524621  0.46595356  1  -1.184006  0  -0.476074  -0.612187  0  3.477989  0
N  N143  1  0.40533409  0.88568569  0.58742074  1  -1.077146  0  -0.481696  -0.368668  0  3.447648  0
N  N144  1  0.63436770  0.87093969  0.62490068  1  -1.151888  0  -0.495949  -0.383199  0  3.519804  0
N  N145  1  0.85176720  0.57869410  0.65950332  1  -1.104587  0  -0.491107  -0.405843  0  3.442707  0
N  N146  1  0.12073459  0.57230814  0.70758019  1  -1.185302  0  -0.39405  -0.210571  0  3.596088  0
N  N147  1  0.86818326  0.35125475  0.62344846  1  -1.088827  0  -0.491138  -0.414213  0  3.412637  0
N  N148  1  0.15432457  0.38722872  0.64292998  1  -1.268933  0  -0.409684  -0.257741  0  3.596257  0
N  N149  1  0.28243448  0.67369056  0.90590999  1  -1.109437  0  -0.495491  -0.38814  0  3.480633  0
O  O150  1  0.44555894  0.67591858  0.46619381  1  -1.185895  0  -0.297956  -0.528942  0  2.449749  0
O  O151  1  0.55460665  0.71373406  0.08755977  1  -1.117348  0  -0.382954  -0.498329  0  2.280591  0
O  O152  1  0.29653367  0.06196387  0.49923715  1  -1.135089  0  -0.399529  -0.540904  0  2.28395  0
O  O153  1  0.77124169  0.15481635  0.46158241  1  -1.121629  0  -0.38251  -0.503879  0  2.354863  0
O  O154  1  0.45532300  0.13460269  0.61804051  1  -1.137787  0  -0.399652  -0.543545  0  2.259893  0
O  O155  1  0.67195956  0.12145703  0.60468992  1  -1.123206  0  -0.36699  -0.499346  0  2.335187  0
O  O156  1  0.91876949  0.73751512  0.53529097  1  -1.146683  0  -0.380788  -0.533035  0  2.363651  0
O  O157  1  0.17857057  0.69512376  0.55542006  1  -1.113165  0  -0.379063  -0.504009  0  2.260263  0
O  O158  1  0.88994765  0.62837487  0.41434443  1  -1.119524  0  -0.381063  -0.552274  0  2.33613  0
O  O159  1  0.12952675  0.74003813  0.42390027  1  -1.08827  0  -0.412433  -0.573823  0  2.1844  0
O  O160  1  0.84446238  0.37076877  0.42060400  1  -1.153163  0  -0.392026  -0.532427  0  2.441968  0
O  O161  1  0.66750249  0.68151849  0.48630460  1  -1.171557  0  -0.302136  -0.550979  0  2.48961  0
O  O162  1  0.03228770  0.46914512  0.34194076  1  -1.045693  0  -0.412781  -0.5179  0  2.13533  0
O  O163  1  0.70470838  0.59819824  0.92298737  1  -1.123639  0  -0.380839  -0.488562  0  2.292831  0
O  O164  1  0.22970082  0.46054843  0.90218756  1  -1.138572  0  -0.384999  -0.498628  0  2.281117  0
O  O165  1  0.41483150  0.26816071  0.03067835  1  -1.183809  0  -0.404128  -0.63516  0  2.131247  0
O  O166  1  0.63492353  0.32014236  0.05237449  1  -1.119995  0  -0.389258  -0.534432  0  2.255872  0
O  O167  1  0.38425756  0.49023052  0.60754092  1  -1.172325  0  -0.301424  -0.543012  0  2.34102  0
O  O168  1  0.57210017  0.60618121  0.63377515  1  -1.175291  0  -0.300334  -0.521554  0  2.231255  0
O  O169  1  0.39782520  0.31792838  0.47775383  1  -1.163762  0  -0.291391  -0.506648  0  2.411815  0
O  O170  1  0.61605844  0.34502958  0.50844854  1  -1.209384  0  -0.332587  -0.60855  0  2.399619  0
O  O171  1  0.39190789  0.46975274  0.34769814  1  -1.153936  0  -0.29764  -0.526531  0  2.249139  0
O  O172  1  0.61541190  0.49695143  0.33970293  1  -1.163706  0  -0.32168  -0.554799  0  2.324532  0
O  O173  1  0.30368633  0.65242832  0.07166820  1  -1.094818  0  -0.358827  -0.477859  0  2.300623  0
