# generated using pymatgen
data_Ca3Tb2H42C42(NO6)6
_symmetry_space_group_name_H-M   'P 1'
_cell_length_a   9.60546324
_cell_length_b   15.40031891
_cell_length_c   23.07014046
_cell_angle_alpha   108.30435561
_cell_angle_beta   90.00043073
_cell_angle_gamma   89.99926389
_symmetry_Int_Tables_number   1
_chemical_formula_structural   Ca3Tb2H42C42(NO6)6
_chemical_formula_sum   'Ca6 Tb4 H84 C84 N12 O72'
_cell_volume   3240.02401076
_cell_formula_units_Z   2
loop_
 _symmetry_equiv_pos_site_id
 _symmetry_equiv_pos_as_xyz
  1  'x, y, z'
loop_
 _atom_site_type_symbol
 _atom_site_label
 _atom_site_symmetry_multiplicity
 _atom_site_fract_x
 _atom_site_fract_y
 _atom_site_fract_z
 _atom_site_occupancy
 _atom_site_pbe_bader_charge
 _atom_site_pbe_bader_spin_density
 _atom_site_pbe_cm5_charge
 _atom_site_pbe_ddec_charge
 _atom_site_pbe_ddec_spin_density
 _atom_site_pbe_ddec_sum_bond_order
 _atom_site_pbe_magmom
Ca  Ca0  1  0.00000112  0.49999126  0.99999847  1  1.6466  0  0.880213  1.426744  0  1.464178  0
Ca  Ca1  1  0.99999681  0.50000312  0.49999792  1  1.646589  0  0.880156  1.426703  0  1.464068  0
Ca  Ca2  1  0.99999916  0.99999612  0.99999664  1  1.658173  0  0.90358  1.452851  0  1.464813  0
Ca  Ca3  1  0.99999948  0.00000630  0.50000329  1  1.658068  0  0.903531  1.452867  0  1.464777  0
Ca  Ca4  1  0.98530039  0.50000576  0.74999985  1  1.65786  0  0.818134  1.399605  0  1.385985  0
Ca  Ca5  1  0.01470918  0.49999513  0.25000083  1  1.657808  0  0.818072  1.399503  0  1.386144  0
Tb  Tb6  1  0.49015011  0.70589405  0.90129540  1  2.128939  0  1.51141  1.837806  0  2.319911  0
Tb  Tb7  1  0.49014966  0.29411003  0.59870479  1  2.128878  0  1.51147  1.837782  0  2.319853  0
Tb  Tb8  1  0.50985009  0.29410204  0.09870860  1  2.128919  0  1.511473  1.837885  0  2.319701  0
Tb  Tb9  1  0.50984638  0.70589497  0.40129545  1  2.128961  0  1.511484  1.837928  0  2.319786  0
H  H10  1  0.65977646  0.41014077  0.96814906  1  0.135236  0  0.118072  0.116329  0  1.043387  0
H  H11  1  0.65978545  0.58986638  0.53185846  1  0.1349  0  0.118082  0.116338  0  1.043304  0
H  H12  1  0.34021125  0.58985464  0.03185176  1  0.135355  0  0.118077  0.116375  0  1.043269  0
H  H13  1  0.34021475  0.41014271  0.46814612  1  0.13528  0  0.118059  0.1163  0  1.04343  0
H  H14  1  0.47328297  0.30068191  0.91304477  1  0.102566  0  0.11229  0.108562  0  0.985866  0
H  H15  1  0.47329016  0.69932309  0.58695650  1  0.102454  0  0.112335  0.108634  0  0.985908  0
H  H16  1  0.52671307  0.69931009  0.08695359  1  0.102709  0  0.112307  0.108668  0  0.985907  0
H  H17  1  0.52670484  0.30068329  0.41304403  1  0.102534  0  0.112327  0.108629  0  0.985873  0
H  H18  1  0.30140404  0.35246244  0.84761470  1  0.092394  0  0.120263  0.12893  0  0.978612  0
H  H19  1  0.30141056  0.64753542  0.65237666  1  0.092567  0  0.120244  0.128876  0  0.97884  0
H  H20  1  0.69860137  0.64753094  0.15238135  1  0.09248  0  0.12026  0.128986  0  0.978585  0
H  H21  1  0.69858236  0.35246618  0.34761983  1  0.092546  0  0.120248  0.128914  0  0.978889  0
H  H22  1  0.64738413  0.02602813  0.07301279  1  0.134372  0  0.116419  0.119619  0  1.04035  0
H  H23  1  0.64740579  0.97398201  0.42699079  1  0.134896  0  0.116366  0.119673  0  1.040388  0
H  H24  1  0.35258068  0.97397685  0.92699136  1  0.134835  0  0.116307  0.119601  0  1.040317  0
H  H25  1  0.35257880  0.02602436  0.57300974  1  0.134766  0  0.116339  0.119633  0  1.040276  0
H  H26  1  0.44595659  0.04093837  0.14644697  1  0.086265  0  0.109693  0.107211  0  1.000789  0
H  H27  1  0.44597822  0.95906641  0.35354885  1  0.086194  0  0.109666  0.107182  0  1.000786  0
H  H28  1  0.55399989  0.95905434  0.85354634  1  0.085778  0  0.109673  0.1072  0  1.000781  0
H  H29  1  0.55400324  0.04094336  0.64645587  1  0.086095  0  0.109672  0.107201  0  1.000736  0
H  H30  1  0.26860338  0.91353389  0.12337409  1  0.110085  0  0.119985  0.125875  0  0.985177  0
H  H31  1  0.26861454  0.08646379  0.37662137  1  0.109882  0  0.11997  0.125803  0  0.985361  0
H  H32  1  0.73136143  0.08645675  0.87662182  1  0.110163  0  0.119945  0.12579  0  0.985354  0
H  H33  1  0.73137213  0.91354394  0.62338205  1  0.1099  0  0.119929  0.12576  0  0.985311  0
H  H34  1  0.88102775  0.34118325  0.91097994  1  0.646645  0  0.29549  0.39371  0  0.941809  0
H  H35  1  0.88104900  0.65881879  0.58901662  1  0.646877  0  0.295532  0.393774  0  0.941724  0
H  H36  1  0.11895163  0.65879916  0.08902074  1  0.644279  0  0.295515  0.393708  0  0.941747  0
H  H37  1  0.11894600  0.34119445  0.41097843  1  0.644278  0  0.29553  0.393626  0  0.941847  0
H  H38  1  0.88947388  0.42111433  0.87878247  1  0.646238  0  0.306884  0.400352  0  0.921608  0
H  H39  1  0.88948805  0.57888897  0.62121261  1  0.646359  0  0.306957  0.400397  0  0.921506  0
H  H40  1  0.11051175  0.57887288  0.12121532  1  0.646129  0  0.306816  0.400246  0  0.921733  0
H  H41  1  0.11050695  0.42112290  0.37878258  1  0.6461  0  0.306843  0.400261  0  0.921725  0
H  H42  1  0.17137266  0.62510568  0.95078969  1  0.648841  0  0.297751  0.3918  0  0.95141  0
H  H43  1  0.17137223  0.37489329  0.54920861  1  0.648876  0  0.297748  0.39176  0  0.95147  0
H  H44  1  0.82863067  0.37488290  0.04920968  1  0.648732  0  0.297701  0.391677  0  0.95158  0
H  H45  1  0.82862797  0.62511787  0.45079121  1  0.648723  0  0.297677  0.391607  0  0.951678  0
H  H46  1  0.12103910  0.53727399  0.89703864  1  0.60383  0  0.315642  0.384304  0  0.951399  0
H  H47  1  0.12103599  0.46272158  0.60295902  1  0.603883  0  0.315702  0.384438  0  0.951228  0
H  H48  1  0.87896215  0.46271391  0.10295929  1  0.603962  0  0.315688  0.384486  0  0.951163  0
H  H49  1  0.87896317  0.53729096  0.39703935  1  0.603985  0  0.315696  0.384474  0  0.951174  0
H  H50  1  0.01973707  0.79620604  0.94487104  1  0.613197  0  0.338286  0.420503  0  0.860072  0
H  H51  1  0.01974290  0.20379988  0.55512072  1  0.613479  0  0.338314  0.420487  0  0.860124  0
H  H52  1  0.98028083  0.20377911  0.05513238  1  0.613465  0  0.338231  0.420429  0  0.860256  0
H  H53  1  0.98025106  0.79621125  0.44488862  1  0.613109  0  0.338257  0.42051  0  0.860151  0
H  H54  1  0.16594398  0.83166435  0.93073630  1  0.646827  0  0.297993  0.393176  0  0.946987  0
H  H55  1  0.16594562  0.16834018  0.56925971  1  0.646759  0  0.297994  0.393205  0  0.946919  0
H  H56  1  0.83405934  0.16833041  0.06925745  1  0.646862  0  0.298029  0.393294  0  0.946797  0
H  H57  1  0.83405042  0.83167301  0.43074746  1  0.646489  0  0.298033  0.393354  0  0.946724  0
H  H58  1  0.09446597  0.96109653  0.87148417  1  0.662493  0  0.292758  0.394249  0  0.943851  0
H  H59  1  0.09448831  0.03891857  0.62851678  1  0.662419  0  0.292635  0.394039  0  0.944134  0
H  H60  1  0.90553111  0.03889961  0.12850727  1  0.66246  0  0.292751  0.394256  0  0.943839  0
H  H61  1  0.90550981  0.96109325  0.37149010  1  0.662538  0  0.292638  0.394095  0  0.944068  0
H  H62  1  0.05708307  0.06678707  0.89077204  1  0.597387  0  0.334785  0.411407  0  0.869441  0
H  H63  1  0.05708877  0.93323057  0.60923861  1  0.59722  0  0.334817  0.411435  0  0.869442  0
H  H64  1  0.94290256  0.93320701  0.10922070  1  0.597385  0  0.334708  0.411372  0  0.869492  0
H  H65  1  0.94290519  0.06678193  0.39076972  1  0.597046  0  0.334777  0.411451  0  0.869377  0
H  H66  1  0.73436148  0.72590529  0.69044193  1  0.10489  0  0.118203  0.127256  0  0.998955  0
H  H67  1  0.73439781  0.27409811  0.80955861  1  0.105678  0  0.118246  0.127314  0  0.99883  0
H  H68  1  0.26565121  0.27407301  0.30956048  1  0.104939  0  0.118286  0.127259  0  0.998815  0
H  H69  1  0.26562634  0.72590075  0.19043817  1  0.105866  0  0.118189  0.127228  0  0.998918  0
H  H70  1  0.57011534  0.84006190  0.66966143  1  0.096226  0  0.102602  0.092567  0  1.047179  0
H  H71  1  0.57014444  0.15994311  0.83033797  1  0.096495  0  0.102656  0.09254  0  1.047074  0
H  H72  1  0.42990569  0.15991437  0.33033318  1  0.096184  0  0.102663  0.092526  0  1.047158  0
H  H73  1  0.42987346  0.84006052  0.16966242  1  0.096265  0  0.102669  0.092685  0  1.047025  0
H  H74  1  0.79126161  0.56312019  0.84644555  1  0.646453  0  0.299015  0.384061  0  0.960627  0
H  H75  1  0.79126627  0.43689131  0.65355445  1  0.646493  0  0.299101  0.384086  0  0.960579  0
H  H76  1  0.20875525  0.43686633  0.15355642  1  0.646545  0  0.298955  0.384009  0  0.960708  0
H  H77  1  0.20874330  0.56312122  0.34644566  1  0.646312  0  0.299023  0.38408  0  0.96061  0
H  H78  1  0.92988457  0.57653592  0.88513703  1  0.623143  0  0.312144  0.386803  0  0.936751  0
H  H79  1  0.92987929  0.42346884  0.61486480  1  0.6232  0  0.312156  0.386853  0  0.936742  0
H  H80  1  0.07012813  0.42344991  0.11486523  1  0.623283  0  0.312014  0.386735  0  0.936875  0
H  H81  1  0.07012299  0.57654233  0.38513285  1  0.623287  0  0.312132  0.38678  0  0.936891  0
H  H82  1  0.17092387  0.64993644  0.81416979  1  0.626545  0  0.294799  0.381471  0  0.963262  0
H  H83  1  0.17092986  0.35007555  0.68582736  1  0.627034  0  0.294783  0.381415  0  0.963325  0
H  H84  1  0.82907946  0.35006717  0.18583580  1  0.626498  0  0.294804  0.381476  0  0.963247  0
H  H85  1  0.82907243  0.64992810  0.31416826  1  0.62645  0  0.294762  0.381433  0  0.963318  0
H  H86  1  0.05694317  0.70990984  0.79414843  1  0.630806  0  0.32474  0.407272  0  0.88168  0
H  H87  1  0.05694446  0.29009897  0.70584215  1  0.630881  0  0.324676  0.407127  0  0.881779  0
H  H88  1  0.94306120  0.29010058  0.20586553  1  0.631367  0  0.32476  0.407411  0  0.881428  0
H  H89  1  0.94305679  0.70990127  0.29415058  1  0.630968  0  0.32461  0.407037  0  0.881783  0
H  H90  1  0.35697538  0.88831481  0.73663861  1  0.099801  0  0.113272  0.124059  0  0.989285  0
H  H91  1  0.35697909  0.11169387  0.76336275  1  0.099945  0  0.113353  0.124201  0  0.98922  0
H  H92  1  0.64304252  0.11166559  0.26335210  1  0.098862  0  0.113188  0.123969  0  0.989253  0
H  H93  1  0.64301904  0.88831111  0.23664312  1  0.099385  0  0.113315  0.124154  0  0.989231  0
C  C94  1  0.58695406  0.51703598  0.93409001  1  0.542691  0  0.123986  0.116043  0  3.965513  0
C  C95  1  0.58695532  0.48297152  0.56591509  1  0.542857  0  0.12401  0.116043  0  3.965575  0
C  C96  1  0.41304198  0.48295738  0.06591211  1  0.542217  0  0.124046  0.116187  0  3.96546  0
C  C97  1  0.41303864  0.51703349  0.43408472  1  0.542787  0  0.124001  0.115972  0  3.965559  0
C  C98  1  0.58476005  0.42886285  0.93881886  1  -0.079271  0  -0.066777  -0.124495  0  3.909155  0
C  C99  1  0.58476432  0.57114878  0.56118712  1  -0.079825  0  -0.066768  -0.12442  0  3.908784  0
C  C100  1  0.41523807  0.57112983  0.06118052  1  -0.079535  0  -0.066908  -0.124676  0  3.909245  0
C  C101  1  0.41524317  0.42886305  0.43881934  1  -0.079351  0  -0.066731  -0.124359  0  3.909071  0
C  C102  1  0.48145180  0.36841523  0.90784444  1  -0.032354  0  -0.05953  -0.013561  0  3.930554  0
C  C103  1  0.48144537  0.63158967  0.59215247  1  -0.026842  0  -0.059537  -0.013677  0  3.930696  0
C  C104  1  0.51855673  0.63157473  0.09215177  1  -0.032804  0  -0.059553  -0.013731  0  3.930854  0
C  C105  1  0.51854963  0.36841603  0.40784445  1  -0.032392  0  -0.05959  -0.013731  0  3.930703  0
C  C106  1  0.38557832  0.39639370  0.87184477  1  0.016325  0  -0.058701  -0.103881  0  3.892327  0
C  C107  1  0.38558422  0.60360775  0.62815069  1  0.01122  0  -0.058743  -0.103809  0  3.892777  0
C  C108  1  0.61442917  0.60359557  0.12815085  1  0.016456  0  -0.058584  -0.103789  0  3.892555  0
C  C109  1  0.61442223  0.39639998  0.37185143  1  0.016432  0  -0.058716  -0.10383  0  3.892845  0
C  C110  1  0.39688696  0.48499858  0.86858896  1  0.487453  0  0.120999  0.113942  0  3.973652  0
C  C111  1  0.39689291  0.51500886  0.63141208  1  0.486995  0  0.120986  0.1139  0  3.973718  0
C  C112  1  0.60311116  0.51499478  0.13141359  1  0.487959  0  0.120878  0.113753  0  3.974044  0
C  C113  1  0.60310938  0.48500025  0.36858946  1  0.486995  0  0.120996  0.113812  0  3.973913  0
C  C114  1  0.68744622  0.59125279  0.96886458  1  1.624676  0  0.22323  0.583167  0  4.245862  0
C  C115  1  0.68743629  0.40874853  0.53113559  1  1.624732  0  0.223076  0.582903  0  4.246456  0
C  C116  1  0.31254774  0.40873989  0.03113696  1  1.6247  0  0.223236  0.583023  0  4.245342  0
C  C117  1  0.31256183  0.59125920  0.46886696  1  1.624796  0  0.22315  0.582879  0  4.245818  0
C  C118  1  0.29590281  0.52522632  0.83395492  1  1.601849  0  0.229696  0.561938  0  4.201325  0
C  C119  1  0.29590867  0.47478117  0.66604498  1  1.601923  0  0.229611  0.561719  0  4.201385  0
C  C120  1  0.70410572  0.47477048  0.16604359  1  1.601066  0  0.22977  0.562003  0  4.201633  0
C  C121  1  0.70409154  0.52522384  0.33395266  1  1.601921  0  0.229738  0.562074  0  4.201276  0
C  C122  1  0.57156813  0.89898348  0.01255256  1  0.49466  0  0.1232  0.115202  0  3.96793  0
C  C123  1  0.57155602  0.10102092  0.48744039  1  0.495009  0  0.123043  0.115099  0  3.967967  0
C  C124  1  0.42843832  0.10102360  0.98744119  1  0.495253  0  0.123045  0.115148  0  3.968035  0
C  C125  1  0.42843898  0.89897860  0.51256000  1  0.495216  0  0.123034  0.115092  0  3.968108  0
C  C126  1  0.56721828  0.97388715  0.06570324  1  -0.04336  0  -0.069225  -0.127001  0  3.911131  0
C  C127  1  0.56721706  0.02610771  0.43429637  1  -0.043158  0  -0.069156  -0.127089  0  3.911376  0
C  C128  1  0.43276943  0.02610964  0.93429744  1  -0.043607  0  -0.069151  -0.127167  0  3.911622  0
C  C129  1  0.43276648  0.97389182  0.56570315  1  -0.043701  0  -0.069152  -0.127093  0  3.911708  0
C  C130  1  0.45645302  0.98107749  0.10611539  1  -0.02032  0  -0.060728  -0.015672  0  3.926422  0
C  C131  1  0.45647400  0.01892646  0.39388068  1  -0.02088  0  -0.060604  -0.015515  0  3.926163  0
C  C132  1  0.54350242  0.01891933  0.89387750  1  -0.020638  0  -0.060578  -0.015429  0  3.926131  0
C  C133  1  0.54350330  0.98108127  0.60612101  1  -0.020927  0  -0.060633  -0.015619  0  3.926199  0
C  C134  1  0.35765205  0.91124785  0.09369068  1  0.017122  0  -0.06367  -0.120417  0  3.922192  0
C  C135  1  0.35764578  0.08874651  0.40631131  1  0.017099  0  -0.063707  -0.120372  0  3.922085  0
C  C136  1  0.64232733  0.08874278  0.90631000  1  0.028018  0  -0.0636  -0.120194  0  3.921883  0
C  C137  1  0.64233881  0.91125986  0.59368965  1  0.017921  0  -0.063589  -0.120124  0  3.921902  0
C  C138  1  0.37345060  0.83650505  0.04087479  1  0.4975  0  0.124428  0.117978  0  3.978742  0
C  C139  1  0.37344904  0.16349389  0.45912424  1  0.497817  0  0.124426  0.118063  0  3.978671  0
C  C140  1  0.62654128  0.16348764  0.95912242  1  0.486574  0  0.124377  0.117709  0  3.979207  0
C  C141  1  0.62654805  0.83651247  0.54087976  1  0.496584  0  0.124392  0.117828  0  3.978891  0
C  C142  1  0.68105337  0.88731455  0.96344158  1  1.629203  0  0.22901  0.596575  0  4.225972  0
C  C143  1  0.68103851  0.11268753  0.53656396  1  1.628499  0  0.229089  0.596602  0  4.225777  0
C  C144  1  0.31894372  0.11268497  0.03656097  1  1.629024  0  0.228931  0.596285  0  4.225896  0
C  C145  1  0.31895753  0.88731884  0.46343830  1  1.628917  0  0.229024  0.59658  0  4.225834  0
C  C146  1  0.28113137  0.75321348  0.02593284  1  1.576879  0  0.22284  0.558734  0  4.23146  0
C  C147  1  0.28113063  0.24678266  0.47406444  1  1.576845  0  0.222875  0.558734  0  4.231127  0
C  C148  1  0.71884801  0.24677511  0.97406351  1  1.57672  0  0.222966  0.559061  0  4.231536  0
C  C149  1  0.71886749  0.75322439  0.52593970  1  1.577098  0  0.223054  0.559213  0  4.230827  0
C  C150  1  0.61404735  0.71711676  0.76708871  1  0.543256  0  0.129  0.127755  0  3.947319  0
C  C151  1  0.61407180  0.28289244  0.73290890  1  0.543011  0  0.129137  0.128197  0  3.946956  0
C  C152  1  0.38597263  0.28287112  0.23291312  1  0.543287  0  0.128688  0.127408  0  3.947106  0
C  C153  1  0.38595235  0.71711120  0.26708932  1  0.543426  0  0.129107  0.127749  0  3.947366  0
C  C154  1  0.64267875  0.75028493  0.71858759  1  0.005747  0  -0.062053  -0.111915  0  3.901148  0
C  C155  1  0.64270469  0.24971909  0.78140888  1  0.004906  0  -0.062064  -0.112137  0  3.900857  0
C  C156  1  0.35733603  0.24969954  0.28141265  1  0.006116  0  -0.061982  -0.111814  0  3.9009  0
C  C157  1  0.35731008  0.75028319  0.21858862  1  0.004587  0  -0.062002  -0.111745  0  3.901154  0
C  C158  1  0.55077837  0.81328125  0.70733025  1  -0.087081  0  -0.066438  -0.028825  0  3.968945  0
C  C159  1  0.55079301  0.18671654  0.79266158  1  -0.08744  0  -0.066464  -0.028709  0  3.968576  0
C  C160  1  0.44924577  0.18670049  0.29266725  1  -0.087422  0  -0.066565  -0.028771  0  3.968859  0
C  C161  1  0.44922073  0.81327480  0.20733057  1  -0.087416  0  -0.066514  -0.029039  0  3.968817  0
C  C162  1  0.43313663  0.84039015  0.74396815  1  -0.005878  0  -0.071234  -0.131641  0  3.934202  0
C  C163  1  0.43314574  0.15961202  0.75602479  1  -0.005443  0  -0.071388  -0.131919  0  3.934261  0
C  C164  1  0.56688023  0.15959434  0.25602603  1  -0.005162  0  -0.071151  -0.131573  0  3.934177  0
C  C165  1  0.56685551  0.84038957  0.24397474  1  -0.005024  0  -0.071351  -0.131825  0  3.934104  0
C  C166  1  0.41414143  0.80538348  0.79244427  1  0.495792  0  0.119352  0.111152  0  3.990271  0
C  C167  1  0.41415110  0.19462989  0.70755323  1  0.496382  0  0.119386  0.111375  0  3.990464  0
C  C168  1  0.58587439  0.19459827  0.20754977  1  0.496109  0  0.119538  0.111442  0  3.990186  0
C  C169  1  0.58585848  0.80538331  0.29245048  1  0.496195  0  0.119387  0.11139  0  3.990219  0
C  C170  1  0.70350966  0.64661747  0.78240749  1  1.624321  0  0.234434  0.580242  0  4.184358  0
C  C171  1  0.70353059  0.35337817  0.71758669  1  1.624328  0  0.234372  0.580117  0  4.1846  0
C  C172  1  0.29649575  0.35337039  0.21759910  1  1.624278  0  0.234498  0.580202  0  4.184669  0
C  C173  1  0.29647690  0.64662136  0.28241197  1  1.624314  0  0.234315  0.580087  0  4.184404  0
C  C174  1  0.29597307  0.83518053  0.83754187  1  1.586997  0  0.21753  0.548021  0  4.239772  0
C  C175  1  0.29597374  0.16483653  0.66246136  1  1.586452  0  0.217441  0.547854  0  4.240539  0
C  C176  1  0.70403025  0.16480738  0.16245260  1  1.58674  0  0.217501  0.547905  0  4.239818  0
C  C177  1  0.70402646  0.83517804  0.33754481  1  1.586782  0  0.217464  0.547758  0  4.240108  0
N  N178  1  0.49401333  0.54368858  0.89990051  1  -1.23709  0  -0.391093  -0.350415  0  3.551839  0
N  N179  1  0.49401433  0.45631476  0.60009995  1  -1.236653  0  -0.39104  -0.350249  0  3.551801  0
N  N180  1  0.50598687  0.45630273  0.10010075  1  -1.237367  0  -0.391121  -0.350406  0  3.551964  0
N  N181  1  0.50599212  0.54369296  0.39990390  1  -1.23693  0  -0.391054  -0.350245  0  3.55197  0
N  N182  1  0.47572276  0.83254150  0.00063040  1  -1.236083  0  -0.383891  -0.349685  0  3.542493  0
N  N183  1  0.47571776  0.16746627  0.49937078  1  -1.236297  0  -0.383859  -0.349706  0  3.54259  0
N  N184  1  0.52428265  0.16746008  0.99937086  1  -1.236037  0  -0.383923  -0.349603  0  3.542751  0
N  N185  1  0.52428556  0.83254283  0.50063207  1  -1.235739  0  -0.383896  -0.34966  0  3.54267  0
N  N186  1  0.50363898  0.74592148  0.80362395  1  -1.237194  0  -0.374356  -0.334835  0  3.524185  0
N  N187  1  0.50365376  0.25409062  0.69637619  1  -1.23754  0  -0.374417  -0.335145  0  3.524159  0
N  N188  1  0.49637788  0.25406641  0.19637485  1  -1.2372  0  -0.374322  -0.334836  0  3.523605  0
N  N189  1  0.49635789  0.74591985  0.30362651  1  -1.237332  0  -0.3744  -0.33494  0  3.524115  0
O  O190  1  0.65948667  0.67147362  0.96742437  1  -1.172928  0  -0.385956  -0.62818  0  2.245024  0
O  O191  1  0.65947870  0.32852877  0.53257824  1  -1.172877  0  -0.38599  -0.628135  0  2.245214  0
O  O192  1  0.34052499  0.32852178  0.03258035  1  -1.172964  0  -0.386011  -0.628171  0  2.244757  0
O  O193  1  0.34052463  0.67147897  0.46742215  1  -1.173007  0  -0.386014  -0.62809  0  2.24477  0
O  O194  1  0.78750044  0.56939767  0.99673819  1  -1.229695  0  -0.374996  -0.625118  0  2.229658  0
O  O195  1  0.78748902  0.43060635  0.50326414  1  -1.22973  0  -0.374881  -0.624963  0  2.229824  0
O  O196  1  0.21250184  0.43059845  0.00325845  1  -1.229089  0  -0.374955  -0.624988  0  2.229449  0
O  O197  1  0.21250910  0.56939933  0.49673755  1  -1.229772  0  -0.374897  -0.624961  0  2.229721  0
O  O198  1  0.32511281  0.60579974  0.83238713  1  -1.183029  0  -0.363771  -0.617075  0  2.310803  0
O  O199  1  0.32511335  0.39420802  0.66761236  1  -1.18285  0  -0.363668  -0.616915  0  2.310868  0
O  O200  1  0.67489156  0.39419910  0.16761225  1  -1.182823  0  -0.363804  -0.617143  0  2.310936  0
O  O201  1  0.67489727  0.60580176  0.33239020  1  -1.183064  0  -0.363744  -0.617144  0  2.310946  0
O  O202  1  0.18664392  0.48096039  0.81301527  1  -1.193896  0  -0.325274  -0.572638  0  2.193559  0
O  O203  1  0.18664400  0.51904247  0.68698296  1  -1.19392  0  -0.325312  -0.57263  0  2.193573  0
O  O204  1  0.81336461  0.51903366  0.18698440  1  -1.193444  0  -0.325254  -0.572588  0  2.193671  0
O  O205  1  0.81335829  0.48096389  0.31301800  1  -1.193865  0  -0.325335  -0.572721  0  2.193513  0
O  O206  1  0.65940552  0.82387010  0.91353999  1  -1.175838  0  -0.381712  -0.621868  0  2.254591  0
O  O207  1  0.65940265  0.17614254  0.58646652  1  -1.175796  0  -0.381682  -0.621718  0  2.254554  0
O  O208  1  0.34060093  0.17613557  0.08646473  1  -1.175778  0  -0.381688  -0.621661  0  2.254456  0
O  O209  1  0.34059547  0.82386451  0.41353546  1  -1.17573  0  -0.381643  -0.621733  0  2.254577  0
O  O210  1  0.78293078  0.94159142  0.97527163  1  -1.225603  0  -0.383603  -0.632732  0  2.234847  0
O  O211  1  0.78292118  0.05841607  0.52473490  1  -1.225278  0  -0.383645  -0.632864  0  2.235037  0
O  O212  1  0.21706214  0.05841358  0.02472905  1  -1.225633  0  -0.383491  -0.632611  0  2.23502  0
O  O213  1  0.21706966  0.94158689  0.47526448  1  -1.225425  0  -0.383568  -0.632799  0  2.234925  0
O  O214  1  0.30144563  0.69430240  0.97249942  1  -1.191065  0  -0.360166  -0.638094  0  2.32084  0
O  O215  1  0.30144184  0.30570504  0.52749310  1  -1.191114  0  -0.360124  -0.638061  0  2.320635  0
O  O216  1  0.69854208  0.30568619  0.02749606  1  -1.191324  0  -0.360121  -0.638176  0  2.320942  0
O  O217  1  0.69853442  0.69431502  0.47250816  1  -1.1914  0  -0.3602  -0.638313  0  2.320935  0
O  O218  1  0.19865737  0.74523962  0.06594073  1  -1.177999  0  -0.304693  -0.536124  0  2.142056  0
O  O219  1  0.19865683  0.25475425  0.43405446  1  -1.177874  0  -0.304762  -0.536191  0  2.141878  0
O  O220  1  0.80131889  0.25474282  0.93405171  1  -1.177623  0  -0.304794  -0.536304  0  2.142081  0
O  O221  1  0.80134962  0.74526441  0.56595344  1  -1.177782  0  -0.304814  -0.53638  0  2.141575  0
O  O222  1  0.66642883  0.62678171  0.83039677  1  -1.182984  0  -0.366809  -0.621205  0  2.328988  0
O  O223  1  0.66643489  0.37322469  0.66960277  1  -1.183151  0  -0.366846  -0.621207  0  2.328839  0
O  O224  1  0.33357242  0.37321571  0.16961531  1  -1.18301  0  -0.366782  -0.621102  0  2.329202  0
O  O225  1  0.33357781  0.62678372  0.33039950  1  -1.183089  0  -0.366846  -0.62119  0  2.32895  0
O  O226  1  0.80380408  0.61243536  0.74825470  1  -1.184126  0  -0.325446  -0.549624  0  2.189192  0
O  O227  1  0.80381994  0.38756571  0.75174005  1  -1.18442  0  -0.325463  -0.54964  0  2.189237  0
O  O228  1  0.19620029  0.38756415  0.25174829  1  -1.184174  0  -0.325467  -0.549589  0  2.189192  0
O  O229  1  0.19619484  0.61243179  0.24825081  1  -1.184224  0  -0.325378  -0.549532  0  2.189137  0
O  O230  1  0.30618411  0.80977256  0.88556942  1  -1.181667  0  -0.352447  -0.624527  0  2.321891  0
O  O231  1  0.30617610  0.19023478  0.61443174  1  -1.181585  0  -0.35239  -0.62445  0  2.322051  0
O  O232  1  0.69382651  0.19022150  0.11442808  1  -1.181445  0  -0.352523  -0.624548  0  2.321781  0
O  O233  1  0.69382203  0.80977841  0.38557544  1  -1.181679  0  -0.35242  -0.624439  0  2.321955  0
O  O234  1  0.20044359  0.88278979  0.82586617  1  -1.179129  0  -0.31245  -0.545083  0  2.149169  0
O  O235  1  0.20044321  0.11722587  0.67413474  1  -1.178854  0  -0.312403  -0.545012  0  2.149685  0
O  O236  1  0.79957536  0.11720702  0.17412801  1  -1.179114  0  -0.312418  -0.545086  0  2.149062  0
O  O237  1  0.79955908  0.88278664  0.32587099  1  -1.179054  0  -0.3124  -0.544976  0  2.149171  0
O  O238  1  0.93807301  0.39139586  0.90511004  1  -1.303047  0  -0.63198  -0.827355  0  1.943166  0
O  O239  1  0.93809297  0.60860402  0.59488468  1  -1.303444  0  -0.632125  -0.827499  0  1.943221  0
O  O240  1  0.06189804  0.60858793  0.09488920  1  -1.300678  0  -0.631927  -0.827294  0  1.943269  0
O  O241  1  0.06189370  0.39140648  0.40510762  1  -1.300591  0  -0.631955  -0.827197  0  1.943351  0
O  O242  1  0.09236962  0.57987344  0.93661559  1  -1.27098  0  -0.619848  -0.807525  0  2.023256  0
O  O243  1  0.09236519  0.42012390  0.56338248  1  -1.271136  0  -0.619926  -0.807632  0  2.023188  0
O  O244  1  0.90763267  0.42011445  0.06338277  1  -1.27099  0  -0.61985  -0.80752  0  2.023164  0
O  O245  1  0.90763085  0.57988659  0.43661675  1  -1.270988  0  -0.61985  -0.807458  0  2.023237  0
O  O246  1  0.08358724  0.84755793  0.95898374  1  -1.264627  0  -0.616051  -0.813317  0  1.951921  0
O  O247  1  0.08359090  0.15244570  0.54101177  1  -1.264835  0  -0.61606  -0.81329  0  1.951981  0
O  O248  1  0.91641505  0.15243888  0.04101130  1  -1.26493  0  -0.616009  -0.813339  0  1.952015  0
O  O249  1  0.91640410  0.84756748  0.45899800  1  -1.264231  0  -0.616046  -0.813472  0  1.951837  0
O  O250  1  0.03561766  0.01054347  0.89946066  1  -1.264617  0  -0.614048  -0.824248  0  1.93855  0
O  O251  1  0.03564943  0.98946768  0.60053565  1  -1.264267  0  -0.61396  -0.82408  0  1.938839  0
O  O252  1  0.96437838  0.98944993  0.10053193  1  -1.264599  0  -0.613978  -0.824235  0  1.938615  0
O  O253  1  0.96435077  0.01054415  0.39946907  1  -1.264237  0  -0.613937  -0.824167  0  1.938619  0
O  O254  1  0.87759302  0.53078098  0.85330556  1  -1.281479  0  -0.595987  -0.799615  0  2.074408  0
O  O255  1  0.87759286  0.46923137  0.64669362  1  -1.281409  0  -0.596079  -0.799744  0  2.074443  0
O  O256  1  0.12242592  0.46920760  0.14669252  1  -1.281691  0  -0.595786  -0.799521  0  2.074414  0
O  O257  1  0.12241464  0.53078117  0.35330561  1  -1.281496  0  -0.595971  -0.799626  0  2.074638  0
O  O258  1  0.06973438  0.65623178  0.80709529  1  -1.267508  0  -0.608229  -0.810985  0  2.011308  0
O  O259  1  0.06974181  0.34378162  0.69290101  1  -1.26812  0  -0.608161  -0.810792  0  2.011478  0
O  O260  1  0.93027207  0.34377047  0.19290870  1  -1.268033  0  -0.608243  -0.811141  0  2.011091  0
O  O261  1  0.93026360  0.65621998  0.30709375  1  -1.267597  0  -0.60807  -0.810714  0  2.011477  0
