# generated using pymatgen
data_Sn2H25C8S2NO5
_symmetry_space_group_name_H-M   'P 1'
_cell_length_a   8.17188612
_cell_length_b   8.56398758
_cell_length_c   13.22801324
_cell_angle_alpha   81.27789463
_cell_angle_beta   73.43619952
_cell_angle_gamma   77.84724773
_symmetry_Int_Tables_number   1
_chemical_formula_structural   Sn2H25C8S2NO5
_chemical_formula_sum   'Sn4 H50 C16 S4 N2 O10'
_cell_volume   863.29000480
_cell_formula_units_Z   2
loop_
 _symmetry_equiv_pos_site_id
 _symmetry_equiv_pos_as_xyz
  1  'x, y, z'
loop_
 _atom_site_type_symbol
 _atom_site_label
 _atom_site_symmetry_multiplicity
 _atom_site_fract_x
 _atom_site_fract_y
 _atom_site_fract_z
 _atom_site_occupancy
 _atom_site_hle17_bader_spin_density
 _atom_site_hle17_ddec_charge
 _atom_site_hle17_ddec_spin_density
 _atom_site_hle17_ddec_sum_bond_order
 _atom_site_hle17_magmom
 _atom_site_hse06_10hf_bader_spin_density
 _atom_site_hse06_10hf_ddec_charge
 _atom_site_hse06_10hf_ddec_spin_density
 _atom_site_hse06_10hf_ddec_sum_bond_order
 _atom_site_hse06_10hf_magmom
 _atom_site_hse06_bader_spin_density
 _atom_site_hse06_ddec_charge
 _atom_site_hse06_ddec_spin_density
 _atom_site_hse06_ddec_sum_bond_order
 _atom_site_hse06_magmom
 _atom_site_pbe_bader_spin_density
 _atom_site_pbe_cm5_charge
 _atom_site_pbe_ddec_charge
 _atom_site_pbe_ddec_spin_density
 _atom_site_pbe_ddec_sum_bond_order
 _atom_site_pbe_magmom
Sn  Sn0  1  0.55447658  0.85968883  0.23082078  1  0  1.376161  0  2.848751  0  0  1.24836  0  3.332397  0  0  1.282507  0  3.319407  0  0  0.522013  1.224866  0  3.341093  0
Sn  Sn1  1  0.44549080  0.14029873  0.76919397  1  0  1.37591  0  2.84904  0  0  1.247999  0  3.33289  0  0  1.282145  0  3.319895  0  0  0.521933  1.224503  0  3.341589  0
Sn  Sn2  1  0.21320367  0.57072517  0.27673271  1  0  1.394539  0  2.864795  0  0  1.26949  0  3.345613  0  0  1.30383  0  3.331917  0  0  0.522041  1.245894  0  3.354766  0
Sn  Sn3  1  0.78679282  0.42927157  0.72327088  1  0  1.394451  0  2.864717  0  0  1.269483  0  3.345421  0  0  1.30383  0  3.331715  0  0  0.522018  1.245883  0  3.354586  0
H  H4  1  0.20743897  0.88350356  0.27284962  1  0  0.396563  0  0.923171  0  0  0.360276  0  0.997543  0  0  0.370576  0  0.982883  0  0  0.284834  0.353047  0  1.007801  0
H  H5  1  0.79251983  0.11650463  0.72715489  1  0  0.396513  0  0.923185  0  0  0.360208  0  0.997598  0  0  0.370504  0  0.982946  0  0  0.284834  0.352977  0  1.007859  0
H  H6  1  0.83748770  0.32109779  0.47998784  1  0  0.150914  0  0.953715  0  0  0.171312  0  1.009731  0  0  0.173726  0  1.00904  0  0  0.109046  0.169552  0  1.010311  0
H  H7  1  0.16252977  0.67890349  0.52000565  1  0  0.150866  0  0.953701  0  0  0.171311  0  1.009682  0  0  0.173726  0  1.008989  0  0  0.109062  0.169549  0  1.010264  0
H  H8  1  0.73246037  0.26074093  0.39270315  1  0  0.173634  0  0.948988  0  0  0.188027  0  1.007426  0  0  0.191376  0  1.00602  0  0  0.111308  0.185614  0  1.0085  0
H  H9  1  0.26756475  0.73925304  0.60728969  1  0  0.173574  0  0.948975  0  0  0.18795  0  1.00744  0  0  0.191298  0  1.006034  0  0  0.111235  0.185533  0  1.008518  0
H  H10  1  0.81198015  0.11521480  0.49016298  1  0  0.183268  0  0.949078  0  0  0.196168  0  1.008643  0  0  0.199992  0  1.006601  0  0  0.113369  0.193428  0  1.01016  0
H  H11  1  0.18803753  0.88478528  0.50982983  1  0  0.183295  0  0.949072  0  0  0.19617  0  1.00868  0  0  0.199993  0  1.006642  0  0  0.113336  0.193425  0  1.010205  0
H  H12  1  0.97471870  0.19015683  0.01319860  1  0  0.163896  0  0.943283  0  0  0.180742  0  1.001518  0  0  0.183956  0  0.999757  0  0  0.110093  0.178425  0  1.00283  0
H  H13  1  0.02527788  0.80984719  0.98679750  1  0  0.163785  0  0.943033  0  0  0.180659  0  1.001264  0  0  0.183875  0  0.999499  0  0  0.110062  0.178341  0  1.00258  0
H  H14  1  0.06822479  0.28281963  0.09271973  1  0  0.171326  0  0.934212  0  0  0.188101  0  0.990177  0  0  0.191254  0  0.988957  0  0  0.112825  0.185828  0  0.991105  0
H  H15  1  0.93177610  0.71718915  0.90727216  1  0  0.171314  0  0.934047  0  0  0.188078  0  0.990067  0  0  0.191234  0  0.988845  0  0  0.112788  0.185799  0  0.991003  0
H  H16  1  0.16791943  0.08717020  0.04889293  1  0  0.157091  0  0.940931  0  0  0.177104  0  0.994886  0  0  0.179688  0  0.994127  0  0  0.109025  0.17521  0  0.995558  0
H  H17  1  0.83207606  0.91283262  0.95110422  1  0  0.15707  0  0.940894  0  0  0.177108  0  0.99483  0  0  0.179688  0  0.994078  0  0  0.109035  0.175217  0  0.995492  0
H  H18  1  0.70554695  0.54292515  0.22645162  1  0  0.166915  0  0.988028  0  0  0.185032  0  1.042753  0  0  0.187977  0  1.043097  0  0  0.089926  0.182929  0  1.042555  0
H  H19  1  0.29443694  0.45707768  0.77355963  1  0  0.166873  0  0.987983  0  0  0.184975  0  1.042745  0  0  0.187921  0  1.043087  0  0  0.089858  0.182872  0  1.042549  0
H  H20  1  0.63688187  0.60962787  0.10838673  1  0  0.15264  0  0.99561  0  0  0.172319  0  1.050759  0  0  0.17442  0  1.052356  0  0  0.085648  0.170811  0  1.049685  0
H  H21  1  0.36310437  0.39036902  0.89161937  1  0  0.152639  0  0.995661  0  0  0.172305  0  1.050802  0  0  0.174405  0  1.052396  0  0  0.085629  0.170795  0  1.049733  0
H  H22  1  0.83031758  0.66051306  0.12217597  1  0  0.156039  0  1.007757  0  0  0.176467  0  1.06186  0  0  0.178719  0  1.06302  0  0  0.085459  0.17483  0  1.061126  0
H  H23  1  0.16965769  0.33951738  0.87783802  1  0  0.155986  0  1.007866  0  0  0.176412  0  1.061967  0  0  0.178664  0  1.063127  0  0  0.085441  0.174773  0  1.061233  0
H  H24  1  0.41889888  0.16536651  0.17673782  1  0  0.164512  0  0.988271  0  0  0.182335  0  1.045088  0  0  0.185303  0  1.045365  0  0  0.089918  0.180187  0  1.044982  0
H  H25  1  0.58107185  0.83463197  0.82326173  1  0  0.164499  0  0.988097  0  0  0.182315  0  1.044926  0  0  0.185284  0  1.045198  0  0  0.089902  0.180165  0  1.044827  0
H  H26  1  0.61527426  0.10910719  0.07807889  1  0  0.150785  0  1.003789  0  0  0.168222  0  1.062085  0  0  0.171024  0  1.062197  0  0  0.082874  0.166186  0  1.062095  0
H  H27  1  0.38472145  0.89086442  0.92192788  1  0  0.150759  0  1.003865  0  0  0.168213  0  1.062141  0  0  0.171015  0  1.062253  0  0  0.082878  0.166179  0  1.062149  0
H  H28  1  0.42052924  0.04360636  0.07753476  1  0  0.141197  0  1.02394  0  0  0.160284  0  1.081916  0  0  0.162205  0  1.083461  0  0  0.079616  0.15887  0  1.080935  0
H  H29  1  0.57945991  0.95636665  0.92246622  1  0  0.141128  0  1.024046  0  0  0.160279  0  1.081952  0  0  0.162201  0  1.083494  0  0  0.079656  0.158866  0  1.080968  0
H  H30  1  0.45089214  0.99272170  0.41387080  1  0  0.173409  0  0.995329  0  0  0.191246  0  1.048443  0  0  0.194084  0  1.049174  0  0  0.090991  0.189235  0  1.047961  0
H  H31  1  0.54912392  0.00727930  0.58614261  1  0  0.173437  0  0.995307  0  0  0.19125  0  1.04845  0  0  0.194089  0  1.049181  0  0  0.09099  0.189237  0  1.047971  0
H  H32  1  0.54017136  0.78510149  0.43936945  1  0  0.151548  0  0.993425  0  0  0.172471  0  1.046193  0  0  0.174462  0  1.047861  0  0  0.084813  0.17104  0  1.045079  0
H  H33  1  0.45983906  0.21491761  0.56063951  1  0  0.151605  0  0.993421  0  0  0.172514  0  1.046204  0  0  0.174505  0  1.047874  0  0  0.084836  0.17108  0  1.045095  0
H  H34  1  0.68143730  0.92745906  0.38459272  1  0  0.163083  0  0.998272  0  0  0.178936  0  1.057916  0  0  0.181518  0  1.058705  0  0  0.087412  0.177054  0  1.057463  0
H  H35  1  0.31856507  0.07254140  0.61539438  1  0  0.163135  0  0.998119  0  0  0.178973  0  1.05777  0  0  0.181555  0  1.058561  0  0  0.087419  0.177092  0  1.057316  0
H  H36  1  0.86841434  0.67450246  0.32214854  1  0  0.152708  0  1.011815  0  0  0.17404  0  1.06605  0  0  0.175994  0  1.067929  0  0  0.087933  0.172609  0  1.064829  0
H  H37  1  0.13158498  0.32548608  0.67784018  1  0  0.152591  0  1.011915  0  0  0.173917  0  1.066188  0  0  0.175867  0  1.068077  0  0  0.087917  0.172494  0  1.064951  0
H  H38  1  0.92089250  0.55513143  0.43504308  1  0  0.138717  0  1.021097  0  0  0.158662  0  1.079015  0  0  0.160301  0  1.081063  0  0  0.081197  0.157453  0  1.077674  0
H  H39  1  0.07910089  0.44487623  0.56495323  1  0  0.138784  0  1.021256  0  0  0.158763  0  1.079133  0  0  0.160408  0  1.081175  0  0  0.081266  0.157553  0  1.077792  0
H  H40  1  0.95274422  0.75955554  0.40730577  1  0  0.164597  0  0.99899  0  0  0.179277  0  1.06083  0  0  0.18219  0  1.061152  0  0  0.08622  0.177137  0  1.060739  0
H  H41  1  0.04724924  0.24045228  0.59267993  1  0  0.164604  0  0.999034  0  0  0.179249  0  1.06092  0  0  0.182179  0  1.061219  0  0  0.086242  0.17711  0  1.060829  0
H  H42  1  0.50461665  0.36225690  0.30212608  1  0  0.177414  0  1.003112  0  0  0.194239  0  1.058462  0  0  0.1975  0  1.05849  0  0  0.089753  0.191905  0  1.058522  0
H  H43  1  0.49538859  0.63774088  0.69787665  1  0  0.177489  0  1.003133  0  0  0.194285  0  1.058507  0  0  0.197545  0  1.058536  0  0  0.089763  0.191949  0  1.058569  0
H  H44  1  0.42913831  0.49521958  0.40494056  1  0  0.145983  0  0.995454  0  0  0.165719  0  1.051241  0  0  0.168055  0  1.052075  0  0  0.082524  0.164048  0  1.050705  0
H  H45  1  0.57086949  0.50477816  0.59506173  1  0  0.145971  0  0.995402  0  0  0.165704  0  1.051215  0  0  0.16804  0  1.052049  0  0  0.08253  0.164033  0  1.050681  0
H  H46  1  0.32399461  0.32813763  0.41113140  1  0  0.167114  0  1.006061  0  0  0.182943  0  1.065041  0  0  0.185946  0  1.065625  0  0  0.087018  0.180777  0  1.064702  0
H  H47  1  0.67600447  0.67186623  0.58887259  1  0  0.167078  0  1.006077  0  0  0.182934  0  1.065032  0  0  0.185927  0  1.065627  0  0  0.087012  0.180766  0  1.064695  0
H  H48  1  0.13909291  0.60036804  0.08700456  1  0  0.151226  0  1.003348  0  0  0.170033  0  1.060289  0  0  0.172472  0  1.060956  0  0  0.084269  0.168273  0  1.059899  0
H  H49  1  0.86093602  0.39962583  0.91299065  1  0  0.151298  0  1.003203  0  0  0.170083  0  1.060145  0  0  0.172514  0  1.060822  0  0  0.084294  0.168324  0  1.059754  0
H  H50  1  0.35247632  0.64251097  0.06597100  1  0  0.149697  0  0.996404  0  0  0.168899  0  1.052315  0  0  0.171433  0  1.052867  0  0  0.084486  0.167081  0  1.05199  0
H  H51  1  0.64755763  0.35746838  0.93402921  1  0  0.149723  0  0.996483  0  0  0.168954  0  1.052351  0  0  0.171489  0  1.052901  0  0  0.084506  0.167135  0  1.052027  0
H  H52  1  0.31691290  0.43876384  0.08965811  1  0  0.153359  0  0.998291  0  0  0.171857  0  1.054885  0  0  0.174225  0  1.055971  0  0  0.085783  0.170163  0  1.054168  0
H  H53  1  0.68310165  0.56122415  0.91034844  1  0  0.15349  0  0.998104  0  0  0.171952  0  1.05474  0  0  0.174322  0  1.055821  0  0  0.085808  0.170263  0  1.054015  0
C  C54  1  0.83187166  0.22419379  0.43639415  1  0  -0.499668  0  3.541763  0  0  -0.575071  0  3.786308  0  0  -0.581227  0  3.785579  0  0  -0.232482  -0.570673  0  3.786876  0
C  C55  1  0.16815348  0.77580732  0.56360030  1  0  -0.499497  0  3.541684  0  0  -0.574903  0  3.786193  0  0  -0.581054  0  3.78546  0  0  -0.232366  -0.570507  0  3.786763  0
C  C56  1  0.04575037  0.17009807  0.07412356  1  0  -0.490211  0  3.562871  0  0  -0.56888  0  3.811886  0  0  -0.574752  0  3.811756  0  0  -0.230461  -0.564687  0  3.812063  0
C  C57  1  0.95424538  0.82991076  0.92587148  1  0  -0.490029  0  3.562428  0  0  -0.568735  0  3.811464  0  0  -0.574611  0  3.811336  0  0  -0.230371  -0.564542  0  3.811646  0
C  C58  1  0.69859877  0.64187428  0.16392418  1  0  -0.722558  0  3.497  0  0  -0.757264  0  3.715648  0  0  -0.771094  0  3.723263  0  0  -0.333237  -0.747635  0  3.710425  0
C  C59  1  0.30138150  0.35813453  0.83609092  1  0  -0.722372  0  3.497056  0  0  -0.757051  0  3.715685  0  0  -0.770874  0  3.723297  0  0  -0.33312  -0.747422  0  3.710461  0
C  C60  1  0.49573352  0.07016836  0.12722501  1  0  -0.721219  0  3.525676  0  0  -0.761831  0  3.755183  0  0  -0.774938  0  3.761331  0  0  -0.337789  -0.752658  0  3.75108  0
C  C61  1  0.50424447  0.92983238  0.87277384  1  0  -0.721117  0  3.52585  0  0  -0.761747  0  3.755347  0  0  -0.774854  0  3.761491  0  0  -0.337813  -0.75258  0  3.75124  0
C  C62  1  0.55794967  0.89536011  0.38658959  1  0  -0.716634  0  3.503465  0  0  -0.756077  0  3.72878  0  0  -0.769627  0  3.735967  0  0  -0.333309  -0.746651  0  3.723857  0
C  C63  1  0.44204989  0.10464149  0.61340470  1  0  -0.716671  0  3.503246  0  0  -0.756061  0  3.728575  0  0  -0.769612  0  3.735765  0  0  -0.333309  -0.746633  0  3.723659  0
C  C64  1  0.95798776  0.65013451  0.37242340  1  0  -0.717045  0  3.514812  0  0  -0.760468  0  3.743166  0  0  -0.773708  0  3.75075  0  0  -0.337919  -0.751214  0  3.738071  0
C  C65  1  0.04201331  0.34986595  0.62756543  1  0  -0.716927  0  3.51492  0  0  -0.760362  0  3.743225  0  0  -0.77362  0  3.750788  0  0  -0.337966  -0.751111  0  3.738116  0
C  C66  1  0.39014030  0.42040509  0.35853929  1  0  -0.746464  0  3.507332  0  0  -0.783376  0  3.733394  0  0  -0.797549  0  3.739456  0  0  -0.34103  -0.773502  0  3.729298  0
C  C67  1  0.60986472  0.57959387  0.64146488  1  0  -0.746474  0  3.507388  0  0  -0.783386  0  3.733483  0  0  -0.797547  0  3.73956  0  0  -0.341038  -0.773516  0  3.729394  0
C  C68  1  0.26191543  0.56212913  0.10906796  1  0  -0.710629  0  3.513454  0  0  -0.749046  0  3.738536  0  0  -0.762111  0  3.744831  0  0  -0.332443  -0.739965  0  3.734238  0
C  C69  1  0.73811175  0.43785993  0.89093102  1  0  -0.710856  0  3.513323  0  0  -0.749255  0  3.738441  0  0  -0.76231  0  3.744735  0  0  -0.332497  -0.740176  0  3.73414  0
S  S70  1  0.03661456  0.18063933  0.34392054  1  0  1.344452  0  5.402831  0  0  1.254411  0  5.921152  0  0  1.298154  0  5.904275  0  0  0.55776  1.224303  0  5.931927  0
S  S71  1  0.96340351  0.81935831  0.65607545  1  0  1.344433  0  5.403188  0  0  1.254412  0  5.921522  0  0  1.298149  0  5.904642  0  0  0.55774  1.224309  0  5.932286  0
S  S72  1  0.91443480  0.08226466  0.19095383  1  0  1.327806  0  5.428949  0  0  1.243269  0  5.94111  0  0  1.286449  0  5.925642  0  0  0.550434  1.213446  0  5.950979  0
S  S73  1  0.08555457  0.91775141  0.80904467  1  0  1.327921  0  5.429067  0  0  1.243345  0  5.941255  0  0  1.286505  0  5.925787  0  0  0.55051  1.213526  0  5.951124  0
N  N74  1  0.02513874  0.04178519  0.27797575  1  0  -0.805894  0  2.893889  0  0  -0.737713  0  3.195433  0  0  -0.761683  0  3.190275  0  0  -0.412101  -0.721092  0  3.198504  0
N  N75  1  0.97487258  0.95822218  0.72201749  1  0  -0.80593  0  2.893985  0  0  -0.737771  0  3.195574  0  0  -0.761703  0  3.190397  0  0  -0.412096  -0.721151  0  3.198638  0
O  O76  1  0.06848166  0.32873873  0.27459647  1  0  -0.690876  0  1.988384  0  0  -0.618704  0  2.24105  0  0  -0.641452  0  2.230686  0  0  -0.313398  -0.602808  0  2.247626  0
O  O77  1  0.93154536  0.67125873  0.72540025  1  0  -0.690847  0  1.9886  0  0  -0.618699  0  2.241231  0  0  -0.641478  0  2.230928  0  0  -0.313376  -0.602803  0  2.247807  0
O  O78  1  0.16412014  0.11169737  0.40291906  1  0  -0.631188  0  1.945077  0  0  -0.573186  0  2.183263  0  0  -0.594272  0  2.173116  0  0  -0.312787  -0.558569  0  2.189948  0
O  O79  1  0.83589857  0.88828961  0.59706947  1  0  -0.631284  0  1.944927  0  0  -0.573293  0  2.183129  0  0  -0.594378  0  2.172981  0  0  -0.312811  -0.558649  0  2.189731  0
O  O80  1  0.75556936  0.19801865  0.22221303  1  0  -0.643736  0  1.944595  0  0  -0.583644  0  2.176396  0  0  -0.605186  0  2.167603  0  0  -0.318184  -0.568562  0  2.181977  0
O  O81  1  0.24443515  0.80199833  0.77778504  1  0  -0.643945  0  1.944593  0  0  -0.583843  0  2.176408  0  0  -0.605389  0  2.167627  0  0  -0.318341  -0.568741  0  2.181953  0
O  O82  1  0.89420452  0.92711201  0.16667293  1  0  -0.670206  0  1.951721  0  0  -0.60861  0  2.202126  0  0  -0.630889  0  2.192499  0  0  -0.313985  -0.592933  0  2.208186  0
O  O83  1  0.10578375  0.07289573  0.83332426  1  0  -0.670191  0  1.951902  0  0  -0.608503  0  2.202291  0  0  -0.630769  0  2.192669  0  0  -0.313962  -0.592843  0  2.20837  0
O  O84  1  0.30593556  0.79061209  0.26829114  1  0  -0.894295  0  1.885074  0  0  -0.796392  0  2.121062  0  0  -0.820871  0  2.099923  0  0  -0.499482  -0.779272  0  2.13543  0
O  O85  1  0.69402380  0.20939235  0.73172345  1  0  -0.894056  0  1.884959  0  0  -0.79617  0  2.120967  0  0  -0.820654  0  2.099835  0  0  -0.49942  -0.779053  0  2.135332  0
