# generated using pymatgen
data_LaH5C6S2O9
_symmetry_space_group_name_H-M   'P 1'
_cell_length_a   7.09298198
_cell_length_b   8.58956801
_cell_length_c   8.99287922
_cell_angle_alpha   84.38583380
_cell_angle_beta   84.15344757
_cell_angle_gamma   88.11676088
_symmetry_Int_Tables_number   1
_chemical_formula_structural   LaH5C6S2O9
_chemical_formula_sum   'La2 H10 C12 S4 O18'
_cell_volume   542.28745638
_cell_formula_units_Z   2
loop_
 _symmetry_equiv_pos_site_id
 _symmetry_equiv_pos_as_xyz
  1  'x, y, z'
loop_
 _atom_site_type_symbol
 _atom_site_label
 _atom_site_symmetry_multiplicity
 _atom_site_fract_x
 _atom_site_fract_y
 _atom_site_fract_z
 _atom_site_occupancy
 _atom_site_pbe_bader_charge
 _atom_site_pbe_bader_spin_density
 _atom_site_pbe_cm5_charge
 _atom_site_pbe_ddec_charge
 _atom_site_pbe_ddec_spin_density
 _atom_site_pbe_ddec_sum_bond_order
 _atom_site_pbe_magmom
La  La0  1  0.27318545  0.22409480  0.90366991  1  2.288033  0  1.440704  2.015462  0  2.277353  0
La  La1  1  0.72681633  0.77590784  0.09632863  1  2.28805  0  1.440731  2.015479  0  2.277388  0
H  H2  1  0.16635461  0.83572068  0.90842035  1  0.647804  0  0.322325  0.360223  0  0.960095  0
H  H3  1  0.83364844  0.16428664  0.09157766  1  0.647779  0  0.322344  0.360254  0  0.960006  0
H  H4  1  0.52327684  0.40957383  0.12714967  1  0.637645  0  0.31434  0.40859  0  0.905559  0
H  H5  1  0.47672372  0.59042411  0.87283718  1  0.637983  0  0.314379  0.408659  0  0.905458  0
H  H6  1  0.30460893  0.42234211  0.18252674  1  0.640672  0  0.310741  0.406671  0  0.913054  0
H  H7  1  0.69539884  0.57765002  0.81748010  1  0.640621  0  0.310753  0.406721  0  0.912973  0
H  H8  1  0.11031740  0.65541234  0.44746733  1  0.163752  0  0.116107  0.137772  0  1.018412  0
H  H9  1  0.88969168  0.34458330  0.55253574  1  0.163723  0  0.116106  0.137738  0  1.01843  0
H  H10  1  0.32122300  0.12762831  0.36677371  1  0.105297  0  0.115947  0.141746  0  0.989959  0
H  H11  1  0.67876321  0.87237427  0.63322161  1  0.105329  0  0.115953  0.141753  0  0.989985  0
C  C12  1  0.27785538  0.03875097  0.59986491  1  0.770792  0  0.077201  0.265953  0  4.166869  0
C  C13  1  0.72214350  0.96125400  0.40013030  1  0.77077  0  0.077239  0.265923  0  4.166808  0
C  C14  1  0.22510330  0.90401349  0.69821769  1  0.447136  0  0.079159  0.194589  0  4.009073  0
C  C15  1  0.77489710  0.09598797  0.30178108  1  0.447139  0  0.07919  0.194549  0  4.009084  0
C  C16  1  0.16206787  0.76929964  0.64427146  1  -0.16179  0  -0.033947  -0.208002  0  4.00861  0
C  C17  1  0.83793678  0.23070184  0.35572919  1  -0.161831  0  -0.033956  -0.20802  0  4.008509  0
C  C18  1  0.16043331  0.75945918  0.48989953  1  0.088764  0  -0.087173  -0.105524  0  3.970578  0
C  C19  1  0.83957138  0.24054113  0.51010011  1  0.088754  0  -0.087177  -0.105489  0  3.970533  0
C  C20  1  0.22276566  0.88907705  0.39406357  1  -0.264476  0  -0.020138  -0.094034  0  4.031035  0
C  C21  1  0.77723482  0.11092207  0.60593430  1  -0.264498  0  -0.020109  -0.093971  0  4.031042  0
C  C22  1  0.27766618  0.02773206  0.44525108  1  0.008124  0  -0.087414  -0.18359  0  3.917357  0
C  C23  1  0.72232564  0.97227171  0.55474703  1  0.008178  0  -0.087436  -0.183619  0  3.917383  0
S  S24  1  0.07642922  0.61166208  0.77184993  1  3.14269  0  0.556189  1.241232  0  6.054711  0
S  S25  1  0.92357822  0.38834058  0.22815150  1  3.142904  0  0.556171  1.241211  0  6.054953  0
S  S26  1  0.23573564  0.87657120  0.19916356  1  3.150746  0  0.566531  1.273461  0  6.03343  0
S  S27  1  0.76426491  0.12342559  0.80083563  1  3.15113  0  0.566516  1.273375  0  6.033624  0
O  O28  1  0.32416264  0.16501074  0.65869218  1  -1.170454  0  -0.469251  -0.623395  0  2.271776  0
O  O29  1  0.67582916  0.83499420  0.34130248  1  -1.170394  0  -0.469326  -0.623348  0  2.271765  0
O  O30  1  0.23882805  0.92058654  0.84656983  1  -1.186687  0  -0.36657  -0.507788  0  2.508626  0
O  O31  1  0.76117508  0.07941844  0.15342839  1  -1.186682  0  -0.366619  -0.507792  0  2.508648  0
O  O32  1  0.00810847  0.68446153  0.91187038  1  -1.349661  0  -0.373924  -0.67927  0  2.340057  0
O  O33  1  0.99189611  0.31554229  0.08812895  1  -1.34981  0  -0.373914  -0.679256  0  2.34017  0
O  O34  1  0.24244194  0.50601555  0.80075796  1  -1.342345  0  -0.385716  -0.667843  0  2.248597  0
O  O35  1  0.75756405  0.49398827  0.19924237  1  -1.342275  0  -0.385723  -0.667829  0  2.248571  0
O  O36  1  0.92743914  0.53519835  0.70861577  1  -1.314854  0  -0.293581  -0.547116  0  2.183497  0
O  O37  1  0.07256845  0.46479963  0.29138720  1  -1.315043  0  -0.293545  -0.547085  0  2.1836  0
O  O38  1  0.37747514  0.75420992  0.15694514  1  -1.334291  0  -0.38793  -0.645861  0  2.233896  0
O  O39  1  0.62252266  0.24578451  0.84305560  1  -1.334627  0  -0.387967  -0.64586  0  2.234068  0
O  O40  1  0.04827164  0.83530581  0.16157684  1  -1.353512  0  -0.387869  -0.669558  0  2.382298  0
O  O41  1  0.95172593  0.16469565  0.83842437  1  -1.353464  0  -0.387849  -0.669507  0  2.382292  0
O  O42  1  0.29367048  0.03225570  0.12772189  1  -1.35118  0  -0.389825  -0.690757  0  2.339894  0
O  O43  1  0.70633011  0.96773992  0.87227852  1  -1.351209  0  -0.389815  -0.690724  0  2.339884  0
O  O44  1  0.39787235  0.37395866  0.11084971  1  -1.262185  0  -0.615897  -0.822992  0  2.029087  0
O  O45  1  0.60212857  0.62602643  0.88915833  1  -1.262545  0  -0.615955  -0.823132  0  2.028924  0
