# generated using pymatgen
data_Cd3H50C70N14(ClO4)2
_symmetry_space_group_name_H-M   'P 1'
_cell_length_a   9.52941682
_cell_length_b   13.62726005
_cell_length_c   15.71200000
_cell_angle_alpha   109.47542151
_cell_angle_beta   94.62716250
_cell_angle_gamma   90.25672042
_symmetry_Int_Tables_number   1
_chemical_formula_structural   Cd3H50C70N14(ClO4)2
_chemical_formula_sum   'Cd3 H50 C70 N14 Cl2 O8'
_cell_volume   1916.27927955
_cell_formula_units_Z   1
loop_
 _symmetry_equiv_pos_site_id
 _symmetry_equiv_pos_as_xyz
  1  'x, y, z'
loop_
 _atom_site_type_symbol
 _atom_site_label
 _atom_site_symmetry_multiplicity
 _atom_site_fract_x
 _atom_site_fract_y
 _atom_site_fract_z
 _atom_site_occupancy
 _atom_site_hle17_bader_spin_density
 _atom_site_hle17_ddec_charge
 _atom_site_hle17_ddec_spin_density
 _atom_site_hle17_ddec_sum_bond_order
 _atom_site_hle17_magmom
 _atom_site_hse06_10hf_bader_spin_density
 _atom_site_hse06_10hf_ddec_charge
 _atom_site_hse06_10hf_ddec_spin_density
 _atom_site_hse06_10hf_ddec_sum_bond_order
 _atom_site_hse06_10hf_magmom
 _atom_site_hse06_bader_spin_density
 _atom_site_hse06_ddec_charge
 _atom_site_hse06_ddec_spin_density
 _atom_site_hse06_ddec_sum_bond_order
 _atom_site_hse06_magmom
 _atom_site_pbe_bader_charge
 _atom_site_pbe_bader_spin_density
 _atom_site_pbe_cm5_charge
 _atom_site_pbe_ddec_charge
 _atom_site_pbe_ddec_spin_density
 _atom_site_pbe_ddec_sum_bond_order
 _atom_site_pbe_magmom
Cd  Cd0  1  0.50000343  0.50000829  0.00000746  1  0  0.968525  0  1.931656  0  0  0.777067  0  2.388416  0  0  0.823459  0  2.351109  0  1.198023  0  0.702356  0.744545  0  2.413626  0
Cd  Cd1  1  0.80785740  0.58536773  0.83811988  1  0  1.081988  0  1.758896  0  0  0.903596  0  2.221237  0  0  0.959979  0  2.16882  0  1.21285  0  0.709544  0.863672  0  2.256935  0
Cd  Cd2  1  0.19214136  0.41463249  0.16186829  1  0  1.082045  0  1.758968  0  0  0.903656  0  2.221317  0  0  0.960039  0  2.168896  0  1.212992  0  0.709599  0.863732  0  2.257018  0
H  H3  1  0.35287523  0.04740426  0.78349340  1  0  0.103934  0  0.945901  0  0  0.114547  0  1.004244  0  0  0.117294  0  1.003737  0  0.080408  0  0.106451  0.112585  0  1.004736  0
H  H4  1  0.64712781  0.95259751  0.21651007  1  0  0.103945  0  0.945916  0  0  0.114545  0  1.004262  0  0  0.117291  0  1.003759  0  0.080433  0  0.106433  0.112619  0  1.004731  0
H  H5  1  0.22616716  0.20466563  0.86630197  1  0  0.118328  0  0.962261  0  0  0.126728  0  1.024999  0  0  0.13007  0  1.022832  0  0.148246  0  0.101565  0.124289  0  1.026661  0
H  H6  1  0.77383907  0.79533693  0.13370251  1  0  0.118324  0  0.962375  0  0  0.126707  0  1.025123  0  0  0.130048  0  1.022961  0  0.148293  0  0.101588  0.124277  0  1.026766  0
H  H7  1  0.95466754  0.16878359  0.62350035  1  0  0.100617  0  0.969114  0  0  0.108061  0  1.036326  0  0  0.110062  0  1.036876  0  0.096966  0  0.101125  0.106618  0  1.036029  0
H  H8  1  0.04533198  0.83121040  0.37650960  1  0  0.100592  0  0.969036  0  0  0.108119  0  1.036142  0  0  0.110121  0  1.03669  0  0.096798  0  0.101158  0.106673  0  1.03585  0
H  H9  1  0.08998510  0.01664589  0.53946630  1  0  0.097304  0  0.978494  0  0  0.10905  0  1.037952  0  0  0.111687  0  1.036958  0  0.072307  0  0.100398  0.107183  0  1.03874  0
H  H10  1  0.91000779  0.98334109  0.46054066  1  0  0.097303  0  0.978426  0  0  0.109051  0  1.037893  0  0  0.111688  0  1.036896  0  0.072449  0  0.100367  0.107212  0  1.038652  0
H  H11  1  0.00360059  0.25593425  0.92895302  1  0  0.126891  0  0.954389  0  0  0.13437  0  1.017238  0  0  0.137232  0  1.015699  0  0.174998  0  0.125081  0.132276  0  1.018454  0
H  H12  1  0.99640273  0.74407375  0.07105162  1  0  0.126876  0  0.954435  0  0  0.134319  0  1.01731  0  0  0.137182  0  1.015768  0  0.174579  0  0.125051  0.132224  0  1.01853  0
H  H13  1  0.86636858  0.44323906  0.97394782  1  0  0.107593  0  0.963936  0  0  0.115246  0  1.028101  0  0  0.117482  0  1.027692  0  0.14343  0  0.112395  0.113609  0  1.028468  0
H  H14  1  0.13363383  0.55677206  0.02604814  1  0  0.107607  0  0.963939  0  0  0.115226  0  1.028154  0  0  0.117451  0  1.027779  0  0.143423  0  0.112352  0.113605  0  1.028497  0
H  H15  1  0.96522291  0.36161158  0.70260307  1  0  0.099728  0  0.924984  0  0  0.11213  0  0.982769  0  0  0.11454  0  0.980126  0  0.125392  0  0.139487  0.11035  0  0.984643  0
H  H16  1  0.03478624  0.63838552  0.29739362  1  0  0.0996  0  0.925237  0  0  0.112008  0  0.982995  0  0  0.114412  0  0.980352  0  0.125427  0  0.139432  0.110211  0  0.984896  0
H  H17  1  0.34256983  0.04175257  0.50856277  1  0  0.106655  0  0.945219  0  0  0.120193  0  0.996833  0  0  0.123027  0  0.996446  0  0.073086  0  0.106157  0.11818  0  0.997224  0
H  H18  1  0.65742486  0.95825076  0.49143946  1  0  0.106687  0  0.945114  0  0  0.120209  0  0.996757  0  0  0.123044  0  0.99637  0  0.073132  0  0.10617  0.118229  0  0.997125  0
H  H19  1  0.38439722  0.97558432  0.34733063  1  0  0.101399  0  0.947606  0  0  0.113337  0  1.006522  0  0  0.116647  0  1.004166  0  0.069145  0  0.105964  0.110951  0  1.008303  0
H  H20  1  0.61559529  0.02441745  0.65267104  1  0  0.101354  0  0.947699  0  0  0.113316  0  1.006589  0  0  0.116615  0  1.004245  0  0.068766  0  0.105982  0.110936  0  1.008357  0
H  H21  1  0.32995394  0.66073761  0.34584031  1  0  0.10567  0  0.982798  0  0  0.114566  0  1.047738  0  0  0.116757  0  1.047186  0  0.127463  0  0.105935  0.112944  0  1.048277  0
H  H22  1  0.67003738  0.33926105  0.65416295  1  0  0.105725  0  0.982718  0  0  0.114633  0  1.047629  0  0  0.116824  0  1.047076  0  0.127407  0  0.105956  0.113017  0  1.048155  0
H  H23  1  0.29274774  0.72601436  0.50730629  1  0  0.108439  0  0.959624  0  0  0.119674  0  1.016277  0  0  0.122098  0  1.016721  0  0.069452  0  0.10555  0.117958  0  1.01603  0
H  H24  1  0.70724270  0.27398820  0.49269551  1  0  0.108449  0  0.959636  0  0  0.119687  0  1.016281  0  0  0.122111  0  1.016725  0  0.069439  0  0.105517  0.118018  0  1.015978  0
H  H25  1  0.32681337  0.90179928  0.19538690  1  0  0.113317  0  0.950529  0  0  0.125832  0  1.006057  0  0  0.128758  0  1.004252  0  0.090472  0  0.124335  0.123746  0  1.007414  0
H  H26  1  0.67319627  0.09820872  0.80461423  1  0  0.113303  0  0.950587  0  0  0.125792  0  1.006145  0  0  0.128717  0  1.00434  0  0.090337  0  0.124318  0.123704  0  1.007508  0
H  H27  1  0.39499856  0.76225153  0.03154790  1  0  0.098956  0  0.957087  0  0  0.109258  0  1.016  0  0  0.11162  0  1.014778  0  0.076746  0  0.115271  0.107563  0  1.016914  0
H  H28  1  0.60501473  0.23774402  0.96845299  1  0  0.098813  0  0.957225  0  0  0.109175  0  1.016071  0  0  0.11154  0  1.014853  0  0.076532  0  0.115223  0.10748  0  1.016983  0
H  H29  1  0.44729348  0.61633637  0.22938690  1  0  0.106551  0  0.96007  0  0  0.112011  0  1.029482  0  0  0.115227  0  1.025521  0  0.183606  0  0.132799  0.109611  0  1.032401  0
H  H30  1  0.55269510  0.38367163  0.77062338  1  0  0.106628  0  0.960041  0  0  0.112074  0  1.029483  0  0  0.115279  0  1.02553  0  0.183953  0  0.132834  0.109675  0  1.032401  0
H  H31  1  0.52548071  0.84105822  0.66659791  1  0  0.107187  0  0.929344  0  0  0.121179  0  0.981461  0  0  0.124178  0  0.980056  0  0.072972  0  0.109486  0.119018  0  0.982542  0
H  H32  1  0.47451342  0.15893265  0.33339178  1  0  0.107206  0  0.929424  0  0  0.121156  0  0.981569  0  0  0.124154  0  0.980167  0  0.072884  0  0.109451  0.119025  0  0.98264  0
H  H33  1  0.52968330  0.71400617  0.74923330  1  0  0.126941  0  0.950099  0  0  0.136659  0  1.009649  0  0  0.139343  0  1.008612  0  0.134855  0  0.113345  0.134712  0  1.010455  0
H  H34  1  0.47031304  0.28598704  0.25075590  1  0  0.126867  0  0.950059  0  0  0.136672  0  1.009516  0  0  0.139362  0  1.008461  0  0.134677  0  0.113326  0.134732  0  1.010309  0
H  H35  1  0.07751121  0.72607588  0.75293740  1  0  0.122457  0  0.947871  0  0  0.132885  0  1.005214  0  0  0.135785  0  1.003914  0  0.133927  0  0.113074  0.130761  0  1.006273  0
H  H36  1  0.92248548  0.27392511  0.24706489  1  0  0.122473  0  0.947859  0  0  0.132852  0  1.005263  0  0  0.135755  0  1.003961  0  0.133981  0  0.113041  0.130736  0  1.006306  0
H  H37  1  0.07446648  0.85323929  0.66952847  1  0  0.109596  0  0.928711  0  0  0.123982  0  0.978418  0  0  0.126795  0  0.977686  0  0.053347  0  0.110973  0.121943  0  0.97903  0
H  H38  1  0.92553438  0.14676092  0.33047126  1  0  0.109595  0  0.928732  0  0  0.123983  0  0.978431  0  0  0.126802  0  0.977699  0  0.053342  0  0.110958  0.121981  0  0.979017  0
H  H39  1  0.10865242  0.55019283  0.73995876  1  0  0.119306  0  0.952143  0  0  0.130378  0  1.01189  0  0  0.133066  0  1.010088  0  0.141451  0  0.126479  0.128415  0  1.013294  0
H  H40  1  0.89135125  0.44979960  0.26004458  1  0  0.119296  0  0.952213  0  0  0.130361  0  1.011965  0  0  0.133051  0  1.010161  0  0.141629  0  0.126443  0.128399  0  1.013369  0
H  H41  1  0.19963430  0.43843469  0.85397956  1  0  0.100996  0  0.989221  0  0  0.105541  0  1.058249  0  0  0.107916  0  1.057793  0  0.080108  0  0.106927  0.103758  0  1.05877  0
H  H42  1  0.80037829  0.56156864  0.14603246  1  0  0.101075  0  0.989101  0  0  0.105596  0  1.058163  0  0  0.107951  0  1.057735  0  0.080244  0  0.106998  0.103822  0  1.058672  0
H  H43  1  0.50064681  0.67703694  0.88322920  1  0  0.098225  0  0.94892  0  0  0.105199  0  1.017712  0  0  0.107871  0  1.013835  0  0.167673  0  0.132573  0.103199  0  1.020545  0
H  H44  1  0.49935710  0.32296094  0.11676427  1  0  0.09829  0  0.948887  0  0  0.10522  0  1.017722  0  0  0.107895  0  1.01385  0  0.167697  0  0.13261  0.10322  0  1.020555  0
H  H45  1  0.75293026  0.97325029  0.92987939  1  0  0.098299  0  0.944667  0  0  0.107312  0  1.00371  0  0  0.11147  0  1.000734  0  0.095344  0  0.099306  0.104289  0  1.005959  0
H  H46  1  0.24705913  0.02675227  0.07013126  1  0  0.098247  0  0.944816  0  0  0.107317  0  1.003779  0  0  0.111478  0  1.0008  0  0.095521  0  0.099262  0.104292  0  1.006028  0
H  H47  1  0.84919082  0.15357145  0.02294920  1  0  0.09811  0  0.953218  0  0  0.106263  0  1.01667  0  0  0.110095  0  1.014229  0  0.082045  0  0.099076  0.103508  0  1.018469  0
H  H48  1  0.15079642  0.84643032  0.97706431  1  0  0.098192  0  0.953246  0  0  0.1064  0  1.016616  0  0  0.11023  0  1.014182  0  0.081948  0  0.099117  0.103645  0  1.018409  0
H  H49  1  0.40030360  0.47887734  0.63455940  1  0  0.097446  0  0.958219  0  0  0.104414  0  1.022958  0  0  0.108045  0  1.020976  0  0.09922  0  0.099034  0.101791  0  1.024467  0
H  H50  1  0.59971512  0.52112210  0.36542761  1  0  0.097497  0  0.958283  0  0  0.104456  0  1.023034  0  0  0.108086  0  1.021056  0  0.098857  0  0.099067  0.101834  0  1.024542  0
H  H51  1  0.24390516  0.45729469  0.49194106  1  0  0.10284  0  0.939505  0  0  0.112677  0  0.996078  0  0  0.11689  0  0.993076  0  0.108592  0  0.103073  0.109544  0  0.998383  0
H  H52  1  0.75610192  0.54270319  0.50804493  1  0  0.102712  0  0.939488  0  0  0.112589  0  0.996025  0  0  0.1168  0  0.993024  0  0.108504  0  0.103022  0.10947  0  0.998314  0
C  C53  1  0.22851146  0.02075557  0.65609781  1  0  0.190709  0  3.800444  0  0  0.18041  0  4.057415  0  0  0.187738  0  4.078815  0  0.291978  0  0.091288  0.175315  0  4.042889  0
C  C54  1  0.77149253  0.97924387  0.34390948  1  0  0.190781  0  3.800337  0  0  0.180476  0  4.057321  0  0  0.187804  0  4.078722  0  0.293023  0  0.091224  0.174249  0  4.043748  0
C  C55  1  0.26639486  0.07455838  0.74837241  1  0  -0.131641  0  3.743274  0  0  -0.152352  0  3.996208  0  0  -0.155943  0  4.016696  0  -0.010898  0  -0.09037  -0.149929  0  3.982419  0
C  C56  1  0.73360818  0.92544339  0.25163042  1  0  -0.131709  0  3.743199  0  0  -0.152391  0  3.996121  0  0  -0.155983  0  4.016608  0  -0.011679  0  -0.090302  -0.149861  0  3.982566  0
C  C57  1  0.19388118  0.16125112  0.79531560  1  0  -0.119943  0  3.728557  0  0  -0.137578  0  3.972749  0  0  -0.139527  0  3.992366  0  -0.056354  0  -0.086489  -0.136158  0  3.959497  0
C  C58  1  0.80612407  0.83875299  0.20468737  1  0  -0.119816  0  3.728777  0  0  -0.137452  0  3.972935  0  0  -0.139399  0  3.992552  0  -0.056478  0  -0.086518  -0.135934  0  3.959568  0
C  C59  1  0.08103716  0.19462623  0.75029372  1  0  0.160007  0  3.796781  0  0  0.152035  0  4.043105  0  0  0.15562  0  4.066624  0  0.321641  0  0.085815  0.149556  0  4.02721  0
C  C60  1  0.91896791  0.80537399  0.24970812  1  0  0.159752  0  3.796808  0  0  0.151835  0  4.043102  0  0  0.15542  0  4.066622  0  0.321624  0  0.085771  0.149387  0  4.027131  0
C  C61  1  0.04444141  0.14380852  0.65787478  1  0  -0.140268  0  3.776006  0  0  -0.159391  0  4.026532  0  0  -0.161488  0  4.04763  0  0.014658  0  -0.095712  -0.157876  0  4.012219  0
C  C62  1  0.95555917  0.85618546  0.34212885  1  0  -0.140112  0  3.775763  0  0  -0.159307  0  4.026291  0  0  -0.161409  0  4.047399  0  0.01443  0  -0.095678  -0.157709  0  4.01187  0
C  C63  1  0.11914158  0.05785720  0.61100920  1  0  -0.154143  0  3.767334  0  0  -0.171736  0  4.01629  0  0  -0.175697  0  4.036209  0  -0.071747  0  -0.099578  -0.169044  0  4.002866  0
C  C64  1  0.88085283  0.94213990  0.38899695  1  0  -0.154212  0  3.767234  0  0  -0.171825  0  4.016267  0  0  -0.17579  0  4.036191  0  -0.07166  0  -0.099557  -0.168984  0  4.003031  0
C  C65  1  0.97515364  0.30551445  0.88940072  1  0  -0.038405  0  3.644274  0  0  -0.079643  0  3.905203  0  0  -0.076783  0  3.921082  0  0.277531  0  0.00657  -0.081598  0  3.894719  0
C  C66  1  0.02484554  0.69449511  0.11060226  1  0  -0.038504  0  3.644347  0  0  -0.079687  0  3.905249  0  0  -0.076825  0  3.921126  0  0.277779  0  0.006531  -0.081644  0  3.894773  0
C  C67  1  0.90781787  0.39803878  0.91097766  1  0  0.010986  0  3.742824  0  0  -0.022282  0  4.008862  0  0  -0.020919  0  4.029865  0  0.411378  0  -0.002077  -0.023229  0  3.994818  0
C  C68  1  0.09218956  0.60196689  0.08901950  1  0  0.011006  0  3.742776  0  0  -0.022236  0  4.008799  0  0  -0.020879  0  4.029799  0  0.411438  0  -0.002019  -0.023191  0  3.994748  0
C  C69  1  0.95447394  0.35900653  0.76997329  1  0  0.15582  0  3.667359  0  0  0.092416  0  3.94174  0  0  0.106375  0  3.95456  0  0.962363  0  0.136821  0.083415  0  3.932682  0
C  C70  1  0.04552899  0.64099291  0.23002312  1  0  0.15589  0  3.667391  0  0  0.092511  0  3.941757  0  0  0.106478  0  3.954564  0  0.962354  0  0.136918  0.083521  0  3.932713  0
C  C71  1  0.31309872  0.88935887  0.52053809  1  0  0.194586  0  3.802201  0  0  0.183804  0  4.057416  0  0  0.192317  0  4.077837  0  0.293693  0  0.092107  0.177904  0  4.043503  0
C  C72  1  0.68689586  0.11064213  0.47946473  1  0  0.194451  0  3.80229  0  0  0.183676  0  4.057489  0  0  0.192186  0  4.077915  0  0.293727  0  0.091976  0.176599  0  4.044587  0
C  C73  1  0.33738799  0.95809968  0.47282468  1  0  -0.153257  0  3.765815  0  0  -0.171254  0  4.021391  0  0  -0.175442  0  4.041525  0  -0.11657  0  -0.098071  -0.168345  0  4.007724  0
C  C74  1  0.66260986  0.04190366  0.52717898  1  0  -0.153211  0  3.765844  0  0  -0.171217  0  4.021468  0  0  -0.17541  0  4.041603  0  -0.116471  0  -0.09805  -0.168191  0  4.008062  0
C  C75  1  0.36060191  0.92050819  0.38141073  1  0  -0.135972  0  3.76826  0  0  -0.158689  0  4.028325  0  0  -0.159891  0  4.046682  0  0.09696  0  -0.095141  -0.157759  0  4.015794  0
C  C76  1  0.63938958  0.07949436  0.61859430  1  0  -0.135973  0  3.768368  0  0  -0.158702  0  4.028439  0  0  -0.159896  0  4.046794  0  0.097179  0  -0.09517  -0.157693  0  4.015819  0
C  C77  1  0.35898664  0.81313075  0.33484974  1  0  0.157113  0  3.802046  0  0  0.144892  0  4.056541  0  0  0.149581  0  4.079093  0  0.246726  0  0.080531  0.141723  0  4.041252  0
C  C78  1  0.64099839  0.18686868  0.66515153  1  0  0.157152  0  3.801987  0  0  0.144943  0  4.056484  0  0  0.149637  0  4.079027  0  0.246563  0  0.080534  0.141795  0  4.041137  0
C  C79  1  0.33375457  0.74430817  0.38141077  1  0  -0.143504  0  3.783374  0  0  -0.164072  0  4.03851  0  0  -0.166358  0  4.059322  0  -0.032954  0  -0.096232  -0.16247  0  4.024449  0
C  C80  1  0.66623572  0.25569127  0.61858758  1  0  -0.143486  0  3.7834  0  0  -0.164066  0  4.038531  0  0  -0.166354  0  4.059342  0  -0.032947  0  -0.09621  -0.162376  0  4.024356  0
C  C81  1  0.31153935  0.78151727  0.47282283  1  0  -0.156995  0  3.757781  0  0  -0.174514  0  4.006306  0  0  -0.178701  0  4.026904  0  0.044429  0  -0.100946  -0.171621  0  3.992375  0
C  C82  1  0.68845429  0.21848606  0.52717807  1  0  -0.157016  0  3.757868  0  0  -0.174506  0  4.006336  0  0  -0.178694  0  4.026937  0  0.04456  0  -0.100874  -0.171461  0  3.992589  0
C  C83  1  0.36477750  0.82341937  0.17822847  1  0  -0.076923  0  3.690997  0  0  -0.118305  0  3.953134  0  0  -0.116935  0  3.971722  0  0.2638  0  -0.005191  -0.119148  0  3.940587  0
C  C84  1  0.63522452  0.17658318  0.82177071  1  0  -0.07684  0  3.691039  0  0  -0.118204  0  3.953197  0  0  -0.116832  0  3.971786  0  0.263977  0  -0.005168  -0.119055  0  3.940663  0
C  C85  1  0.39721953  0.75284684  0.09745539  1  0  0.009727  0  3.772143  0  0  -0.02358  0  4.040637  0  0  -0.021866  0  4.061463  0  0.485212  0  -0.002663  -0.024689  0  4.026535  0
C  C86  1  0.60278445  0.24715260  0.90254745  1  0  0.009838  0  3.772158  0  0  -0.023506  0  4.040636  0  0  -0.021805  0  4.061473  0  0.484729  0  -0.002641  -0.024615  0  4.026536  0
C  C87  1  0.42559937  0.67443188  0.19704166  1  0  0.169528  0  3.627484  0  0  0.109745  0  3.894801  0  0  0.123781  0  3.906189  0  0.938993  0  0.140599  0.100734  0  3.886736  0
C  C88  1  0.57438261  0.32556989  0.80296459  1  0  0.169282  0  3.627459  0  0  0.109496  0  3.894818  0  0  0.12354  0  3.906197  0  0.939353  0  0.140458  0.100488  0  3.886756  0
C  C89  1  0.29959884  0.85405002  0.66226805  1  0  0.16673  0  3.820681  0  0  0.162053  0  4.073867  0  0  0.167213  0  4.096473  0  0.303852  0  0.084427  0.15843  0  4.05849  0
C  C90  1  0.70039991  0.14595020  0.33773348  1  0  0.166828  0  3.820548  0  0  0.162086  0  4.073811  0  0  0.167243  0  4.096423  0  0.303825  0  0.084422  0.157383  0  4.059357  0
C  C91  1  0.42754946  0.81577475  0.68551104  1  0  -0.126724  0  3.747758  0  0  -0.148396  0  4.000127  0  0  -0.151088  0  4.020038  0  -0.020519  0  -0.085361  -0.146509  0  3.986665  0
C  C92  1  0.57244908  0.18422079  0.31448531  1  0  -0.126882  0  3.747794  0  0  -0.148498  0  4.000188  0  0  -0.151194  0  4.020104  0  -0.020645  0  -0.08533  -0.146502  0  3.986962  0
C  C93  1  0.43004401  0.74414852  0.73140232  1  0  -0.12494  0  3.718654  0  0  -0.145418  0  3.968802  0  0  -0.148959  0  3.990943  0  0.004712  0  -0.08229  -0.143007  0  3.953874  0
C  C94  1  0.56995145  0.25584858  0.26859496  1  0  -0.124661  0  3.718466  0  0  -0.14519  0  3.968543  0  0  -0.148728  0  3.990685  0  0.005036  0  -0.082249  -0.142687  0  3.953504  0
C  C95  1  0.30313339  0.71108726  0.75382136  1  0  0.17508  0  3.773161  0  0  0.166094  0  4.021829  0  0  0.170036  0  4.046219  0  0.311466  0  0.097273  0.163407  0  4.005332  0
C  C96  1  0.69686435  0.28891373  0.24618034  1  0  0.174923  0  3.773289  0  0  0.165908  0  4.022005  0  0  0.169852  0  4.046395  0  0.311935  0  0.097264  0.163252  0  4.005431  0
C  C97  1  0.17467137  0.75027761  0.73234418  1  0  -0.12481  0  3.727343  0  0  -0.143569  0  3.974356  0  0  -0.146722  0  3.995366  0  -0.039888  0  -0.083753  -0.141378  0  3.96008  0
C  C98  1  0.82532528  0.24972261  0.26765788  1  0  -0.124833  0  3.727408  0  0  -0.143548  0  3.97443  0  0  -0.146705  0  3.995446  0  -0.040039  0  -0.083749  -0.141263  0  3.960043  0
C  C99  1  0.17357240  0.82156740  0.68637107  1  0  -0.12911  0  3.751384  0  0  -0.148921  0  3.99766  0  0  -0.151872  0  4.018188  0  0.017302  0  -0.085852  -0.146843  0  3.983708  0
C  C100  1  0.82642636  0.17843281  0.31363301  1  0  -0.129118  0  3.751338  0  0  -0.148903  0  3.997603  0  0  -0.151863  0  4.018144  0  0.017302  0  -0.085815  -0.146696  0  3.983836  0
C  C101  1  0.20205862  0.55836469  0.78614791  1  0  -0.055732  0  3.666103  0  0  -0.098366  0  3.92833  0  0  -0.096586  0  3.946182  0  0.268155  0  0.001493  -0.099554  0  3.916373  0
C  C102  1  0.79794319  0.44163319  0.21385501  1  0  -0.055732  0  3.666048  0  0  -0.098352  0  3.928266  0  0  -0.096568  0  3.946111  0  0.268209  0  0.001514  -0.09954  0  3.916313  0
C  C103  1  0.24792675  0.50428697  0.84214819  1  0  -0.005989  0  3.758989  0  0  -0.03827  0  4.02494  0  0  -0.036778  0  4.045801  0  0.466218  0  -0.009417  -0.039185  0  4.010859  0
C  C104  1  0.75207523  0.49571481  0.15785649  1  0  -0.006022  0  3.758866  0  0  -0.038283  0  4.02484  0  0  -0.036778  0  4.045711  0  0.465949  0  -0.009413  -0.039203  0  4.010751  0
C  C105  1  0.40681293  0.62668963  0.86076223  1  0  0.186884  0  3.63962  0  0  0.125072  0  3.906592  0  0  0.140229  0  3.916937  0  0.980116  0  0.146878  0.115213  0  3.89934  0
C  C106  1  0.59318782  0.37330825  0.13923682  1  0  0.186815  0  3.63947  0  0  0.125037  0  3.906478  0  0  0.140188  0  3.916832  0  0.980093  0  0.14682  0.115178  0  3.899229  0
C  C107  1  0.86110044  0.98623274  0.96072524  1  0  -0.084568  0  3.759915  0  0  -0.104232  0  4.003646  0  0  -0.10574  0  4.02437  0  -0.046159  0  -0.090665  -0.103088  0  3.989511  0
C  C108  1  0.13888877  0.01376592  0.03928491  1  0  -0.084565  0  3.760224  0  0  -0.104337  0  4.003865  0  0  -0.105842  0  4.024605  0  -0.045683  0  -0.090626  -0.103191  0  3.989727  0
C  C109  1  0.94678964  0.89997302  0.94801487  1  0  -0.046118  0  3.748712  0  0  -0.02367  0  3.977936  0  0  -0.030305  0  4.000976  0  -0.004165  0  -0.018705  -0.01931  0  3.962305  0
C  C110  1  0.05319870  0.10002954  0.05199255  1  0  -0.046123  0  3.748894  0  0  -0.023496  0  3.977876  0  0  -0.030158  0  4.000959  0  -0.004207  0  -0.01864  -0.019136  0  3.962244  0
C  C111  1  0.91391922  0.08548716  0.01232665  1  0  -0.084766  0  3.756161  0  0  -0.106981  0  4.00506  0  0  -0.108196  0  4.025925  0  -0.073274  0  -0.091299  -0.106015  0  3.990801  0
C  C112  1  0.08607231  0.91451617  0.98768497  1  0  -0.084879  0  3.75619  0  0  -0.107059  0  4.005135  0  0  -0.108288  0  4.025997  0  -0.073155  0  -0.091299  -0.106092  0  3.990879  0
C  C113  1  0.88843690  0.79242580  0.89529563  1  0  0.615289  0  3.955603  0  0  0.570453  0  4.243772  0  0  0.604511  0  4.238069  0  1.527254  0  0.181632  0.547421  0  4.246634  0
C  C114  1  0.11155880  0.20757675  0.10470770  1  0  0.61531  0  3.955559  0  0  0.570455  0  4.243677  0  0  0.604519  0  4.237978  0  1.527296  0  0.181607  0.547425  0  4.246538  0
C  C115  1  0.44277906  0.48763563  0.57506826  1  0  -0.076139  0  3.744416  0  0  -0.09911  0  3.99598  0  0  -0.099985  0  4.016565  0  -0.069886  0  -0.088884  -0.098414  0  3.981939  0
C  C116  1  0.55723826  0.51235602  0.42491643  1  0  -0.076056  0  3.744185  0  0  -0.099066  0  3.995823  0  0  -0.09994  0  4.0164  0  -0.068369  0  -0.088909  -0.098371  0  3.981791  0
C  C117  1  0.58714297  0.51166991  0.57905034  1  0  -0.052046  0  3.752413  0  0  -0.029448  0  3.983298  0  0  -0.03659  0  4.006757  0  -0.003568  0  -0.018021  -0.024752  0  3.96739  0
C  C118  1  0.41287708  0.48831239  0.42092796  1  0  -0.051942  0  3.752089  0  0  -0.029352  0  3.982995  0  0  -0.036489  0  4.006452  0  -0.003443  0  -0.018023  -0.024658  0  3.967085  0
C  C119  1  0.35615345  0.47611730  0.49652794  1  0  -0.079762  0  3.746998  0  0  -0.099595  0  3.989647  0  0  -0.100705  0  4.009739  0  -0.091459  0  -0.08671  -0.098686  0  3.975937  0
C  C120  1  0.64386061  0.52387201  0.50345464  1  0  -0.079744  0  3.747015  0  0  -0.099603  0  3.989678  0  0  -0.10071  0  4.009765  0  -0.093159  0  -0.086741  -0.098706  0  3.975968  0
C  C121  1  0.67910188  0.52786799  0.66484001  1  0  0.616262  0  3.948943  0  0  0.570587  0  4.238995  0  0  0.604694  0  4.23271  0  1.523097  0  0.184189  0.547524  0  4.2423  0
C  C122  1  0.32091348  0.47212677  0.33514229  1  0  0.615916  0  3.948927  0  0  0.570277  0  4.238953  0  0  0.604381  0  4.232669  0  1.52292  0  0.184079  0.547217  0  4.242258  0
N  N123  1  0.29536489  0.92651189  0.61362661  1  0  -0.260432  0  3.460744  0  0  -0.189097  0  3.694538  0  0  -0.208948  0  3.716955  0  -1.200698  0  -0.261287  -0.17498  0  3.678291  0
N  N124  1  0.70463594  0.07348754  0.38637416  1  0  -0.260435  0  3.460734  0  0  -0.189092  0  3.694592  0  0  -0.208922  0  3.716962  0  -1.200626  0  -0.261248  -0.173362  0  3.67843  0
N  N125  1  0.00463579  0.28130338  0.79975668  1  0  -0.09062  0  3.608549  0  0  -0.00195  0  3.824166  0  0  -0.016  0  3.848842  0  -1.26688  0  -0.2268  0.007362  0  3.807385  0
N  N126  1  0.99536721  0.71869761  0.20024401  1  0  -0.090453  0  3.608576  0  0  -0.001841  0  3.8242  0  0  -0.015889  0  3.848874  0  -1.266951  0  -0.226826  0.007472  0  3.807417  0
N  N127  1  0.89623112  0.43047622  0.83626774  1  0  -0.394092  0  3.302727  0  0  -0.317201  0  3.592168  0  0  -0.339196  0  3.611024  0  -1.21275  0  -0.361997  -0.302111  0  3.578854  0
N  N128  1  0.10376971  0.56952321  0.16372730  1  0  -0.394058  0  3.302654  0  0  -0.317195  0  3.592104  0  0  -0.339186  0  3.610954  0  -1.21263  0  -0.361988  -0.3021  0  3.578777  0
N  N129  1  0.38285591  0.77282284  0.24167421  1  0  -0.083695  0  3.596604  0  0  0.006023  0  3.810263  0  0  -0.008813  0  3.836095  0  -1.268241  0  -0.226182  0.015854  0  3.792625  0
N  N130  1  0.61713231  0.22717737  0.75832744  1  0  -0.083697  0  3.596563  0  0  0.006028  0  3.810235  0  0  -0.008808  0  3.836062  0  -1.26879  0  -0.22613  0.015857  0  3.792607  0
N  N131  1  0.43420892  0.66050709  0.11007203  1  0  -0.368035  0  3.237141  0  0  -0.298152  0  3.517315  0  0  -0.317548  0  3.53622  0  -1.188376  0  -0.349111  -0.284873  0  3.504041  0
N  N132  1  0.56578349  0.33949235  0.88993278  1  0  -0.367995  0  3.237101  0  0  -0.298127  0  3.517285  0  0  -0.317523  0  3.536201  0  -1.188077  0  -0.349077  -0.284849  0  3.504007  0
N  N133  1  0.30403269  0.63614571  0.79861291  1  0  -0.084205  0  3.591351  0  0  0.004802  0  3.805597  0  0  -0.009471  0  3.829951  0  -1.278144  0  -0.22201  0.014266  0  3.788989  0
N  N134  1  0.69596498  0.36385373  0.20138962  1  0  -0.084188  0  3.591314  0  0  0.004828  0  3.805559  0  0  -0.009448  0  3.829915  0  -1.278471  0  -0.221994  0.014293  0  3.788954  0
N  N135  1  0.37506865  0.54787748  0.88823132  1  0  -0.369028  0  3.25649  0  0  -0.290624  0  3.531314  0  0  -0.311101  0  3.549319  0  -1.217889  0  -0.357821  -0.276615  0  3.518589  0
N  N136  1  0.62493754  0.45212429  0.11177230  1  0  -0.368992  0  3.256531  0  0  -0.290629  0  3.531407  0  0  -0.311104  0  3.549407  0  -1.217906  0  -0.357832  -0.276621  0  3.518685  0
Cl  Cl137  1  0.28821032  0.37550990  0.00654338  1  0  -0.5751  0  1.009787  0  0  -0.511445  0  1.306651  0  0  -0.529611  0  1.283333  0  -0.651466  0  -0.291003  -0.498431  0  1.322564  0
Cl  Cl138  1  0.71179483  0.62449188  0.99344809  1  0  -0.575068  0  1.009692  0  0  -0.51143  0  1.306572  0  0  -0.529602  0  1.283262  0  -0.651474  0  -0.290994  -0.498412  0  1.322477  0
O  O139  1  0.97146304  0.71659877  0.89198140  1  0  -0.655195  0  1.977032  0  0  -0.589496  0  2.222542  0  0  -0.619764  0  2.213302  0  -1.155226  0  -0.345551  -0.568263  0  2.22803  0
O  O140  1  0.02853477  0.28340378  0.10801948  1  0  -0.655199  0  1.976912  0  0  -0.589507  0  2.222424  0  0  -0.619775  0  2.213179  0  -1.155352  0  -0.345548  -0.568274  0  2.227913  0
O  O141  1  0.76327557  0.77912171  0.85919944  1  0  -0.637032  0  1.89976  0  0  -0.587039  0  2.117661  0  0  -0.612477  0  2.107868  0  -1.172561  0  -0.345383  -0.569195  0  2.123692  0
O  O142  1  0.23672115  0.22088007  0.14080117  1  0  -0.637024  0  1.899808  0  0  -0.58705  0  2.117719  0  0  -0.612486  0  2.107921  0  -1.172752  0  -0.345353  -0.569204  0  2.123748  0
O  O143  1  0.61631327  0.52747470  0.73460480  1  0  -0.657432  0  2.006841  0  0  -0.594404  0  2.263688  0  0  -0.624073  0  2.25395  0  -1.161432  0  -0.338283  -0.573601  0  2.26957  0
O  O144  1  0.38369623  0.47253019  0.26538015  1  0  -0.657214  0  2.006776  0  0  -0.594186  0  2.263561  0  0  -0.62386  0  2.253837  0  -1.161897  0  -0.338155  -0.573382  0  2.269435  0
O  O145  1  0.81099040  0.54254120  0.66750265  1  0  -0.635154  0  1.871619  0  0  -0.583313  0  2.087386  0  0  -0.607734  0  2.076101  0  -1.153283  0  -0.347404  -0.56621  0  2.094504  0
O  O146  1  0.18902000  0.45746057  0.33248335  1  0  -0.635131  0  1.871708  0  0  -0.583278  0  2.087431  0  0  -0.607706  0  2.076157  0  -1.152952  0  -0.347398  -0.566176  0  2.094549  0
