# generated using pymatgen
data_ZnH14C14(NO)4
_symmetry_space_group_name_H-M   'P 1'
_cell_length_a   9.42246709
_cell_length_b   9.82527684
_cell_length_c   9.82528158
_cell_angle_alpha   76.28914562
_cell_angle_beta   68.27592377
_cell_angle_gamma   68.27588804
_symmetry_Int_Tables_number   1
_chemical_formula_structural   ZnH14C14(NO)4
_chemical_formula_sum   'Zn2 H28 C28 N8 O8'
_cell_volume   779.70039117
_cell_formula_units_Z   2
loop_
 _symmetry_equiv_pos_site_id
 _symmetry_equiv_pos_as_xyz
  1  'x, y, z'
loop_
 _atom_site_type_symbol
 _atom_site_label
 _atom_site_symmetry_multiplicity
 _atom_site_fract_x
 _atom_site_fract_y
 _atom_site_fract_z
 _atom_site_occupancy
 _atom_site_hle17_bader_spin_density
 _atom_site_hle17_ddec_charge
 _atom_site_hle17_ddec_spin_density
 _atom_site_hle17_ddec_sum_bond_order
 _atom_site_hle17_magmom
 _atom_site_hse06_10hf_bader_spin_density
 _atom_site_hse06_10hf_ddec_charge
 _atom_site_hse06_10hf_ddec_spin_density
 _atom_site_hse06_10hf_ddec_sum_bond_order
 _atom_site_hse06_10hf_magmom
 _atom_site_hse06_bader_spin_density
 _atom_site_hse06_ddec_charge
 _atom_site_hse06_ddec_spin_density
 _atom_site_hse06_ddec_sum_bond_order
 _atom_site_hse06_magmom
 _atom_site_pbe_bader_spin_density
 _atom_site_pbe_cm5_charge
 _atom_site_pbe_ddec_charge
 _atom_site_pbe_ddec_spin_density
 _atom_site_pbe_ddec_sum_bond_order
 _atom_site_pbe_magmom
Zn  Zn0  1  0.99500224  0.71374164  0.34520576  1  0  0.983178  0  1.860924  0  0  0.779507  0  2.341497  0  0  0.828084  0  2.286741  0  0  0.688238  0.745381  0  2.380101  0
Zn  Zn1  1  0.49500162  0.34520645  0.71374318  1  0  0.983176  0  1.860949  0  0  0.779485  0  2.341523  0  0  0.828057  0  2.286761  0  0  0.688244  0.745359  0  2.380142  0
H  H2  1  0.71460282  0.81715690  0.17185040  1  0  0.281375  0  0.950956  0  0  0.261252  0  1.01848  0  0  0.269091  0  1.012638  0  0  0.305325  0.255632  0  1.022658  0
H  H3  1  0.21460209  0.17184957  0.81715885  1  0  0.281368  0  0.950974  0  0  0.261229  0  1.018504  0  0  0.269079  0  1.01266  0  0  0.305308  0.255604  0  1.022691  0
H  H4  1  0.89834336  0.60356643  0.07045439  1  0  0.288185  0  0.969962  0  0  0.267911  0  1.039489  0  0  0.275552  0  1.033525  0  0  0.306812  0.262816  0  1.043276  0
H  H5  1  0.39834277  0.07045507  0.60356692  1  0  0.288153  0  0.970024  0  0  0.267889  0  1.039521  0  0  0.275529  0  1.033558  0  0  0.306813  0.262793  0  1.043306  0
H  H6  1  0.13308048  0.53520708  0.57044917  1  0  0.0869  0  0.921221  0  0  0.098053  0  0.978185  0  0  0.100949  0  0.97506  0  0  0.119127  0.095947  0  0.980481  0
H  H7  1  0.63308161  0.57044905  0.53520813  1  0  0.086928  0  0.921201  0  0  0.098061  0  0.978189  0  0  0.100957  0  0.975064  0  0  0.119118  0.095952  0  0.98048  0
H  H8  1  0.06616895  0.50032127  0.84227679  1  0  0.11895  0  0.964703  0  0  0.125004  0  1.032926  0  0  0.128709  0  1.031738  0  0  0.106969  0.121855  0  1.035206  0
H  H9  1  0.56616884  0.84227707  0.50032354  1  0  0.11897  0  0.964719  0  0  0.124989  0  1.032979  0  0  0.128693  0  1.031792  0  0  0.106939  0.121835  0  1.03526  0
H  H10  1  0.65142380  0.89240590  0.85496370  1  0  0.122988  0  0.942448  0  0  0.132481  0  0.999475  0  0  0.136538  0  0.998321  0  0  0.109292  0.129409  0  1.000954  0
H  H11  1  0.15142451  0.85496266  0.89240604  1  0  0.122986  0  0.942438  0  0  0.132457  0  0.999499  0  0  0.136515  0  0.998344  0  0  0.109284  0.129381  0  1.000983  0
H  H12  1  0.73881471  0.91308112  0.58223935  1  0  0.084869  0  0.973193  0  0  0.091311  0  1.041496  0  0  0.093684  0  1.038989  0  0  0.113669  0.089296  0  1.044167  0
H  H13  1  0.23881807  0.58223701  0.91308175  1  0  0.084855  0  0.973156  0  0  0.091312  0  1.041427  0  0  0.093684  0  1.038921  0  0  0.11367  0.089293  0  1.044101  0
H  H14  1  0.31423150  0.55976427  0.12569263  1  0  0.084589  0  0.960242  0  0  0.091262  0  1.028271  0  0  0.093437  0  1.025953  0  0  0.116874  0.08965  0  1.03013  0
H  H15  1  0.81423171  0.12569237  0.55976439  1  0  0.08456  0  0.960284  0  0  0.091228  0  1.028324  0  0  0.093399  0  1.026011  0  0  0.11687  0.089612  0  1.030186  0
H  H16  1  0.59116907  0.57574221  0.03144059  1  0  0.113458  0  0.965062  0  0  0.121256  0  1.029437  0  0  0.124682  0  1.028991  0  0  0.107392  0.118732  0  1.030282  0
H  H17  1  0.09117020  0.03144264  0.57574012  1  0  0.113478  0  0.965013  0  0  0.121279  0  1.029391  0  0  0.124706  0  1.028944  0  0  0.107418  0.118755  0  1.030236  0
H  H18  1  0.42023438  0.93234864  0.29776005  1  0  0.113148  0  0.959368  0  0  0.125313  0  1.016679  0  0  0.128508  0  1.016214  0  0  0.108186  0.122902  0  1.017787  0
H  H19  1  0.92023455  0.29776165  0.93234857  1  0  0.11314  0  0.959336  0  0  0.125301  0  1.016652  0  0  0.128498  0  1.016186  0  0  0.108178  0.122889  0  1.017764  0
H  H20  1  0.14762850  0.90793525  0.37252371  1  0  0.082506  0  0.951985  0  0  0.092172  0  1.015761  0  0  0.094786  0  1.012695  0  0  0.116462  0.089847  0  1.01877  0
H  H21  1  0.64762627  0.37252623  0.90793500  1  0  0.082516  0  0.951967  0  0  0.092191  0  1.015741  0  0  0.094804  0  1.012677  0  0  0.116467  0.089864  0  1.018755  0
H  H22  1  0.02145404  0.23611523  0.33516687  1  0  0.110942  0  0.930827  0  0  0.12705  0  0.990269  0  0  0.129059  0  0.989926  0  0  0.102727  0.125743  0  0.990491  0
H  H23  1  0.52145354  0.33516739  0.23611474  1  0  0.110931  0  0.930826  0  0  0.127043  0  0.99027  0  0  0.129051  0  0.989926  0  0  0.102727  0.125733  0  0.990499  0
H  H24  1  0.21977301  0.23258775  0.30252148  1  0  0.104048  0  0.916088  0  0  0.120761  0  0.972603  0  0  0.123278  0  0.971398  0  0  0.100465  0.118822  0  0.973909  0
H  H25  1  0.71977342  0.30252216  0.23258811  1  0  0.104038  0  0.916125  0  0  0.120761  0  0.972633  0  0  0.123277  0  0.971429  0  0  0.100484  0.118822  0  0.97394  0
H  H26  1  0.20438979  0.10262632  0.11818289  1  0  0.103369  0  0.934618  0  0  0.119119  0  0.994518  0  0  0.121198  0  0.994586  0  0  0.099532  0.117755  0  0.994269  0
H  H27  1  0.70438963  0.11818328  0.10262752  1  0  0.10336  0  0.934642  0  0  0.119118  0  0.99454  0  0  0.121195  0  0.994609  0  0  0.099516  0.117747  0  0.994297  0
H  H28  1  0.06461281  0.26358484  0.06575185  1  0  0.088738  0  0.948269  0  0  0.102312  0  1.014186  0  0  0.104989  0  1.012195  0  0  0.094136  0.100078  0  1.016204  0
H  H29  1  0.56461274  0.06575180  0.26358455  1  0  0.08873  0  0.94827  0  0  0.10231  0  1.014189  0  0  0.104989  0  1.012196  0  0  0.094134  0.100074  0  1.016206  0
C  C30  1  0.02780402  0.61215723  0.63785011  1  0  0.145732  0  3.739163  0  0  0.113016  0  3.988053  0  0  0.12356  0  4.005145  0  0  0.038162  0.106523  0  3.975966  0
C  C31  1  0.52780452  0.63785001  0.61215892  1  0  0.145711  0  3.739239  0  0  0.113007  0  3.988114  0  0  0.123552  0  4.005208  0  0  0.038164  0.106516  0  3.976025  0
C  C32  1  0.98975136  0.59261195  0.78896865  1  0  -0.239829  0  3.734324  0  0  -0.256035  0  3.992327  0  0  -0.268323  0  4.013254  0  0  -0.102029  -0.24752  0  3.978929  0
C  C33  1  0.48975295  0.78896898  0.59261214  1  0  -0.239858  0  3.734337  0  0  -0.256022  0  3.992325  0  0  -0.268314  0  4.013254  0  0  -0.102011  -0.247504  0  3.978921  0
C  C34  1  0.85040751  0.69286118  0.87315010  1  0  0.285869  0  3.83669  0  0  0.271142  0  4.091136  0  0  0.287496  0  4.107506  0  0  0.121278  0.260087  0  4.079576  0
C  C35  1  0.35040668  0.87315169  0.69286256  1  0  0.285897  0  3.836677  0  0  0.27116  0  4.091127  0  0  0.287516  0  4.107492  0  0  0.121317  0.260106  0  4.079563  0
C  C36  1  0.75848922  0.81059126  0.79632009  1  0  -0.239636  0  3.724101  0  0  -0.258121  0  3.980423  0  0  -0.270166  0  4.000525  0  0  -0.106219  -0.25058  0  3.967818  0
C  C37  1  0.25848923  0.79631955  0.81059297  1  0  -0.239566  0  3.724119  0  0  -0.258035  0  3.980456  0  0  -0.270082  0  4.000558  0  0  -0.10618  -0.250495  0  3.967848  0
C  C38  1  0.80707449  0.82197597  0.64402215  1  0  0.139387  0  3.751981  0  0  0.107481  0  4.005798  0  0  0.117738  0  4.024273  0  0  0.039063  0.100519  0  3.994149  0
C  C39  1  0.30707603  0.64402190  0.82197677  1  0  0.139385  0  3.752059  0  0  0.10748  0  4.005877  0  0  0.117739  0  4.024352  0  0  0.039031  0.100527  0  3.994223  0
C  C40  1  0.34193652  0.64232160  0.15976132  1  0  0.148154  0  3.735703  0  0  0.11607  0  3.986801  0  0  0.126966  0  4.004016  0  0  0.043133  0.109005  0  3.9748  0
C  C41  1  0.84193586  0.15976301  0.64232056  1  0  0.14823  0  3.735624  0  0  0.116124  0  3.986706  0  0  0.127014  0  4.003917  0  0  0.04314  0.10907  0  3.974695  0
C  C42  1  0.49655991  0.65056659  0.10794350  1  0  -0.232915  0  3.722171  0  0  -0.252284  0  3.979913  0  0  -0.264066  0  3.999742  0  0  -0.101891  -0.244945  0  3.967232  0
C  C43  1  0.99656098  0.10794717  0.65056533  1  0  -0.232964  0  3.722016  0  0  -0.252346  0  3.979814  0  0  -0.264127  0  3.99964  0  0  -0.101936  -0.24501  0  3.967135  0
C  C44  1  0.53149349  0.75446237  0.15752007  1  0  0.289684  0  3.830542  0  0  0.273874  0  4.084865  0  0  0.29076  0  4.100519  0  0  0.124597  0.262559  0  4.074076  0
C  C45  1  0.03149121  0.15752085  0.75446378  1  0  0.289815  0  3.830378  0  0  0.273949  0  4.084749  0  0  0.290851  0  4.100407  0  0  0.124653  0.262629  0  4.073963  0
C  C46  1  0.40207071  0.84874541  0.25626102  1  0  -0.234466  0  3.726443  0  0  -0.249117  0  3.978319  0  0  -0.26122  0  3.99874  0  0  -0.0991  -0.241125  0  3.964922  0
C  C47  1  0.90206963  0.25626308  0.84874585  1  0  -0.234454  0  3.726417  0  0  -0.24909  0  3.978313  0  0  -0.261192  0  3.998732  0  0  -0.099091  -0.241096  0  3.964917  0
C  C48  1  0.25087422  0.83482746  0.29961496  1  0  0.138658  0  3.75542  0  0  0.103872  0  4.007754  0  0  0.114551  0  4.024709  0  0  0.037596  0.096966  0  3.996816  0
C  C49  1  0.75087362  0.29961695  0.83482659  1  0  0.138603  0  3.755507  0  0  0.10378  0  4.007809  0  0  0.11445  0  4.024762  0  0  0.037564  0.096876  0  3.996873  0
C  C50  1  0.06447183  0.44336551  0.24970280  1  0  0.699765  0  3.838203  0  0  0.655664  0  4.13121  0  0  0.688607  0  4.124594  0  0  0.209972  0.633522  0  4.134711  0
C  C51  1  0.56447234  0.24970323  0.44336572  1  0  0.699773  0  3.838204  0  0  0.655652  0  4.131247  0  0  0.688594  0  4.124631  0  0  0.209967  0.633509  0  4.134746  0
C  C52  1  0.11957498  0.27641510  0.25605984  1  0  -0.241683  0  3.697886  0  0  -0.282704  0  3.950371  0  0  -0.288063  0  3.959309  0  0  -0.166071  -0.279196  0  3.944427  0
C  C53  1  0.61957573  0.25605979  0.27641512  1  0  -0.241662  0  3.697882  0  0  -0.282687  0  3.950399  0  0  -0.288049  0  3.959344  0  0  -0.166086  -0.279178  0  3.944456  0
C  C54  1  0.16810880  0.22388645  0.10707236  1  0  -0.237313  0  3.722539  0  0  -0.281651  0  3.982622  0  0  -0.286866  0  3.991023  0  0  -0.169774  -0.277952  0  3.976696  0
C  C55  1  0.66810898  0.10707230  0.22388704  1  0  -0.237291  0  3.722504  0  0  -0.281673  0  3.982646  0  0  -0.286881  0  3.991031  0  0  -0.169779  -0.277966  0  3.976709  0
C  C56  1  0.30560270  0.27235085  0.99145356  1  0  0.682848  0  3.846095  0  0  0.635757  0  4.146344  0  0  0.668818  0  4.139435  0  0  0.201258  0.613385  0  4.149954  0
C  C57  1  0.80560210  0.99145114  0.27235116  1  0  0.682816  0  3.846106  0  0  0.635742  0  4.146345  0  0  0.668804  0  4.139434  0  0  0.201271  0.61337  0  4.149948  0
N  N58  1  0.21862826  0.73304277  0.25376213  1  0  -0.374328  0  3.329557  0  0  -0.287894  0  3.613555  0  0  -0.3103  0  3.626572  0  0  -0.353233  -0.272412  0  3.605015  0
N  N59  1  0.71862669  0.25376445  0.73304317  1  0  -0.374381  0  3.329617  0  0  -0.28784  0  3.613507  0  0  -0.310224  0  3.626499  0  0  -0.353223  -0.272365  0  3.604968  0
N  N60  1  0.68115351  0.76921472  0.10981855  1  0  -0.265429  0  3.332476  0  0  -0.220071  0  3.577337  0  0  -0.235898  0  3.589589  0  0  -0.318834  -0.208467  0  3.568122  0
N  N61  1  0.18115309  0.10981927  0.76921509  1  0  -0.265492  0  3.332455  0  0  -0.220056  0  3.577283  0  0  -0.235929  0  3.589571  0  0  -0.318844  -0.208449  0  3.56808  0
N  N62  1  0.80888005  0.66771665  0.02316788  1  0  -0.281711  0  3.342705  0  0  -0.237791  0  3.588727  0  0  -0.253875  0  3.601367  0  0  -0.325014  -0.226392  0  3.579424  0
N  N63  1  0.30887883  0.02316786  0.66771706  1  0  -0.281709  0  3.342828  0  0  -0.23782  0  3.588872  0  0  -0.253888  0  3.601521  0  0  -0.325034  -0.226424  0  3.57957  0
N  N64  1  0.93837471  0.72456090  0.56414943  1  0  -0.380243  0  3.325643  0  0  -0.295019  0  3.606701  0  0  -0.317613  0  3.621378  0  0  -0.358752  -0.278973  0  3.596543  0
N  N65  1  0.43837754  0.56414824  0.72456104  1  0  -0.380278  0  3.32572  0  0  -0.295056  0  3.606783  0  0  -0.317653  0  3.621458  0  0  -0.358755  -0.279018  0  3.596629  0
O  O66  1  0.02948973  0.49582583  0.37026784  1  0  -0.647953  0  2.009531  0  0  -0.57847  0  2.27193  0  0  -0.606994  0  2.257934  0  0  -0.337256  -0.558804  0  2.280595  0
O  O67  1  0.52948969  0.37026760  0.49582628  1  0  -0.647952  0  2.009512  0  0  -0.57847  0  2.271919  0  0  -0.606991  0  2.257921  0  0  -0.337265  -0.558803  0  2.280589  0
O  O68  1  0.05672999  0.52361290  0.12964846  1  0  -0.644823  0  1.989421  0  0  -0.588651  0  2.219861  0  0  -0.612038  0  2.209415  0  0  -0.323336  -0.572364  0  2.226583  0
O  O69  1  0.55672898  0.12964955  0.52361377  1  0  -0.644822  0  1.989451  0  0  -0.58862  0  2.219871  0  0  -0.612006  0  2.209426  0  0  -0.323325  -0.572333  0  2.226592  0
O  O70  1  0.40168137  0.30682506  0.02509252  1  0  -0.603348  0  1.909782  0  0  -0.5538  0  2.133057  0  0  -0.57791  0  2.12624  0  0  -0.312466  -0.536884  0  2.137228  0
O  O71  1  0.90168221  0.02509207  0.30682578  1  0  -0.603387  0  1.909748  0  0  -0.553794  0  2.132951  0  0  -0.577906  0  2.126131  0  0  -0.312476  -0.536882  0  2.137118  0
O  O72  1  0.31585551  0.27288374  0.85380450  1  0  -0.673659  0  2.045357  0  0  -0.590055  0  2.313741  0  0  -0.617729  0  2.295075  0  0  -0.336292  -0.570822  0  2.32657  0
O  O73  1  0.81585551  0.85380422  0.27288345  1  0  -0.673611  0  2.04544  0  0  -0.590016  0  2.313815  0  0  -0.61769  0  2.29515  0  0  -0.33627  -0.570787  0  2.326635  0
