# generated using pymatgen
data_SmCu2H8C8(N3O4)3
_symmetry_space_group_name_H-M   'P 1'
_cell_length_a   7.30579120
_cell_length_b   11.20289700
_cell_length_c   11.87944777
_cell_angle_alpha   101.89379572
_cell_angle_beta   90.00012737
_cell_angle_gamma   89.99945293
_symmetry_Int_Tables_number   1
_chemical_formula_structural   SmCu2H8C8(N3O4)3
_chemical_formula_sum   'Sm2 Cu4 H16 C16 N18 O24'
_cell_volume   951.41189405
_cell_formula_units_Z   2
loop_
 _symmetry_equiv_pos_site_id
 _symmetry_equiv_pos_as_xyz
  1  'x, y, z'
loop_
 _atom_site_type_symbol
 _atom_site_label
 _atom_site_symmetry_multiplicity
 _atom_site_fract_x
 _atom_site_fract_y
 _atom_site_fract_z
 _atom_site_occupancy
 _atom_site_hle17_ddec_charge
 _atom_site_hle17_ddec_spin_density
 _atom_site_hle17_ddec_sum_bond_order
 _atom_site_hle17_magmom
 _atom_site_hse06_10hf_ddec_charge
 _atom_site_hse06_10hf_ddec_spin_density
 _atom_site_hse06_10hf_ddec_sum_bond_order
 _atom_site_hse06_10hf_magmom
 _atom_site_hse06_ddec_charge
 _atom_site_hse06_ddec_spin_density
 _atom_site_hse06_ddec_sum_bond_order
 _atom_site_hse06_magmom
 _atom_site_pbe_cm5_charge
 _atom_site_pbe_ddec_charge
 _atom_site_pbe_ddec_spin_density
 _atom_site_pbe_ddec_sum_bond_order
 _atom_site_pbe_magmom
Sm  Sm0  1  0.49816413  0.25000033  0.49999876  1  2.372177  0.000684  1.62151  0.001  2.280829  0.000901  1.978169  0.001  2.31993  0.000507  1.934476  0.001  1.52008  2.252205  0.00131  2.009075  0.001
Sm  Sm1  1  0.50183701  0.74999799  0.50000037  1  2.372143  0.000684  1.621496  0.001  2.280785  0.000902  1.97816  0.001  2.319884  0.000508  1.934466  0.001  1.520067  2.25217  0.001311  2.009072  0.001
Cu  Cu2  1  0.13758173  0.88821606  0.07461830  1  0.735513  0.658835  2.071575  0.484  0.705455  0.761196  2.504552  0.613  0.79421  0.832628  2.436117  0.707  0.803771  0.655285  0.711  2.550462  0.552
Cu  Cu3  1  0.13758939  0.61178855  0.92538455  1  0.735541  0.658836  2.071572  0.484  0.70533  0.761201  2.504796  0.613  0.794263  0.832636  2.436127  0.707  0.803754  0.65514  0.711014  2.550802  0.552
Cu  Cu4  1  0.86241393  0.11178776  0.92538113  1  0.735563  0.658821  2.071484  0.484  0.705395  0.761189  2.504673  0.613  0.794308  0.832624  2.436028  0.707  0.803748  0.655271  0.71099  2.55051  0.552
Cu  Cu5  1  0.86241175  0.38821440  0.07461133  1  0.735556  0.658809  2.071592  0.484  0.705345  0.761167  2.504839  0.613  0.794283  0.832623  2.436101  0.707  0.803785  0.655154  0.711  2.550853  0.552
H  H6  1  0.77378106  0.04907510  0.42092906  1  0.43284  1.3e-05  0.870124  0.0  0.402789  1.6e-05  0.932304  0.0  0.414749  9e-06  0.914811  0.0  0.296005  0.394325  3.7e-05  0.944647  0.0
H  H7  1  0.77377566  0.45092466  0.57907624  1  0.432794  1.3e-05  0.870204  0.0  0.402753  1.6e-05  0.932365  0.0  0.414714  9e-06  0.914873  0.0  0.295998  0.394294  3.7e-05  0.944703  0.0
H  H8  1  0.22622145  0.95092314  0.57907594  1  0.432807  1.3e-05  0.87018  0.0  0.402755  1.6e-05  0.932361  0.0  0.414717  9e-06  0.914866  0.0  0.295991  0.394289  3.7e-05  0.944708  0.0
H  H9  1  0.22622548  0.54907632  0.42092849  1  0.432838  1.3e-05  0.870116  0.0  0.402805  1.6e-05  0.932265  0.0  0.414764  9e-06  0.914776  0.0  0.295998  0.394344  3.7e-05  0.944605  0.0
H  H10  1  0.69885042  0.03476787  0.54226963  1  0.438327  -0.000118  0.861155  0.0  0.407678  -5.6e-05  0.925138  0.0  0.41918  -4.4e-05  0.908009  0.0  0.304002  0.399528  -4.7e-05  0.937275  0.0
H  H11  1  0.69884985  0.46522876  0.45773155  1  0.438262  -0.000118  0.861215  0.0  0.407607  -5.6e-05  0.925211  0.0  0.41911  -4.4e-05  0.908081  0.0  0.303952  0.399456  -4.7e-05  0.937348  0.0
H  H12  1  0.30115072  0.96523313  0.45773427  1  0.438248  -0.000118  0.861231  0.0  0.407587  -5.5e-05  0.925242  0.0  0.419092  -4.4e-05  0.908109  0.0  0.303931  0.399435  -4.7e-05  0.937381  0.0
H  H13  1  0.30115813  0.53476590  0.54226850  1  0.438306  -0.000118  0.8612  0.0  0.407647  -5.6e-05  0.925199  0.0  0.419151  -4.5e-05  0.908069  0.0  0.303956  0.399495  -4.7e-05  0.937339  0.0
H  H14  1  0.67792771  0.28466617  0.27065014  1  0.444581  -7.8e-05  0.844155  0.0  0.414018  2.2e-05  0.906766  0.0  0.424664  -4.8e-05  0.891306  0.0  0.303101  0.406634  0.000125  0.917504  0.0
H  H15  1  0.67793177  0.21533427  0.72934928  1  0.444521  -7.8e-05  0.844242  0.0  0.413891  2.2e-05  0.90692  0.0  0.424545  -4.8e-05  0.891455  0.0  0.303078  0.406516  0.000125  0.917643  0.0
H  H16  1  0.32207617  0.71533307  0.72934918  1  0.444512  -7.8e-05  0.84425  0.0  0.413852  2.2e-05  0.906971  0.0  0.424507  -4.8e-05  0.891504  0.0  0.303042  0.406477  0.000125  0.917693  0.0
H  H17  1  0.32206663  0.78466491  0.27065424  1  0.444534  -7.8e-05  0.844216  0.0  0.413889  2.2e-05  0.906918  0.0  0.424544  -4.8e-05  0.891452  0.0  0.303075  0.406507  0.000124  0.917651  0.0
H  H18  1  0.72893347  0.14720294  0.27538716  1  0.447465  -4.5e-05  0.817697  0.0  0.424985  -3.6e-05  0.870675  0.0  0.432719  -2.3e-05  0.859463  0.0  0.321187  0.419552  -2.6e-05  0.878576  0.0
H  H19  1  0.72893413  0.35279900  0.72461348  1  0.447451  -4.5e-05  0.817684  0.0  0.424962  -3.6e-05  0.870702  0.0  0.432696  -2.3e-05  0.859489  0.0  0.32118  0.419532  -2.5e-05  0.878599  0.0
H  H20  1  0.27107178  0.85279630  0.72461216  1  0.447463  -4.5e-05  0.817656  0.0  0.424979  -3.7e-05  0.870675  0.0  0.432713  -2.3e-05  0.859463  0.0  0.32119  0.41955  -2.5e-05  0.878573  0.0
H  H21  1  0.27107111  0.64720019  0.27538920  1  0.447469  -4.5e-05  0.817673  0.0  0.424977  -3.6e-05  0.870686  0.0  0.432712  -2.3e-05  0.859472  0.0  0.321186  0.419546  -2.5e-05  0.878585  0.0
C  C22  1  0.20145592  0.35751494  0.30794930  1  0.702801  -0.000552  3.889741  0.0  0.658285  0.00012  4.178852  0.0  0.692847  0.000188  4.167526  0.0  0.236499  0.634687  1.1e-05  4.185997  0.0
C  C23  1  0.20146639  0.14248934  0.69205106  1  0.702768  -0.000553  3.88961  0.0  0.658277  0.000118  4.178737  0.0  0.692838  0.000187  4.167417  0.0  0.236525  0.634667  1.1e-05  4.185884  0.0
C  C24  1  0.79854248  0.64249063  0.69205470  1  0.702809  -0.000552  3.889866  0.0  0.658343  0.000119  4.178955  0.0  0.692907  0.000188  4.167632  0.0  0.236556  0.634721  1.2e-05  4.186102  0.0
C  C25  1  0.79853748  0.85750983  0.30795246  1  0.702893  -0.000555  3.889548  0.0  0.65835  0.000119  4.178691  0.0  0.692914  0.000188  4.167371  0.0  0.236547  0.634741  1.1e-05  4.185832  0.0
C  C26  1  0.28129075  0.03982009  0.27455896  1  0.699542  -0.008869  3.821155  -0.008  0.651098  -0.002804  4.115633  -0.003  0.689267  -0.002412  4.105413  -0.002  0.245527  0.624893  -0.002514  4.122688  -0.003
C  C27  1  0.28130763  0.46018553  0.72544178  1  0.699571  -0.008866  3.820981  -0.008  0.651306  -0.002805  4.115192  -0.003  0.689473  -0.002413  4.104977  -0.002  0.245707  0.625109  -0.002511  4.12226  -0.003
C  C28  1  0.71868986  0.96018276  0.72544363  1  0.699366  -0.008868  3.821509  -0.008  0.651206  -0.002805  4.115539  -0.003  0.689373  -0.002413  4.105325  -0.002  0.245638  0.625007  -0.002512  4.122608  -0.003
C  C29  1  0.71869487  0.53981190  0.27455632  1  0.699483  -0.008863  3.821178  -0.008  0.65124  -0.002805  4.115351  -0.003  0.689406  -0.002412  4.105138  -0.002  0.245713  0.62505  -0.002513  4.122414  -0.003
C  C30  1  0.13686125  0.24666348  0.22506946  1  0.023975  0.00436  3.659453  0.006  0.021295  0.001951  3.912468  0.004  0.022647  0.00108  3.923881  0.002  0.113844  0.020113  0.002823  3.905005  0.005
C  C31  1  0.13686492  0.25333951  0.77492212  1  0.02383  0.004365  3.659351  0.006  0.021061  0.001952  3.912464  0.004  0.022415  0.001081  3.923874  0.002  0.113677  0.019921  0.002825  3.904968  0.005
C  C32  1  0.86313030  0.75333853  0.77492791  1  0.023902  0.004357  3.659529  0.006  0.021057  0.001952  3.912702  0.004  0.022405  0.001081  3.924115  0.002  0.113715  0.01995  0.002825  3.905162  0.005
C  C33  1  0.86313485  0.74665516  0.22507710  1  0.023739  0.004372  3.65956  0.006  0.021067  0.001951  3.912563  0.004  0.022415  0.001082  3.923971  0.002  0.113677  0.019903  0.002826  3.905089  0.005
C  C34  1  0.18304879  0.12261144  0.21264629  1  -0.00626  -0.003055  3.68237  0.002  -0.010008  -0.000593  3.936119  0.003  -0.008199  -0.002387  3.948422  0.001  0.101488  -0.010823  0.001262  3.927942  0.004
C  C35  1  0.18305890  0.37738934  0.78735163  1  -0.006103  -0.003058  3.682249  0.002  -0.009893  -0.000591  3.936001  0.003  -0.008084  -0.002386  3.948319  0.001  0.10158  -0.010717  0.001265  3.927829  0.004
C  C36  1  0.81694277  0.87738778  0.78735471  1  -0.006096  -0.00305  3.682323  0.002  -0.009867  -0.000591  3.936007  0.003  -0.008058  -0.002386  3.948326  0.001  0.10156  -0.010705  0.001264  3.927833  0.004
C  C37  1  0.81694498  0.62260807  0.21264731  1  -0.005997  -0.003064  3.682473  0.002  -0.009831  -0.000589  3.936188  0.003  -0.008023  -0.002386  3.948511  0.001  0.101554  -0.01065  0.001264  3.92802  0.004
N  N38  1  0.02271187  0.25423156  0.13687408  1  -0.216255  0.016926  3.203111  0.024  -0.196249  0.01107  3.511347  0.017  -0.209502  0.005174  3.527983  0.01  -0.223174  -0.18652  0.017297  3.500911  0.024
N  N39  1  0.02270502  0.24577947  0.86311647  1  -0.216242  0.016932  3.202881  0.024  -0.196163  0.011073  3.511107  0.017  -0.209418  0.005177  3.527755  0.01  -0.223087  -0.186445  0.017302  3.500644  0.024
N  N40  1  0.97728379  0.74577868  0.86312415  1  -0.216348  0.016934  3.203003  0.024  -0.19627  0.01107  3.51125  0.017  -0.20952  0.005173  3.527884  0.01  -0.223139  -0.18656  0.017299  3.500796  0.024
N  N41  1  0.97729475  0.75421981  0.13688033  1  -0.216287  0.016932  3.202796  0.024  -0.19629  0.011076  3.510964  0.017  -0.209515  0.005178  3.527603  0.01  -0.223141  -0.186556  0.017307  3.500503  0.024
N  N42  1  0.09661761  0.06344900  0.11632332  1  -0.216994  0.056709  3.37281  0.074  -0.20129  0.044437  3.715467  0.063  -0.219563  0.035331  3.730656  0.054  -0.257711  -0.191327  0.049649  3.707515  0.066
N  N43  1  0.09661488  0.43655326  0.88367225  1  -0.216982  0.056718  3.372687  0.074  -0.201243  0.044442  3.715362  0.063  -0.219567  0.035337  3.73057  0.054  -0.257645  -0.191275  0.049649  3.707437  0.066
N  N44  1  0.90337805  0.93655297  0.88367657  1  -0.217133  0.056711  3.372782  0.074  -0.201438  0.044439  3.715476  0.063  -0.219746  0.035333  3.730666  0.054  -0.257754  -0.191481  0.049649  3.707528  0.066
N  N45  1  0.90338899  0.56345058  0.11632550  1  -0.217084  0.056728  3.37275  0.074  -0.201341  0.044446  3.715367  0.063  -0.219659  0.035337  3.730557  0.054  -0.257655  -0.19137  0.049654  3.70744  0.066
N  N46  1  0.00120361  0.14314163  0.07322962  1  -0.047121  0.061104  3.309143  0.077  -0.020344  0.054116  3.639953  0.073  -0.036534  0.044478  3.662006  0.065  -0.137449  -0.012729  0.058375  3.628366  0.075
N  N47  1  0.00118988  0.35686403  0.92676147  1  -0.047148  0.061097  3.309394  0.077  -0.02039  0.054114  3.640235  0.073  -0.036568  0.044475  3.662267  0.065  -0.137503  -0.012768  0.058366  3.628686  0.075
N  N48  1  0.99879753  0.85686309  0.92677000  1  -0.04685  0.061099  3.309016  0.077  -0.020053  0.054115  3.639714  0.073  -0.036214  0.044477  3.661773  0.065  -0.137327  -0.012431  0.05837  3.628137  0.075
N  N49  1  0.99881263  0.64313711  0.07323319  1  -0.047065  0.061093  3.309288  0.077  -0.020213  0.05411  3.639982  0.073  -0.036396  0.044473  3.662019  0.065  -0.137418  -0.012593  0.058365  3.628422  0.075
N  N50  1  0.30338711  0.75000497  0.99999053  1  -0.51347  0.13076  2.954684  0.166  -0.591682  0.06114  3.377461  0.085  -0.648512  0.038254  3.389969  0.062  -0.373319  -0.560042  0.073564  3.372881  0.094
N  N51  1  0.69661266  0.24999985  0.00000321  1  -0.513498  0.130713  2.954814  0.166  -0.591636  0.061125  3.377528  0.085  -0.648479  0.038239  3.390037  0.062  -0.373349  -0.560049  0.073547  3.37291  0.094
N  N52  1  0.46920994  0.75000194  0.00000137  1  0.392158  -0.07531  4.105434  -0.071  0.457608  -0.017942  4.426349  -0.018  0.4813  -0.021963  4.46197  -0.019  0.101371  0.442933  -0.011697  4.403911  -0.014
N  N53  1  0.53080078  0.24999919  0.99999413  1  0.39235  -0.075344  4.105519  -0.071  0.457776  -0.017955  4.426405  -0.018  0.481446  -0.021983  4.462072  -0.019  0.101434  0.44318  -0.011712  4.403852  -0.014
N  N54  1  0.62791965  0.75000041  0.00000959  1  -0.227914  0.16024  2.35268  0.184  -0.284067  0.069389  2.595062  0.083  -0.298814  0.051696  2.612171  0.066  -0.134513  -0.275906  0.081948  2.584465  0.093
N  N55  1  0.37208012  0.24999615  0.99998581  1  -0.228098  0.16033  2.352635  0.184  -0.284246  0.069422  2.595007  0.083  -0.298993  0.051726  2.612138  0.066  -0.134585  -0.276115  0.081987  2.584348  0.093
O  O56  1  0.30627031  0.33802036  0.38810145  1  -0.766793  0.002976  2.071792  0.004  -0.721026  0.001302  2.325115  0.002  -0.745332  0.000506  2.310722  0.001  -0.43403  -0.703356  0.002524  2.334295  0.003
O  O57  1  0.30628295  0.16197596  0.61189824  1  -0.766721  0.002976  2.071616  0.004  -0.720955  0.001301  2.324931  0.002  -0.74526  0.000506  2.310539  0.001  -0.433973  -0.703286  0.002524  2.334116  0.003
O  O58  1  0.69373219  0.66197610  0.61189981  1  -0.766714  0.002975  2.071681  0.004  -0.720953  0.001301  2.324997  0.002  -0.745251  0.000506  2.310587  0.001  -0.433999  -0.703285  0.002524  2.334194  0.003
O  O59  1  0.69372777  0.83801954  0.38810619  1  -0.766778  0.002975  2.071721  0.004  -0.721  0.001301  2.32503  0.002  -0.745297  0.000506  2.310621  0.001  -0.434029  -0.703344  0.002523  2.334245  0.003
O  O60  1  0.34611323  0.07339042  0.37415909  1  -0.680801  0.011227  2.088  0.015  -0.636417  0.007373  2.330518  0.011  -0.661791  0.003429  2.317241  0.005  -0.341678  -0.618466  0.01144  2.339248  0.015
O  O61  1  0.34613572  0.42661294  0.62584297  1  -0.680882  0.011221  2.088008  0.015  -0.636544  0.007372  2.330461  0.011  -0.661914  0.003428  2.317176  0.005  -0.341813  -0.618594  0.011436  2.339203  0.015
O  O62  1  0.65386875  0.92661423  0.62584556  1  -0.680798  0.011223  2.088211  0.015  -0.636514  0.007373  2.330611  0.011  -0.661885  0.003429  2.317326  0.005  -0.341744  -0.61856  0.011436  2.339355  0.015
O  O63  1  0.65386815  0.57338086  0.37415270  1  -0.680798  0.011219  2.088126  0.015  -0.636477  0.007372  2.330556  0.011  -0.661847  0.003428  2.317275  0.005  -0.341764  -0.618529  0.011435  2.339298  0.015
O  O64  1  0.72599273  0.09707260  0.49603306  1  -0.942888  9.8e-05  1.842405  0.0  -0.902141  3.2e-05  2.024149  0.0  -0.919657  -2.3e-05  1.987699  0.0  -0.668207  -0.889666  0.000205  2.049788  0.0
O  O65  1  0.72599050  0.40292292  0.50396961  1  -0.942792  9.8e-05  1.84253  0.0  -0.902042  3.2e-05  2.024267  0.0  -0.91956  -2.4e-05  1.987817  0.0  -0.668152  -0.889568  0.000206  2.049897  0.0
O  O66  1  0.27400841  0.90292294  0.50396886  1  -0.942809  9.8e-05  1.842515  0.0  -0.902039  3.2e-05  2.024236  0.0  -0.919557  -2.4e-05  1.987786  0.0  -0.668127  -0.889553  0.000205  2.04987  0.0
O  O67  1  0.27401474  0.59707261  0.49603315  1  -0.94289  9.8e-05  1.842443  0.0  -0.90215  3.3e-05  2.024187  0.0  -0.919664  -2.3e-05  1.987737  0.0  -0.668161  -0.889684  0.000206  2.049841  0.0
O  O68  1  0.63959021  0.21204891  0.29984518  1  -0.895298  0.00021  1.820092  0.0  -0.852704  0.00011  1.990844  0.0  -0.870365  3e-06  1.962212  0.0  -0.619293  -0.840241  0.00024  2.010588  0.0
O  O69  1  0.63959037  0.28795267  0.70015525  1  -0.895239  0.00021  1.820151  0.0  -0.852549  0.00011  1.991075  0.0  -0.870222  3e-06  1.962422  0.0  -0.61926  -0.840086  0.000242  2.010808  0.0
O  O70  1  0.36041777  0.78795122  0.70015601  1  -0.895229  0.00021  1.820106  0.0  -0.852528  0.00011  1.991119  0.0  -0.870198  4e-06  1.96246  0.0  -0.619231  -0.840062  0.000242  2.010852  0.0
O  O71  1  0.36041487  0.71204657  0.29984407  1  -0.895232  0.00021  1.82007  0.0  -0.85254  0.00011  1.990996  0.0  -0.870214  4e-06  1.962345  0.0  -0.61926  -0.840072  0.000241  2.010737  0.0
O  O72  1  0.15226265  0.46162561  0.29462518  1  -0.598609  0.001705  1.89187  0.003  -0.555498  0.000413  2.10136  0.001  -0.581011  -0.000123  2.092026  0.0  -0.304154  -0.53753  0.001274  2.107387  0.002
O  O73  1  0.15226922  0.03837899  0.70537432  1  -0.59861  0.001706  1.891841  0.003  -0.555501  0.000414  2.101335  0.001  -0.581015  -0.000123  2.092002  0.0  -0.304223  -0.537532  0.001275  2.107368  0.002
O  O74  1  0.84773438  0.53837997  0.70537798  1  -0.598687  0.001705  1.891939  0.003  -0.555564  0.000413  2.101395  0.001  -0.581075  -0.000123  2.092055  0.0  -0.304238  -0.537593  0.001275  2.107428  0.002
O  O75  1  0.84773465  0.96161934  0.29462481  1  -0.598655  0.001707  1.891768  0.003  -0.555524  0.000414  2.101268  0.001  -0.581032  -0.000123  2.09192  0.0  -0.304195  -0.537553  0.001274  2.107291  0.002
O  O76  1  0.28778310  0.92735273  0.21963690  1  -0.565504  0.090377  2.032986  0.123  -0.521229  0.06459  2.288278  0.097  -0.565331  0.047989  2.281114  0.078  -0.296545  -0.493945  0.073766  2.294321  0.105
O  O77  1  0.28779491  0.57265181  0.78036951  1  -0.56549  0.090363  2.033036  0.123  -0.521284  0.064584  2.288317  0.097  -0.565416  0.047985  2.281139  0.078  -0.296597  -0.493993  0.07375  2.294361  0.105
O  O78  1  0.71219751  0.07265098  0.78036924  1  -0.565423  0.090375  2.033094  0.123  -0.521262  0.06459  2.288317  0.097  -0.565389  0.047991  2.281142  0.078  -0.2966  -0.493985  0.073757  2.294364  0.105
O  O79  1  0.71220897  0.42734654  0.21962794  1  -0.565509  0.090359  2.032993  0.123  -0.521328  0.064584  2.288291  0.097  -0.56546  0.047984  2.281096  0.078  -0.296644  -0.494034  0.073751  2.294341  0.105
