# generated using pymatgen
data_AgH5C7N3ClO3
_symmetry_space_group_name_H-M   'P 1'
_cell_length_a   7.10729370
_cell_length_b   9.63119170
_cell_length_c   13.70276568
_cell_angle_alpha   95.55308518
_cell_angle_beta   89.99972094
_cell_angle_gamma   90.00045422
_symmetry_Int_Tables_number   1
_chemical_formula_structural   AgH5C7N3ClO3
_chemical_formula_sum   'Ag4 H20 C28 N12 Cl4 O12'
_cell_volume   933.57575843
_cell_formula_units_Z   4
loop_
 _symmetry_equiv_pos_site_id
 _symmetry_equiv_pos_as_xyz
  1  'x, y, z'
loop_
 _atom_site_type_symbol
 _atom_site_label
 _atom_site_symmetry_multiplicity
 _atom_site_fract_x
 _atom_site_fract_y
 _atom_site_fract_z
 _atom_site_occupancy
 _atom_site_hle17_bader_spin_density
 _atom_site_hle17_ddec_charge
 _atom_site_hle17_ddec_spin_density
 _atom_site_hle17_ddec_sum_bond_order
 _atom_site_hle17_magmom
 _atom_site_hse06_10hf_bader_spin_density
 _atom_site_hse06_10hf_ddec_charge
 _atom_site_hse06_10hf_ddec_spin_density
 _atom_site_hse06_10hf_ddec_sum_bond_order
 _atom_site_hse06_10hf_magmom
 _atom_site_hse06_bader_spin_density
 _atom_site_hse06_ddec_charge
 _atom_site_hse06_ddec_spin_density
 _atom_site_hse06_ddec_sum_bond_order
 _atom_site_hse06_magmom
 _atom_site_pbe_bader_spin_density
 _atom_site_pbe_cm5_charge
 _atom_site_pbe_ddec_charge
 _atom_site_pbe_ddec_spin_density
 _atom_site_pbe_ddec_sum_bond_order
 _atom_site_pbe_magmom
Ag  Ag0  1  0.97843070  0.16501272  0.06357913  1  0  0.620204  0  1.348288  0  0  0.495545  0  1.789492  0  0  0.519859  0  1.742956  0  0  0.470035  0.479134  0  1.821492  0
Ag  Ag1  1  0.47840835  0.33498188  0.43641400  1  0  0.620145  0  1.348308  0  0  0.495485  0  1.789383  0  0  0.51981  0  1.742851  0  0  0.470035  0.479077  0  1.821385  0
Ag  Ag2  1  0.02157947  0.83498377  0.93641449  1  0  0.620217  0  1.348121  0  0  0.495537  0  1.789293  0  0  0.519858  0  1.742755  0  0  0.470029  0.479128  0  1.821294  0
Ag  Ag3  1  0.52158916  0.66503224  0.56359766  1  0  0.620078  0  1.348269  0  0  0.495435  0  1.789356  0  0  0.519754  0  1.742826  0  0  0.470015  0.479028  0  1.821361  0
H  H4  1  0.96926188  0.34545445  0.74515593  1  0  0.105804  0  0.960529  0  0  0.112801  0  1.027774  0  0  0.115473  0  1.026564  0  0  0.10295  0.11085  0  1.028514  0
H  H5  1  0.46927442  0.15455596  0.75483539  1  0  0.105746  0  0.960597  0  0  0.112839  0  1.027749  0  0  0.115511  0  1.02654  0  0  0.103011  0.1109  0  1.028479  0
H  H6  1  0.03074266  0.65453059  0.25483322  1  0  0.105771  0  0.96043  0  0  0.112881  0  1.02758  0  0  0.115584  0  1.026332  0  0  0.102988  0.110892  0  1.028367  0
H  H7  1  0.53072731  0.84545817  0.24517336  1  0  0.10566  0  0.960547  0  0  0.112831  0  1.027636  0  0  0.115507  0  1.026419  0  0  0.102954  0.110841  0  1.028418  0
H  H8  1  0.78830061  0.91971974  0.66449911  1  0  0.13236  0  0.941907  0  0  0.140208  0  1.005321  0  0  0.14399  0  1.001761  0  0  0.111363  0.137735  0  1.007502  0
H  H9  1  0.28829047  0.58028429  0.83549106  1  0  0.132436  0  0.94173  0  0  0.140298  0  1.005116  0  0  0.144078  0  1.001556  0  0  0.111402  0.137826  0  1.007298  0
H  H10  1  0.21171941  0.08026536  0.33548129  1  0  0.132185  0  0.941908  0  0  0.140144  0  1.005212  0  0  0.143932  0  1.001645  0  0  0.111363  0.137673  0  1.007388  0
H  H11  1  0.71169437  0.41972666  0.16452621  1  0  0.132375  0  0.941744  0  0  0.140219  0  1.005154  0  0  0.143999  0  1.001591  0  0  0.111385  0.137749  0  1.007332  0
H  H12  1  0.75823705  0.15054360  0.37664995  1  0  0.310272  0  0.940088  0  0  0.289366  0  1.013754  0  0  0.297043  0  1.007436  0  0  0.283137  0.283836  0  1.018311  0
H  H13  1  0.25825436  0.34945921  0.12334141  1  0  0.310234  0  0.940231  0  0  0.28937  0  1.013857  0  0  0.29704  0  1.007543  0  0  0.283148  0.283841  0  1.018414  0
H  H14  1  0.24174357  0.84945604  0.62334097  1  0  0.310272  0  0.940184  0  0  0.289417  0  1.013809  0  0  0.297087  0  1.007496  0  0  0.283151  0.283889  0  1.018369  0
H  H15  1  0.74174315  0.65054446  0.87667169  1  0  0.310316  0  0.940169  0  0  0.289335  0  1.013943  0  0  0.297007  0  1.00763  0  0  0.283138  0.283809  0  1.018495  0
H  H16  1  0.85560675  0.30588773  0.40736661  1  0  0.322095  0  0.902052  0  0  0.304887  0  0.966642  0  0  0.31244  0  0.960513  0  0  0.296117  0.299379  0  0.971105  0
H  H17  1  0.35562686  0.19411977  0.09262629  1  0  0.32201  0  0.90213  0  0  0.304828  0  0.96669  0  0  0.312376  0  0.960561  0  0  0.296146  0.299302  0  0.971169  0
H  H18  1  0.14438091  0.69410982  0.59262489  1  0  0.322004  0  0.902104  0  0  0.304812  0  0.966694  0  0  0.312361  0  0.960562  0  0  0.296106  0.299289  0  0.971178  0
H  H19  1  0.64437206  0.80588600  0.90738477  1  0  0.322006  0  0.902193  0  0  0.304831  0  0.966729  0  0  0.312375  0  0.960605  0  0  0.296126  0.299321  0  0.971196  0
H  H20  1  0.91482875  0.39906389  0.57395283  1  0  0.121615  0  0.94173  0  0  0.129997  0  1.002121  0  0  0.13335  0  1.000977  0  0  0.110349  0.12784  0  1.00267  0
H  H21  1  0.41485740  0.10094622  0.92603861  1  0  0.12167  0  0.941876  0  0  0.130024  0  1.002263  0  0  0.133377  0  1.00112  0  0  0.110317  0.127868  0  1.00281  0
H  H22  1  0.08515328  0.60092948  0.42603911  1  0  0.121611  0  0.941792  0  0  0.130073  0  1.002082  0  0  0.133426  0  1.000939  0  0  0.110377  0.127917  0  1.002634  0
H  H23  1  0.58514011  0.89906478  0.07397064  1  0  0.12161  0  0.941888  0  0  0.13  0  1.002262  0  0  0.133352  0  1.001121  0  0  0.11031  0.127846  0  1.002814  0
C  C24  1  0.90048157  0.10028126  0.81541104  1  0  0.353914  0  3.701088  0  0  0.332416  0  3.960437  0  0  0.348436  0  3.97595  0  0  0.210862  0.32111  0  3.950864  0
C  C25  1  0.40048197  0.39972668  0.68458320  1  0  0.353781  0  3.700958  0  0  0.332276  0  3.960377  0  0  0.348298  0  3.975894  0  0  0.210803  0.320974  0  3.950802  0
C  C26  1  0.09953282  0.89971432  0.18456354  1  0  0.353906  0  3.701431  0  0  0.332361  0  3.960785  0  0  0.348366  0  3.976296  0  0  0.210922  0.321068  0  3.951217  0
C  C27  1  0.59951131  0.60028212  0.31544414  1  0  0.353838  0  3.701629  0  0  0.332346  0  3.961054  0  0  0.348357  0  3.976567  0  0  0.210884  0.321055  0  3.951484  0
C  C28  1  0.91706180  0.26484501  0.69070201  1  0  -0.063065  0  3.727026  0  0  -0.094044  0  3.982753  0  0  -0.091456  0  4.002837  0  0  -0.080732  -0.095526  0  3.969465  0
C  C29  1  0.41707190  0.23516199  0.80928920  1  0  -0.063005  0  3.727064  0  0  -0.094084  0  3.98281  0  0  -0.091498  0  4.002893  0  0  -0.080841  -0.095573  0  3.969521  0
C  C30  1  0.08293852  0.73514108  0.30928649  1  0  -0.062965  0  3.726908  0  0  -0.094084  0  3.982632  0  0  -0.091521  0  4.002691  0  0  -0.080796  -0.095533  0  3.969375  0
C  C31  1  0.58291998  0.76485526  0.19072122  1  0  -0.062881  0  3.726834  0  0  -0.094  0  3.982639  0  0  -0.091414  0  4.002717  0  0  -0.080841  -0.095434  0  3.969366  0
C  C32  1  0.81539189  0.02498210  0.64563566  1  0  -0.108454  0  3.694923  0  0  -0.145082  0  3.947246  0  0  -0.141663  0  3.963003  0  0  -0.079466  -0.147088  0  3.936179  0
C  C33  1  0.31539154  0.47502328  0.85435861  1  0  -0.10867  0  3.694913  0  0  -0.14529  0  3.947233  0  0  -0.141871  0  3.962989  0  0  -0.07957  -0.1473  0  3.93617  0
C  C34  1  0.18462109  0.97500295  0.35435130  1  0  -0.108339  0  3.695137  0  0  -0.145054  0  3.947349  0  0  -0.141684  0  3.9632  0  0  -0.07944  -0.147052  0  3.936268  0
C  C35  1  0.68460174  0.52498664  0.14565640  1  0  -0.108391  0  3.695182  0  0  -0.144951  0  3.947463  0  0  -0.141561  0  3.96329  0  0  -0.079435  -0.14696  0  3.936393  0
C  C36  1  0.81359383  0.19443055  0.52419887  1  0  0.254761  0  3.796481  0  0  0.23943  0  4.045807  0  0  0.250587  0  4.06633  0  0  0.092468  0.231805  0  4.031946  0
C  C37  1  0.31360737  0.30557589  0.97579330  1  0  0.254958  0  3.796385  0  0  0.239529  0  4.045837  0  0  0.250677  0  4.066355  0  0  0.092492  0.231899  0  4.031985  0
C  C38  1  0.18640227  0.80556180  0.47579008  1  0  0.254888  0  3.796404  0  0  0.239613  0  4.045694  0  0  0.250762  0  4.06621  0  0  0.092567  0.231984  0  4.031844  0
C  C39  1  0.68638732  0.69443196  0.02421938  1  0  0.25491  0  3.796275  0  0  0.239681  0  4.045429  0  0  0.250835  0  4.065946  0  0  0.09264  0.23205  0  4.031585  0
C  C40  1  0.87900988  0.12961468  0.71690233  1  0  -0.00309  0  3.888486  0  0  0.020782  0  4.123943  0  0  0.014155  0  4.145637  0  0  -0.011673  0.024889  0  4.109772  0
C  C41  1  0.37901186  0.37039419  0.78308984  1  0  -0.003085  0  3.888427  0  0  0.020775  0  4.123936  0  0  0.014147  0  4.145634  0  0  -0.011668  0.024875  0  4.109775  0
C  C42  1  0.12100029  0.87037035  0.28308755  1  0  -0.00319  0  3.888314  0  0  0.020782  0  4.123654  0  0  0.014164  0  4.145347  0  0  -0.011699  0.024882  0  4.109479  0
C  C43  1  0.62098424  0.62961886  0.21692539  1  0  -0.003331  0  3.888116  0  0  0.020456  0  4.123745  0  0  0.01383  0  4.145439  0  0  -0.011765  0.024548  0  4.109576  0
C  C44  1  0.88561865  0.29526407  0.59548536  1  0  -0.146497  0  3.70127  0  0  -0.163974  0  3.960655  0  0  -0.171609  0  3.981978  0  0  -0.095023  -0.159265  0  3.946466  0
C  C45  1  0.38563738  0.20474380  0.90450526  1  0  -0.146708  0  3.70172  0  0  -0.16407  0  3.961058  0  0  -0.171701  0  3.982381  0  0  -0.09497  -0.159365  0  3.946877  0
C  C46  1  0.11437604  0.70472514  0.40450409  1  0  -0.146669  0  3.7013  0  0  -0.164212  0  3.960689  0  0  -0.171843  0  3.982016  0  0  -0.095078  -0.1595  0  3.946497  0
C  C47  1  0.61435309  0.79526511  0.09550384  1  0  -0.146618  0  3.701555  0  0  -0.164126  0  3.960964  0  0  -0.171752  0  3.98228  0  0  -0.094962  -0.159425  0  3.946776  0
C  C48  1  0.78429066  0.05794537  0.55061776  1  0  0.020381  0  3.781282  0  0  0.032419  0  4.051844  0  0  0.029779  0  4.073423  0  0  0.002669  0.033858  0  4.037558  0
C  C49  1  0.28429610  0.44205778  0.94937497  1  0  0.020471  0  3.781197  0  0  0.032543  0  4.051793  0  0  0.029901  0  4.073374  0  0  0.002679  0.033985  0  4.037504  0
C  C50  1  0.21571247  0.94204389  0.44936585  1  0  0.020414  0  3.78157  0  0  0.032404  0  4.052188  0  0  0.029756  0  4.073773  0  0  0.002606  0.033849  0  4.037893  0
C  C51  1  0.71569859  0.55795212  0.05064369  1  0  0.02045  0  3.78161  0  0  0.032467  0  4.052124  0  0  0.029822  0  4.073704  0  0  0.002706  0.033918  0  4.037829  0
N  N52  1  0.91516175  0.07644864  0.89732069  1  0  -0.482957  0  2.892741  0  0  -0.432584  0  3.199845  0  0  -0.446842  0  3.199202  0  0  -0.357791  -0.423628  0  3.201312  0
N  N53  1  0.41515755  0.42355419  0.60266950  1  0  -0.482757  0  2.892378  0  0  -0.432376  0  3.199461  0  0  -0.446634  0  3.198823  0  0  -0.357699  -0.423419  0  3.200926  0
N  N54  1  0.08486249  0.92354572  0.10268008  1  0  -0.482844  0  2.893328  0  0  -0.432472  0  3.200418  0  0  -0.446719  0  3.199769  0  0  -0.357864  -0.423521  0  3.201896  0
N  N55  1  0.58484559  0.57644957  0.39733121  1  0  -0.482706  0  2.893289  0  0  -0.432327  0  3.200328  0  0  -0.446577  0  3.199686  0  0  -0.357793  -0.423374  0  3.201797  0
N  N56  1  0.76664270  0.23196531  0.43119974  1  0  -0.649947  0  3.257201  0  0  -0.585588  0  3.505766  0  0  -0.608748  0  3.503043  0  0  -0.609537  -0.569126  0  3.507335  0
N  N57  1  0.26665961  0.26803753  0.06879379  1  0  -0.649816  0  3.257416  0  0  -0.585594  0  3.506215  0  0  -0.608723  0  3.503455  0  0  -0.609549  -0.569106  0  3.507822  0
N  N58  1  0.23334355  0.76803328  0.56879184  1  0  -0.649802  0  3.257402  0  0  -0.585593  0  3.50603  0  0  -0.608726  0  3.503274  0  0  -0.609516  -0.569112  0  3.507646  0
N  N59  1  0.73334071  0.73196406  0.93121771  1  0  -0.650002  0  3.25736  0  0  -0.585716  0  3.506132  0  0  -0.608855  0  3.5034  0  0  -0.609664  -0.569246  0  3.50771  0
N  N60  1  0.64048548  0.11947313  0.18875628  1  0  0.683659  0  4.14083  0  0  0.727147  0  4.412101  0  0  0.75633  0  4.418016  0  0  0.092036  0.707597  0  4.407146  0
N  N61  1  0.14047465  0.38052485  0.31123796  1  0  0.683732  0  4.140741  0  0  0.72741  0  4.411775  0  0  0.756599  0  4.417686  0  0  0.092247  0.707856  0  4.406828  0
N  N62  1  0.35952610  0.88053171  0.81123647  1  0  0.683868  0  4.140717  0  0  0.727648  0  4.411715  0  0  0.756834  0  4.417628  0  0  0.092327  0.708098  0  4.406762  0
N  N63  1  0.85952568  0.61947160  0.68876296  1  0  0.683883  0  4.140549  0  0  0.727639  0  4.411555  0  0  0.756823  0  4.41747  0  0  0.092318  0.708097  0  4.406594  0
Cl  Cl64  1  0.71076857  0.92929761  0.46193569  1  0  -0.063847  0  1.489623  0  0  -0.041524  0  1.758414  0  0  -0.047173  0  1.755393  0  0  0.033119  -0.037867  0  1.760885  0
Cl  Cl65  1  0.21076250  0.57070160  0.03805949  1  0  -0.063925  0  1.489612  0  0  -0.041551  0  1.758343  0  0  -0.047202  0  1.755325  0  0  0.033121  -0.037892  0  1.760813  0
Cl  Cl66  1  0.28923175  0.07069372  0.53804954  1  0  -0.063882  0  1.489743  0  0  -0.041512  0  1.75848  0  0  -0.047161  0  1.755467  0  0  0.033129  -0.037853  0  1.760949  0
Cl  Cl67  1  0.78922516  0.42930517  0.96195894  1  0  -0.063864  0  1.48965  0  0  -0.041489  0  1.758348  0  0  -0.047141  0  1.755337  0  0  0.033125  -0.037833  0  1.760816  0
O  O68  1  0.78298663  0.09841006  0.23984709  1  0  -0.460255  0  1.830372  0  0  -0.449564  0  2.052856  0  0  -0.465745  0  2.047531  0  0  -0.17832  -0.438112  0  2.056287  0
O  O69  1  0.28298212  0.40158450  0.26014946  1  0  -0.460195  0  1.830501  0  0  -0.449581  0  2.05292  0  0  -0.465762  0  2.047595  0  0  -0.178255  -0.438128  0  2.056356  0
O  O70  1  0.21702354  0.90158331  0.76014558  1  0  -0.460274  0  1.830464  0  0  -0.449676  0  2.052858  0  0  -0.465858  0  2.047533  0  0  -0.178254  -0.438222  0  2.056291  0
O  O71  1  0.71702242  0.59841503  0.73985751  1  0  -0.460292  0  1.830422  0  0  -0.449703  0  2.052832  0  0  -0.465887  0  2.047509  0  0  -0.178306  -0.438253  0  2.056265  0
O  O72  1  0.47567851  0.10465655  0.21908264  1  0  -0.449732  0  1.758748  0  0  -0.443473  0  1.973368  0  0  -0.45817  0  1.966751  0  0  -0.179993  -0.433295  0  1.977694  0
O  O73  1  0.97566900  0.39534745  0.28090679  1  0  -0.449953  0  1.758608  0  0  -0.443759  0  1.973184  0  0  -0.45846  0  1.966567  0  0  -0.180258  -0.433576  0  1.977519  0
O  O74  1  0.52433026  0.89536185  0.78091181  1  0  -0.449954  0  1.758749  0  0  -0.443803  0  1.973273  0  0  -0.458506  0  1.966651  0  0  -0.180224  -0.433626  0  1.977619  0
O  O75  1  0.02433273  0.60463965  0.71908762  1  0  -0.450006  0  1.758632  0  0  -0.443785  0  1.973147  0  0  -0.458482  0  1.96652  0  0  -0.180199  -0.433609  0  1.977483  0
O  O76  1  0.66371856  0.15634053  0.10108952  1  0  -0.497156  0  1.842258  0  0  -0.469118  0  2.088698  0  0  -0.48998  0  2.079131  0  0  -0.212557  -0.454094  0  2.093879  0
O  O77  1  0.16369384  0.34365549  0.39890452  1  0  -0.497118  0  1.842267  0  0  -0.46914  0  2.088637  0  0  -0.490007  0  2.079075  0  0  -0.212585  -0.454114  0  2.093821  0
O  O78  1  0.33629724  0.84365910  0.89890359  1  0  -0.497158  0  1.842123  0  0  -0.469216  0  2.08849  0  0  -0.490083  0  2.078925  0  0  -0.212682  -0.454188  0  2.093669  0
O  O79  1  0.83629522  0.65634615  0.60109969  1  0  -0.497107  0  1.842147  0  0  -0.469172  0  2.088503  0  0  -0.490037  0  2.078943  0  0  -0.212667  -0.454152  0  2.093684  0
