# generated using pymatgen
data_Mn5H26C32(NO)12
_symmetry_space_group_name_H-M   'P 1'
_cell_length_a   11.00657183
_cell_length_b   12.51205890
_cell_length_c   19.99604653
_cell_angle_alpha   81.17955583
_cell_angle_beta   73.66060511
_cell_angle_gamma   80.51175400
_symmetry_Int_Tables_number   1
_chemical_formula_structural   Mn5H26C32(NO)12
_chemical_formula_sum   'Mn10 H52 C64 N24 O24'
_cell_volume   2589.68618243
_cell_formula_units_Z   2
loop_
 _symmetry_equiv_pos_site_id
 _symmetry_equiv_pos_as_xyz
  1  'x, y, z'
loop_
 _atom_site_type_symbol
 _atom_site_label
 _atom_site_symmetry_multiplicity
 _atom_site_fract_x
 _atom_site_fract_y
 _atom_site_fract_z
 _atom_site_occupancy
 _atom_site_pbe_bader_charge
 _atom_site_pbe_bader_spin_density
 _atom_site_pbe_cm5_charge
 _atom_site_pbe_ddec_charge
 _atom_site_pbe_ddec_spin_density
 _atom_site_pbe_ddec_sum_bond_order
 _atom_site_pbe_magmom
Mn  Mn0  1  0.51518126  0.21943954  0.25272394  1  1.457944  4.560583  0.631433  0.728527  4.706297  2.457648  4.465
Mn  Mn1  1  0.48482475  0.78056262  0.74727712  1  1.457798  4.56062  0.631424  0.728415  4.706283  2.457776  4.465
Mn  Mn2  1  0.62349799  0.49105683  0.22724332  1  1.482679  4.509515  0.613399  0.841851  4.654643  2.529499  4.432
Mn  Mn3  1  0.37649162  0.50894756  0.77275878  1  1.482748  4.509519  0.6134  0.841863  4.654683  2.529576  4.432
Mn  Mn4  1  0.36437402  0.70489689  0.27020964  1  1.472192  4.564688  0.630092  0.982328  4.691125  2.290955  4.449
Mn  Mn5  1  0.63562961  0.29511425  0.72978946  1  1.472373  4.564662  0.630138  0.982394  4.691212  2.29082  4.449
Mn  Mn6  1  0.68534186  0.73725856  0.21585202  1  1.468088  4.545368  0.628235  0.970412  4.670734  2.32589  4.43
Mn  Mn7  1  0.31466430  0.26275277  0.78413672  1  1.46794  4.545414  0.628287  0.970623  4.670716  2.325644  4.43
Mn  Mn8  1  0.42211429  0.95316076  0.24423227  1  1.456944  4.507182  0.627802  0.826988  4.649714  2.545864  4.407
Mn  Mn9  1  0.57789712  0.04684227  0.75576999  1  1.457167  4.507156  0.627798  0.827143  4.649641  2.545768  4.407
H  H10  1  0.05232487  0.09985375  0.27969531  1  0.103169  0.000413  0.103821  0.10772  -0.000152  1.023393  0.0
H  H11  1  0.94769261  0.90013546  0.72030832  1  0.103163  0.000413  0.103768  0.107608  -0.000152  1.023405  0.0
H  H12  1  0.83144364  0.18935441  0.28232533  1  0.071504  0.000656  0.104797  0.107928  -6.7e-05  1.035181  0.0
H  H13  1  0.16857757  0.81063973  0.71767986  1  0.071411  0.000656  0.104792  0.107882  -6.7e-05  1.0352  0.0
H  H14  1  0.96947068  0.79543101  0.23724811  1  0.124675  0.000727  0.113286  0.129356  -0.000121  1.035718  0.0
H  H15  1  0.03054771  0.20457476  0.76274044  1  0.124392  0.000727  0.113283  0.129342  -0.000121  1.035806  0.0
H  H16  1  0.98994613  0.33753701  0.21389710  1  0.069442  0.000493  0.099067  0.100241  -0.00011  1.024723  0.0
H  H17  1  0.01004715  0.66245277  0.78610227  1  0.069689  0.000494  0.09899  0.100166  -0.000111  1.024827  0.0
H  H18  1  0.20589840  0.24579958  0.22136767  1  0.061013  0.00056  0.110961  0.121263  -3.1e-05  1.009267  0.0
H  H19  1  0.79409274  0.75419986  0.77863866  1  0.061067  0.00056  0.11095  0.121258  -3.1e-05  1.00922  0.0
H  H20  1  0.07523854  0.64750696  0.24620277  1  0.124653  0.000743  0.111585  0.127139  -0.000172  1.039737  0.0
H  H21  1  0.92475515  0.35249268  0.75379268  1  0.124699  0.000743  0.111613  0.127184  -0.000172  1.0397  0.0
H  H22  1  0.59371833  0.02785830  0.52844769  1  0.076267  0.000468  0.097561  0.09528  -0.000101  1.03974  0.0
H  H23  1  0.40627774  0.97214382  0.47154773  1  0.076267  0.000468  0.097583  0.095252  -0.000102  1.039728  0.0
H  H24  1  0.58052929  0.05736347  0.40487850  1  0.073161  0.000339  0.105119  0.113686  -0.000326  1.019469  0.0
H  H25  1  0.41946235  0.94264586  0.59512240  1  0.073187  0.000339  0.105141  0.113748  -0.000326  1.019354  0.0
H  H26  1  0.65016069  0.36289916  0.52316352  1  0.127819  0.000472  0.115031  0.129526  -0.000179  0.987826  0.0
H  H27  1  0.34984936  0.63709655  0.47683606  1  0.127788  0.000472  0.115024  0.129578  -0.000179  0.987687  0.0
H  H28  1  0.41996082  0.46952628  0.98768966  1  0.081352  0.000444  0.099602  0.098717  -3.7e-05  1.048052  0.0
H  H29  1  0.58004275  0.53047509  0.01230780  1  0.081341  0.000444  0.099606  0.098732  -3.7e-05  1.048059  0.0
H  H30  1  0.47675848  0.40929245  0.10097656  1  0.081778  0.000323  0.107693  0.117389  -0.000397  1.024394  0.0
H  H31  1  0.52322552  0.59071759  0.89902431  1  0.081724  0.000323  0.10768  0.117403  -0.000397  1.024365  0.0
H  H32  1  0.32214656  0.15335803  0.97929804  1  0.11581  0.000491  0.114373  0.12819  -0.000227  0.989462  0.0
H  H33  1  0.67784514  0.84663073  0.02071365  1  0.115763  0.000491  0.114336  0.128166  -0.000227  0.989474  0.0
H  H34  1  0.69259049  0.36819462  0.07676721  1  0.090943  0.000161  0.107531  0.073392  -0.000472  1.00016  0.0
H  H35  1  0.30739848  0.63180642  0.92323928  1  0.09088  0.000161  0.107509  0.073455  -0.000472  1.000147  0.0
H  H36  1  0.84244930  0.36226416  0.09505630  1  0.058661  0.001692  0.108473  0.072902  0.000546  0.958847  0.001
H  H37  1  0.15754378  0.63773533  0.90494876  1  0.058704  0.001691  0.10849  0.072875  0.000546  0.959008  0.001
H  H38  1  0.84664349  0.21243191  0.02323767  1  0.067293  0.001069  0.101119  0.14014  0.00066  0.979775  0.001
H  H39  1  0.15334577  0.78756921  0.97676427  1  0.067193  0.001069  0.101155  0.140154  0.00066  0.979719  0.001
H  H40  1  0.71412938  0.16345169  0.08809502  1  0.040245  0.000273  0.092436  0.131159  -0.000288  1.01479  0.0
H  H41  1  0.28585561  0.83654692  0.91190722  1  0.040277  0.000273  0.092448  0.131134  -0.000288  1.014796  0.0
H  H42  1  0.86457034  0.15486158  0.10737037  1  0.035333  0.000116  0.08878  0.123107  -0.000129  1.007315  0.0
H  H43  1  0.13542238  0.84513549  0.89263245  1  0.035143  0.000116  0.088792  0.123061  -0.000129  1.007326  0.0
H  H44  1  0.19195556  0.18990065  0.33835905  1  0.033666  0.000772  0.097101  0.050784  0.000149  1.013275  0.0
H  H45  1  0.80805370  0.81009508  0.66163813  1  0.033597  0.000772  0.097133  0.050819  0.000149  1.013237  0.0
H  H46  1  0.21140441  0.09006265  0.40906515  1  0.066603  0.001935  0.106571  0.065921  0.000706  0.960395  0.001
H  H47  1  0.78859839  0.90992814  0.59092934  1  0.066511  0.001935  0.106587  0.065921  0.000706  0.960437  0.001
H  H48  1  0.14698060  0.27787597  0.44834822  1  0.049463  0.000571  0.097896  0.133877  0.000337  0.984888  0.0
H  H49  1  0.85301570  0.72211135  0.55165446  1  0.049484  0.00057  0.097856  0.133847  0.000337  0.984864  0.0
H  H50  1  0.28425353  0.32351873  0.38635474  1  0.04237  0.000445  0.091561  0.127848  -0.000158  1.013729  0.0
H  H51  1  0.71574381  0.67647838  0.61364895  1  0.042234  0.000445  0.091569  0.127872  -0.000158  1.013767  0.0
H  H52  1  0.30249158  0.22441482  0.45808722  1  0.033935  5.2e-05  0.090319  0.127229  -0.000133  1.00465  0.0
H  H53  1  0.69750298  0.77557165  0.54191577  1  0.033485  5.2e-05  0.090282  0.127189  -0.000133  1.004703  0.0
H  H54  1  0.48368320  0.82107693  0.14968112  1  0.623262  0.009149  0.314872  0.39095  0.006996  0.90757  0.009
H  H55  1  0.51631258  0.17893339  0.85031112  1  0.623502  0.009143  0.314908  0.391056  0.006995  0.907597  0.009
H  H56  1  0.56837252  0.60811460  0.32959247  1  0.624251  0.007741  0.309981  0.386154  0.006131  0.920968  0.008
H  H57  1  0.43162483  0.39190140  0.67040356  1  0.624256  0.007741  0.309971  0.386242  0.00613  0.920941  0.008
H  H58  1  0.75649949  0.28836408  0.20467202  1  0.590483  0.000975  0.328855  0.34452  0.000716  0.920357  0.001
H  H59  1  0.24349694  0.71163302  0.79533129  1  0.590744  0.000974  0.328878  0.344565  0.000716  0.920242  0.001
H  H60  1  0.40142133  0.04949119  0.35316351  1  0.643635  0.001973  0.307529  0.345771  0.002882  0.995603  0.002
H  H61  1  0.59858142  0.95050765  0.64683879  1  0.643721  0.001968  0.307535  0.345818  0.002882  0.995638  0.002
C  C62  1  0.15674326  0.89573288  0.25967917  1  1.584678  0.023678  0.229046  0.601602  0.023387  4.154377  0.02
C  C63  1  0.84326851  0.10426537  0.74031594  1  1.584937  0.023673  0.229012  0.601423  0.023381  4.154919  0.02
C  C64  1  0.02357285  0.94396256  0.25777386  1  -0.027791  0.007594  -0.017116  -0.039615  0.005398  3.973055  0.004
C  C65  1  0.97644491  0.05603585  0.74221542  1  -0.027441  0.007594  -0.017134  -0.039674  0.005399  3.973379  0.004
C  C66  1  0.98344393  0.05525314  0.26967364  1  -0.038222  0.005122  -0.085489  -0.088281  0.003788  3.977627  0.003
C  C67  1  0.01656866  0.94474338  0.73032802  1  -0.038734  0.005121  -0.085466  -0.088135  0.003786  3.977856  0.003
C  C68  1  0.86181317  0.10565817  0.26994291  1  -0.025432  0.002314  -0.095654  -0.174316  0.001487  4.018245  0.001
C  C69  1  0.13820153  0.89434014  0.73005030  1  -0.025355  0.002315  -0.095675  -0.174266  0.001487  4.018149  0.001
C  C70  1  0.77774984  0.04252369  0.25697756  1  0.416005  0.010662  0.098221  0.127788  0.007688  4.05156  0.008
C  C71  1  0.22225823  0.95747769  0.74302279  1  0.415567  0.010664  0.098285  0.127867  0.007688  4.051486  0.008
C  C72  1  0.81755525  0.93156312  0.24538543  1  0.373124  0.013778  0.099627  0.131323  0.009746  4.047487  0.01
C  C73  1  0.18246204  0.06844260  0.75460578  1  0.372799  0.013781  0.099782  0.131486  0.009748  4.047357  0.01
C  C74  1  0.94081863  0.88075313  0.24570951  1  0.007685  0.007436  -0.069489  -0.142469  0.005517  3.905123  0.004
C  C75  1  0.05918976  0.11924833  0.75428578  1  0.007916  0.007433  -0.069493  -0.142475  0.005515  3.905226  0.004
C  C76  1  0.88903344  0.54574103  0.22487928  1  1.573005  0.021487  0.228074  0.601978  0.021158  4.155576  0.018
C  C77  1  0.11096393  0.45426119  0.77511044  1  1.573521  0.021484  0.228203  0.602168  0.021158  4.155588  0.018
C  C78  1  0.01978027  0.49641598  0.23054541  1  -0.003273  0.008779  -0.019976  -0.042165  0.006447  3.978436  0.005
C  C79  1  0.98021879  0.50358049  0.76944809  1  -0.003114  0.008774  -0.019868  -0.042146  0.006442  3.97883  0.005
C  C80  1  0.05803546  0.38334911  0.22356477  1  -0.032649  0.006322  -0.087429  -0.090229  0.004765  3.984019  0.003
C  C81  1  0.94195517  0.61664470  0.77643562  1  -0.032473  0.006324  -0.087413  -0.090193  0.004767  3.984245  0.003
C  C82  1  0.17717850  0.33193509  0.22783174  1  0.031904  0.003528  -0.089684  -0.163145  0.002617  4.004022  0.002
C  C83  1  0.82280873  0.66806109  0.77217140  1  0.031304  0.003526  -0.089576  -0.163065  0.002614  4.003861  0.002
C  C84  1  0.26100236  0.39684440  0.23910812  1  0.340763  0.011021  0.101554  0.131237  0.007906  4.044074  0.008
C  C85  1  0.73898545  0.60315425  0.76089373  1  0.340913  0.011023  0.101528  0.131147  0.007907  4.04418  0.008
C  C86  1  0.22411052  0.50990749  0.24477972  1  0.382081  0.013376  0.099564  0.132244  0.009375  4.049498  0.009
C  C87  1  0.77588225  0.49009617  0.75521902  1  0.382167  0.013375  0.099624  0.132246  0.009374  4.049564  0.009
C  C88  1  0.10256768  0.56100342  0.24121252  1  0.03168  0.009484  -0.070239  -0.142483  0.007093  3.908656  0.005
C  C89  1  0.89743138  0.43899878  0.75877998  1  0.031384  0.009487  -0.070331  -0.142515  0.007095  3.908575  0.005
C  C90  1  0.62476500  0.17472864  0.60748011  1  1.521015  0.017816  0.231221  0.610779  0.017808  4.139044  0.016
C  C91  1  0.37524846  0.82527044  0.39251570  1  1.521091  0.017821  0.231281  0.610693  0.017814  4.138946  0.016
C  C92  1  0.62078793  0.19409472  0.53275508  1  -0.01627  0.004812  -0.030132  -0.067885  0.003213  4.019313  0.003
C  C93  1  0.37921865  0.80590503  0.46724361  1  -0.016225  0.004812  -0.03011  -0.067776  0.003212  4.019097  0.003
C  C94  1  0.60118272  0.10838414  0.49909284  1  -0.041127  0.007683  -0.093268  -0.101671  0.005898  4.001443  0.004
C  C95  1  0.39881852  0.89161307  0.50090831  1  -0.041103  0.007683  -0.093249  -0.101617  0.005898  4.001316  0.004
C  C96  1  0.59269067  0.12417777  0.43049398  1  0.042596  -0.000289  -0.093448  -0.161667  -0.000873  4.001174  0.0
C  C97  1  0.40730174  0.87582665  0.56950824  1  0.042414  -0.000289  -0.0935  -0.161726  -0.000873  4.001057  0.0
C  C98  1  0.60261016  0.22990714  0.39494184  1  0.350796  0.011733  0.096839  0.138726  0.008872  4.053473  0.009
C  C99  1  0.39738774  0.77009817  0.60506006  1  0.350831  0.011731  0.096819  0.138616  0.008871  4.053761  0.009
C  C100  1  0.62468177  0.31535305  0.42784295  1  0.377338  0.003864  0.085383  0.112138  0.002974  4.081274  0.002
C  C101  1  0.37531886  0.68465312  0.57215799  1  0.377326  0.003864  0.08543  0.112132  0.002974  4.081625  0.002
C  C102  1  0.63388414  0.29818734  0.49720323  1  0.006361  0.009364  -0.071141  -0.134201  0.00718  3.917576  0.005
C  C103  1  0.36612202  0.70181316  0.50279996  1  0.006389  0.009366  -0.07118  -0.134272  0.007181  3.917487  0.005
C  C104  1  0.34297079  0.35421779  0.90798433  1  1.562318  0.023054  0.223795  0.589714  0.023134  4.170559  0.02
C  C105  1  0.65703084  0.64577122  0.09201848  1  1.562283  0.023068  0.223693  0.589471  0.023147  4.170737  0.02
C  C106  1  0.37032819  0.31475964  0.97715221  1  -0.068087  0.004782  -0.027348  -0.057936  0.003007  4.014495  0.002
C  C107  1  0.62964515  0.68525018  0.02285464  1  -0.068435  0.004784  -0.027325  -0.057818  0.003009  4.014732  0.002
C  C108  1  0.41394477  0.38592273  0.01191813  1  -0.073564  0.009795  -0.09056  -0.096639  0.007486  3.989796  0.006
C  C109  1  0.58602882  0.61408545  0.98808933  1  -0.072898  0.009796  -0.09058  -0.096748  0.007486  3.990185  0.006
C  C110  1  0.44666673  0.35257294  0.07442117  1  0.029588  -0.000152  -0.092001  -0.162012  -0.00067  3.989847  0.0
C  C111  1  0.55331799  0.64743133  0.92558411  1  0.029098  -0.000152  -0.092017  -0.16204  -0.00067  3.989857  0.0
C  C112  1  0.43650062  0.24302576  0.10264529  1  0.364739  0.014229  0.097611  0.136145  0.010622  4.05032  0.01
C  C113  1  0.56350581  0.75697396  0.89735593  1  0.36497  0.014227  0.097683  0.136184  0.010622  4.050192  0.01
C  C114  1  0.39095196  0.17190942  0.06865438  1  0.387758  0.005062  0.087443  0.115464  0.003631  4.079203  0.003
C  C115  1  0.60903725  0.82808999  0.93135272  1  0.387647  0.005062  0.087336  0.115446  0.00363  4.079162  0.003
C  C116  1  0.35710192  0.20722404  0.00557334  1  0.026755  0.012843  -0.074223  -0.144545  0.009891  3.923353  0.007
C  C117  1  0.64289483  0.79277632  0.99443064  1  0.026842  0.012842  -0.07412  -0.144522  0.00989  3.923526  0.007
C  C118  1  0.76000586  0.31798474  0.10350826  1  0.351997  0.005759  -0.065948  0.129506  0.003991  3.846534  0.004
C  C119  1  0.23998414  0.68201635  0.89649658  1  0.352101  0.005757  -0.065975  0.129388  0.003989  3.847034  0.004
C  C120  1  0.79826038  0.20531423  0.07959117  1  -0.078693  0.001377  -0.246376  -0.409015  0.000682  3.957657  0.001
C  C121  1  0.20172638  0.79468523  0.92041025  1  -0.07844  0.001377  -0.246418  -0.408891  0.000682  3.957775  0.001
C  C122  1  0.24917153  0.16232119  0.37625051  1  0.401552  0.005561  -0.066005  0.143194  0.004215  3.872438  0.004
C  C123  1  0.75083046  0.83767280  0.62374781  1  0.401586  0.005562  -0.066038  0.143097  0.004216  3.872408  0.004
C  C124  1  0.24604464  0.25212020  0.41986173  1  -0.070616  0.001389  -0.246189  -0.405102  0.000771  3.953332  0.001
C  C125  1  0.75395437  0.74787286  0.58014158  1  -0.070022  0.001389  -0.246129  -0.405019  0.000771  3.953481  0.001
N  N126  1  0.65401472  0.06612326  0.25266918  1  -0.728015  0.07572  -0.219721  -0.237109  0.052815  3.407671  0.037
N  N127  1  0.34599660  0.93388145  0.74732994  1  -0.727364  0.075712  -0.219916  -0.237362  0.05282  3.408031  0.037
N  N128  1  0.62088986  0.97501112  0.23978007  1  -0.22612  0.078015  -0.094867  -0.024492  0.053392  3.496094  0.039
N  N129  1  0.37912843  0.02499293  0.76021465  1  -0.2262  0.07803  -0.094781  -0.024385  0.053387  3.496004  0.039
N  N130  1  0.71544378  0.89257601  0.23506090  1  -0.719947  0.071439  -0.224016  -0.253928  0.043759  3.4421  0.011
N  N131  1  0.28457540  0.10742974  0.76493005  1  -0.719786  0.071434  -0.224101  -0.254072  0.043763  3.441973  0.011
N  N132  1  0.32672334  0.55006224  0.25360492  1  -0.742436  0.076724  -0.224617  -0.257173  0.048326  3.444667  0.018
N  N133  1  0.67327367  0.44994308  0.74639609  1  -0.742539  0.076748  -0.224612  -0.257034  0.048323  3.444798  0.018
N  N134  1  0.41912326  0.46638784  0.25355170  1  -0.199996  0.079463  -0.098758  -0.037901  0.056396  3.497267  0.04
N  N135  1  0.58087069  0.53361249  0.74645216  1  -0.199589  0.079495  -0.098852  -0.038073  0.056402  3.497449  0.04
N  N136  1  0.38342519  0.37324830  0.24555984  1  -0.724282  0.079501  -0.221049  -0.233225  0.055057  3.417282  0.037
N  N137  1  0.61656191  0.62675273  0.75444640  1  -0.72486  0.079496  -0.221069  -0.233199  0.055052  3.417422  0.037
N  N138  1  0.63495591  0.40688536  0.38002096  1  -0.602085  0.026038  -0.21496  -0.246498  0.018047  3.166918  0.019
N  N139  1  0.36504563  0.59312082  0.61998036  1  -0.601809  0.026037  -0.21496  -0.246475  0.018047  3.167112  0.019
N  N140  1  0.62000769  0.37817879  0.32246099  1  -0.23386  0.058419  -0.112659  -0.04759  0.039926  3.560124  0.024
N  N141  1  0.37998448  0.62182642  0.67754269  1  -0.233952  0.058421  -0.112673  -0.047701  0.039926  3.560262  0.024
N  N142  1  0.59851349  0.27284207  0.32849465  1  -0.791398  0.0564  -0.250022  -0.28462  0.037661  3.423186  0.022
N  N143  1  0.40147790  0.72716316  0.67150664  1  -0.791501  0.056393  -0.250001  -0.284446  0.037662  3.423162  0.022
N  N144  1  0.45923752  0.18424900  0.16227675  1  -0.769828  0.062264  -0.244718  -0.272982  0.041894  3.431264  0.024
N  N145  1  0.54075847  0.81575543  0.83772798  1  -0.769739  0.062246  -0.244682  -0.272811  0.041893  3.431186  0.024
N  N146  1  0.42676106  0.08392927  0.16327877  1  -0.263616  0.064583  -0.124684  -0.057735  0.041092  3.606297  0.017
N  N147  1  0.57322755  0.91607742  0.83673228  1  -0.263782  0.06461  -0.124777  -0.058134  0.041101  3.606552  0.017
N  N148  1  0.38647606  0.07291837  0.10882920  1  -0.578541  0.033845  -0.217117  -0.244486  0.024579  3.158842  0.025
N  N149  1  0.61351353  0.92708261  0.89118221  1  -0.57849  0.033841  -0.217012  -0.244273  0.024574  3.1587  0.025
O  O150  1  0.22639624  0.95988491  0.27061849  1  -1.198056  0.07868  -0.315736  -0.549737  0.052054  2.360556  0.036
O  O151  1  0.77361989  0.04010843  0.72938046  1  -1.197663  0.078647  -0.315762  -0.549663  0.05205  2.360666  0.036
O  O152  1  0.19263450  0.79532208  0.25085081  1  -1.20331  0.07826  -0.309751  -0.566924  0.053506  2.274384  0.039
O  O153  1  0.80737839  0.20467792  0.74913699  1  -1.203755  0.078268  -0.309712  -0.566877  0.053507  2.274727  0.039
O  O154  1  0.85259917  0.64546997  0.23577381  1  -1.198539  0.08235  -0.311279  -0.561548  0.055905  2.287881  0.041
O  O155  1  0.14740193  0.35453315  0.76421383  1  -1.198474  0.082324  -0.311422  -0.5617  0.055909  2.28791  0.041
O  O156  1  0.82199522  0.48424454  0.20908267  1  -1.20911  0.073485  -0.315542  -0.567417  0.050836  2.360181  0.036
O  O157  1  0.17799825  0.51575674  0.79091167  1  -1.209484  0.07349  -0.315589  -0.567515  0.050841  2.360198  0.036
O  O158  1  0.66358537  0.24721464  0.63164897  1  -1.194248  0.081925  -0.307987  -0.552111  0.054244  2.331333  0.037
O  O159  1  0.33642201  0.75278679  0.36834747  1  -1.19429  0.08193  -0.307987  -0.552051  0.054247  2.331342  0.037
O  O160  1  0.58531614  0.08744726  0.64462203  1  -1.205459  0.069624  -0.309646  -0.57725  0.04814  2.371958  0.035
O  O161  1  0.41470145  0.91255259  0.35538016  1  -1.205488  0.06963  -0.3097  -0.577213  0.048134  2.371933  0.035
O  O162  1  0.38671587  0.44133901  0.87435603  1  -1.204475  0.074532  -0.308558  -0.549123  0.050912  2.323382  0.034
O  O163  1  0.61327226  0.55865229  0.12564642  1  -1.204634  0.074538  -0.308544  -0.549038  0.050915  2.323199  0.034
O  O164  1  0.28094900  0.29626560  0.88531555  1  -1.200035  0.087472  -0.320964  -0.564771  0.057485  2.323461  0.041
O  O165  1  0.71907263  0.70370657  0.11468450  1  -1.199798  0.087473  -0.320868  -0.564603  0.057486  2.323802  0.041
O  O166  1  0.48589700  0.80961721  0.19864343  1  -1.313371  0.223478  -0.551998  -0.83446  0.162298  2.196704  0.11
O  O167  1  0.51410496  0.19037932  0.80134867  1  -1.313682  0.223517  -0.552001  -0.834565  0.162301  2.196631  0.11
O  O168  1  0.56032519  0.63274126  0.28210149  1  -1.3134  0.221457  -0.552145  -0.843774  0.163186  2.197795  0.112
O  O169  1  0.43968403  0.36726677  0.71789212  1  -1.313391  0.22146  -0.552108  -0.843877  0.163193  2.197942  0.112
O  O170  1  0.69277992  0.31394183  0.17832045  1  -1.124715  0.08226  -0.364838  -0.464257  0.0631  2.407054  0.041
O  O171  1  0.30721177  0.68605435  0.82168609  1  -1.125046  0.082251  -0.364852  -0.464249  0.063091  2.406968  0.041
O  O172  1  0.37924338  0.12768422  0.33684326  1  -1.191806  0.080369  -0.387966  -0.489795  0.058624  2.42417  0.04
O  O173  1  0.62076300  0.87231060  0.66315739  1  -1.191781  0.080369  -0.387967  -0.489766  0.058618  2.423997  0.04
