# generated using pymatgen
data_ZnH19C23N3O4
_symmetry_space_group_name_H-M   'P 1'
_cell_length_a   10.14190196
_cell_length_b   10.66922110
_cell_length_c   20.49033427
_cell_angle_alpha   89.90648797
_cell_angle_beta   90.00043943
_cell_angle_gamma   90.00038121
_symmetry_Int_Tables_number   1
_chemical_formula_structural   ZnH19C23N3O4
_chemical_formula_sum   'Zn4 H76 C92 N12 O16'
_cell_volume   2217.17814101
_cell_formula_units_Z   4
loop_
 _symmetry_equiv_pos_site_id
 _symmetry_equiv_pos_as_xyz
  1  'x, y, z'
loop_
 _atom_site_type_symbol
 _atom_site_label
 _atom_site_symmetry_multiplicity
 _atom_site_fract_x
 _atom_site_fract_y
 _atom_site_fract_z
 _atom_site_occupancy
 _atom_site_pbe_bader_charge
 _atom_site_pbe_bader_spin_density
 _atom_site_pbe_cm5_charge
 _atom_site_pbe_ddec_charge
 _atom_site_pbe_ddec_spin_density
 _atom_site_pbe_ddec_sum_bond_order
 _atom_site_pbe_magmom
Zn  Zn0  1  0.20608463  0.88447032  0.49078854  1  1.257709  0  0.698734  0.787569  0  2.348994  0
Zn  Zn1  1  0.70608578  0.61553247  0.00920842  1  1.257755  0  0.698701  0.787541  0  2.349002  0
Zn  Zn2  1  0.79390671  0.11551848  0.50921174  1  1.257763  0  0.698713  0.787505  0  2.349022  0
Zn  Zn3  1  0.29391245  0.38447336  0.99078864  1  1.25778  0  0.698695  0.787582  0  2.348825  0
H  H4  1  0.28093392  0.95163515  0.25849173  1  0.072201  0  0.10083  0.121231  0  1.00812  0
H  H5  1  0.78095396  0.54837830  0.24150808  1  0.072858  0  0.10093  0.1214  0  1.00807  0
H  H6  1  0.71907516  0.04837881  0.74151178  1  0.072512  0  0.100767  0.121166  0  1.008086  0
H  H7  1  0.21905610  0.45161714  0.75849081  1  0.072753  0  0.100859  0.121266  0  1.008102  0
H  H8  1  0.38151276  0.07621292  0.28517534  1  0.080629  0  0.099182  0.118953  0  0.983172  0
H  H9  1  0.88151335  0.42379714  0.21482324  1  0.07986  0  0.099237  0.119019  0  0.98322  0
H  H10  1  0.61849040  0.92379055  0.71483195  1  0.080545  0  0.099185  0.118986  0  0.983135  0
H  H11  1  0.11849277  0.57620942  0.78517823  1  0.080764  0  0.099219  0.119001  0  0.983135  0
H  H12  1  0.33979809  0.72657131  0.29301471  1  0.036193  0  0.097451  0.100377  0  1.019912  0
H  H13  1  0.83981229  0.77343588  0.20698671  1  0.036417  0  0.097416  0.100433  0  1.019761  0
H  H14  1  0.66020409  0.27343511  0.70698969  1  0.036111  0  0.097479  0.10041  0  1.01972  0
H  H15  1  0.16020764  0.22656143  0.79301221  1  0.036099  0  0.097471  0.100387  0  1.019696  0
H  H16  1  0.52700716  0.57856730  0.30971148  1  0.020185  0  0.093136  0.085156  0  1.016625  0
H  H17  1  0.02702727  0.92143969  0.19029121  1  0.020128  0  0.093094  0.085085  0  1.016644  0
H  H18  1  0.47298516  0.42143448  0.69029188  1  0.020154  0  0.093164  0.085159  0  1.016662  0
H  H19  1  0.97297984  0.07856038  0.80970872  1  0.020072  0  0.093132  0.085137  0  1.01663  0
H  H20  1  0.75144877  0.66010613  0.33326691  1  0.068244  0  0.090709  0.090831  0  1.064862  0
H  H21  1  0.25146300  0.83990430  0.16673324  1  0.068019  0  0.090717  0.090827  0  1.064985  0
H  H22  1  0.24854355  0.33989291  0.66673496  1  0.068304  0  0.090682  0.090793  0  1.064878  0
H  H23  1  0.74854213  0.16010141  0.83326626  1  0.068151  0  0.090712  0.090828  0  1.064899  0
H  H24  1  0.60481420  0.03712062  0.31974043  1  0.080014  0  0.096705  0.106816  0  1.01848  0
H  H25  1  0.10482656  0.46288524  0.18024974  1  0.080428  0  0.096703  0.106719  0  1.018531  0
H  H26  1  0.39519094  0.96287846  0.68026046  1  0.080003  0  0.096717  0.106906  0  1.018416  0
H  H27  1  0.89518154  0.53711134  0.81974477  1  0.080121  0  0.096703  0.106725  0  1.018495  0
H  H28  1  0.89546098  0.82690070  0.35620254  1  0.061489  0  0.097292  0.121118  0  1.008698  0
H  H29  1  0.39548059  0.67310714  0.14379274  1  0.061156  0  0.097333  0.12111  0  1.008623  0
H  H30  1  0.10454416  0.17308701  0.64380114  1  0.061737  0  0.097264  0.121081  0  1.008659  0
H  H31  1  0.60453539  0.32689686  0.85620332  1  0.061421  0  0.097253  0.121064  0  1.008696  0
H  H32  1  0.87476262  0.94086026  0.29386419  1  0.05732  0  0.099563  0.122284  0  0.985398  0
H  H33  1  0.37477548  0.55914189  0.20612948  1  0.057157  0  0.09956  0.122249  0  0.985378  0
H  H34  1  0.12524548  0.05912655  0.70613850  1  0.057134  0  0.099525  0.122363  0  0.985321  0
H  H35  1  0.62523065  0.44085180  0.79386646  1  0.057379  0  0.099563  0.122273  0  0.985379  0
H  H36  1  0.96343617  0.82685997  0.58205989  1  0.261347  0  0.142467  0.127235  0  1.035104  0
H  H37  1  0.46344127  0.67315033  0.91793754  1  0.261411  0  0.142456  0.127237  0  1.035033  0
H  H38  1  0.03655122  0.17314383  0.41794057  1  0.261378  0  0.142456  0.12725  0  1.035089  0
H  H39  1  0.53656091  0.32685463  0.08205805  1  0.261406  0  0.142459  0.12725  0  1.035055  0
H  H40  1  0.15685059  0.68060714  0.36970392  1  0.106048  0  0.107377  0.123137  0  1.010047  0
H  H41  1  0.65685604  0.81939799  0.13029630  1  0.106177  0  0.1074  0.123138  0  1.010109  0
H  H42  1  0.84313779  0.31939762  0.63029606  1  0.106289  0  0.107421  0.123172  0  1.009997  0
H  H43  1  0.34314910  0.18059849  0.86970017  1  0.106402  0  0.107408  0.123144  0  1.010139  0
H  H44  1  0.04952545  0.50186516  0.31087474  1  0.07197  0  0.099879  0.100504  0  1.019773  0
H  H45  1  0.54953406  0.99813832  0.18912604  1  0.071868  0  0.099869  0.100486  0  1.019923  0
H  H46  1  0.95045898  0.49814149  0.68912478  1  0.071801  0  0.09987  0.100441  0  1.019894  0
H  H47  1  0.45047009  0.00186086  0.81087290  1  0.071846  0  0.099873  0.100521  0  1.019887  0
H  H48  1  0.85238766  0.39715677  0.35585303  1  0.099776  0  0.1049  0.110019  0  0.999642  0
H  H49  1  0.35239692  0.10284451  0.14414875  1  0.099653  0  0.104916  0.110052  0  0.999627  0
H  H50  1  0.14759776  0.60284791  0.64414841  1  0.099899  0  0.104928  0.110039  0  0.999698  0
H  H51  1  0.64760724  0.89715277  0.85585065  1  0.09971  0  0.104914  0.11001  0  0.999664  0
H  H52  1  0.74814398  0.47180550  0.45937163  1  0.04328  0  0.101963  0.107325  0  1.024625  0
H  H53  1  0.24814815  0.02819421  0.04062925  1  0.043223  0  0.10196  0.107344  0  1.024508  0
H  H54  1  0.25184440  0.52819724  0.54063125  1  0.043326  0  0.101956  0.107242  0  1.024517  0
H  H55  1  0.75185403  0.97180499  0.95936920  1  0.043198  0  0.10196  0.107351  0  1.024531  0
H  H56  1  0.78804978  0.69439896  0.62232562  1  0.125888  0  0.130265  0.13359  0  0.967421  0
H  H57  1  0.28805717  0.80560375  0.87766961  1  0.12569  0  0.130229  0.133512  0  0.96735  0
H  H58  1  0.21194156  0.30560200  0.37767530  1  0.125359  0  0.130264  0.133532  0  0.967445  0
H  H59  1  0.71194403  0.19439931  0.12232645  1  0.125249  0  0.130268  0.133544  0  0.967347  0
H  H60  1  0.75401688  0.55015827  0.58245542  1  0.093721  0  0.115349  0.100817  0  0.985563  0
H  H61  1  0.25402295  0.94984131  0.91754208  1  0.093734  0  0.115331  0.100744  0  0.985596  0
H  H62  1  0.24598037  0.44984267  0.41754598  1  0.093737  0  0.115345  0.100804  0  0.985548  0
H  H63  1  0.74597726  0.05015783  0.08245784  1  0.093727  0  0.115339  0.100772  0  0.985562  0
H  H64  1  0.69993038  0.80246803  0.46742709  1  0.141458  0  0.108623  0.12521  0  1.053553  0
H  H65  1  0.19992971  0.69753474  0.03256936  1  0.141502  0  0.10867  0.125249  0  1.053554  0
H  H66  1  0.30006490  0.19752628  0.53257570  1  0.141375  0  0.108564  0.125122  0  1.053572  0
H  H67  1  0.80007247  0.30246275  0.96742565  1  0.141454  0  0.10864  0.125197  0  1.05356  0
H  H68  1  0.47646050  0.87800753  0.43719236  1  0.13928  0  0.115215  0.086425  0  1.043569  0
H  H69  1  0.97646154  0.62199976  0.06280566  1  0.139306  0  0.115226  0.08642  0  1.043568  0
H  H70  1  0.52353379  0.12198605  0.56280602  1  0.139208  0  0.115243  0.08646  0  1.043579  0
H  H71  1  0.02354459  0.37799460  0.93719614  1  0.139397  0  0.115264  0.086483  0  1.043575  0
H  H72  1  0.31027250  0.72693188  0.60386752  1  0.17816  0  0.11885  0.097281  0  1.033448  0
H  H73  1  0.81027384  0.77306811  0.89612873  1  0.178164  0  0.118818  0.09728  0  1.033402  0
H  H74  1  0.68971982  0.27306641  0.39613043  1  0.177999  0  0.118826  0.097328  0  1.033329  0
H  H75  1  0.18972539  0.22694196  0.10387766  1  0.178091  0  0.118796  0.097344  0  1.033346  0
H  H76  1  0.52472233  0.62927777  0.63748883  1  0.094523  0  0.111541  0.121336  0  0.989516  0
H  H77  1  0.02472403  0.87072206  0.86251173  1  0.094497  0  0.111537  0.121321  0  0.989592  0
H  H78  1  0.47526703  0.37072308  0.36251453  1  0.094476  0  0.111542  0.121306  0  0.989603  0
H  H79  1  0.97527223  0.12928712  0.13749368  1  0.095155  0  0.111537  0.121297  0  0.989536  0
C  C80  1  0.25707543  0.99653281  0.35854844  1  1.609111  0  0.206729  0.643457  0  4.167351  0
C  C81  1  0.75708177  0.50349283  0.14144801  1  1.609144  0  0.206923  0.643864  0  4.167253  0
C  C82  1  0.74292478  0.00345688  0.64145282  1  1.609001  0  0.206732  0.643471  0  4.167393  0
C  C83  1  0.24292238  0.49651679  0.85854813  1  1.609791  0  0.206878  0.643704  0  4.167708  0
C  C84  1  0.34654432  0.98201331  0.29822908  1  -0.06673  0  -0.164024  -0.354728  0  3.949584  0
C  C85  1  0.84655860  0.51800162  0.20176806  1  -0.066613  0  -0.164306  -0.355236  0  3.950007  0
C  C86  1  0.65346378  0.01798842  0.70177526  1  -0.067007  0  -0.164011  -0.354758  0  3.949541  0
C  C87  1  0.15345147  0.48200234  0.79822898  1  -0.067568  0  -0.164102  -0.354927  0  3.949821  0
C  C88  1  0.45943511  0.89196925  0.30579932  1  -0.060329  0  -0.013236  0.145433  0  4.001062  0
C  C89  1  0.95945189  0.60803908  0.19419426  1  -0.060451  0  -0.013176  0.145631  0  4.000724  0
C  C90  1  0.54057594  0.10803080  0.69420109  1  -0.060816  0  -0.013167  0.145562  0  4.000883  0
C  C91  1  0.04056212  0.39196138  0.80579737  1  -0.06015  0  -0.013311  0.145483  0  4.000865  0
C  C92  1  0.43869789  0.76209182  0.30273881  1  -0.055895  0  -0.098069  -0.148311  0  3.984779  0
C  C93  1  0.93871563  0.73791313  0.19726393  1  -0.055846  0  -0.097873  -0.148175  0  3.984358  0
C  C94  1  0.56130133  0.23791172  0.69726702  1  -0.055384  0  -0.098012  -0.148222  0  3.98443  0
C  C95  1  0.06130036  0.26208321  0.80273547  1  -0.055806  0  -0.097895  -0.14811  0  3.984303  0
C  C96  1  0.54347683  0.67961292  0.31216123  1  -0.054273  0  -0.099727  -0.0807  0  4.063883  0
C  C97  1  0.04350112  0.82039127  0.18784344  1  -0.05434  0  -0.099787  -0.080801  0  4.063771  0
C  C98  1  0.45651647  0.32038893  0.68784067  1  -0.054388  0  -0.099822  -0.08082  0  4.063812  0
C  C99  1  0.95651092  0.17960480  0.81216181  1  -0.053987  0  -0.099824  -0.080839  0  4.063752  0
C  C100  1  0.67026495  0.72505343  0.32465435  1  -0.065293  0  -0.10443  -0.166053  0  4.00303  0
C  C101  1  0.17028576  0.77495174  0.17534690  1  -0.065148  0  -0.104502  -0.16603  0  4.002973  0
C  C102  1  0.32972935  0.27494008  0.67534550  1  -0.065092  0  -0.104317  -0.165879  0  4.002642  0
C  C103  1  0.82972529  0.22505102  0.82465550  1  -0.065317  0  -0.104447  -0.165998  0  4.002917  0
C  C104  1  0.69402822  0.85419902  0.32685713  1  0.006347  0  -0.010172  0.146157  0  3.967319  0
C  C105  1  0.19404414  0.64579913  0.17313729  1  0.006215  0  -0.010239  0.145978  0  3.96733  0
C  C106  1  0.30598480  0.14578580  0.67314798  1  0.014854  0  -0.010212  0.14619  0  3.967256  0
C  C107  1  0.80596592  0.35419937  0.82685627  1  0.006049  0  -0.010216  0.146069  0  3.967356  0
C  C108  1  0.58734628  0.93615700  0.31744700  1  -0.057589  0  -0.100547  -0.21539  0  3.923088  0
C  C109  1  0.08735782  0.56384741  0.18253929  1  -0.058039  0  -0.100456  -0.21513  0  3.922912  0
C  C110  1  0.41266379  0.06384106  0.68255583  1  -0.057693  0  -0.100691  -0.215719  0  3.923341  0
C  C111  1  0.91264830  0.43614949  0.81744840  1  -0.057827  0  -0.100515  -0.215272  0  3.923012  0
C  C112  1  0.83201641  0.90355323  0.33916293  1  -0.050881  0  -0.162867  -0.342602  0  3.921123  0
C  C113  1  0.33203476  0.59645339  0.16082967  1  -0.050145  0  -0.162877  -0.342453  0  3.920791  0
C  C114  1  0.16799563  0.09643262  0.66084025  1  -0.059139  0  -0.162836  -0.342766  0  3.920972  0
C  C115  1  0.66798024  0.40355158  0.83916592  1  -0.05072  0  -0.162846  -0.342546  0  3.920869  0
C  C116  1  0.83029503  0.00907229  0.38908744  1  1.555019  0  0.202643  0.634526  0  4.148519  0
C  C117  1  0.33030947  0.49093299  0.11090600  1  1.554366  0  0.202617  0.634285  0  4.148344  0
C  C118  1  0.16970518  0.99091176  0.61091424  1  1.554968  0  0.202693  0.634599  0  4.148114  0
C  C119  1  0.66970060  0.50907666  0.88908964  1  1.554652  0  0.202692  0.634594  0  4.148226  0
C  C120  1  0.96458827  0.76502181  0.54002249  1  0.993154  0  0.177116  0.161287  0  3.867789  0
C  C121  1  0.46459347  0.73498465  0.95997685  1  0.992868  0  0.177081  0.161281  0  3.867597  0
C  C122  1  0.03540701  0.23497526  0.45998131  1  0.992595  0  0.177109  0.161306  0  3.867673  0
C  C123  1  0.53541167  0.26501743  0.04002017  1  0.992525  0  0.177096  0.161242  0  3.86774  0
C  C124  1  0.01346584  0.67358232  0.44797329  1  0.396785  0  0.089488  0.144887  0  4.059835  0
C  C125  1  0.51347111  0.82642754  0.05202645  1  0.39664  0  0.089403  0.144801  0  4.060213  0
C  C126  1  0.98652057  0.32642806  0.55202676  1  0.39653  0  0.089479  0.144914  0  4.060251  0
C  C127  1  0.48652910  0.17356887  0.94797147  1  0.396751  0  0.089365  0.144737  0  4.060047  0
C  C128  1  0.06950305  0.63403547  0.38913721  1  -0.005218  0  -0.091669  -0.163383  0  3.97508  0
C  C129  1  0.56951248  0.86597000  0.11086367  1  -0.00526  0  -0.091693  -0.163444  0  3.975221  0
C  C130  1  0.93048236  0.36597490  0.61086284  1  -0.005292  0  -0.091773  -0.163622  0  3.975338  0
C  C131  1  0.43049266  0.13402838  0.88913233  1  -0.005585  0  -0.091656  -0.163329  0  3.975135  0
C  C132  1  0.00835811  0.53482478  0.35684330  1  -0.117977  0  -0.096929  -0.091847  0  4.026519  0
C  C133  1  0.50836577  0.96517651  0.14315828  1  -0.117698  0  -0.096919  -0.09175  0  4.026526  0
C  C134  1  0.99163224  0.46517807  0.64315715  1  -0.117672  0  -0.096896  -0.091574  0  4.02657  0
C  C135  1  0.49164233  0.03482081  0.85684015  1  -0.118031  0  -0.096934  -0.091839  0  4.026609  0
C  C136  1  0.89472931  0.47627099  0.38214799  1  -0.045956  0  -0.095669  -0.092956  0  4.016822  0
C  C137  1  0.39473760  0.02373252  0.11785202  1  -0.045556  0  -0.09568  -0.093025  0  4.016713  0
C  C138  1  0.10526005  0.52373374  0.61785248  1  -0.045828  0  -0.095708  -0.093084  0  4.016924  0
C  C139  1  0.60526852  0.97626668  0.88214643  1  -0.045937  0  -0.095699  -0.092992  0  4.017015  0
C  C140  1  0.83661457  0.51642738  0.44018979  1  0.072785  0  -0.094923  -0.161683  0  4.01583  0
C  C141  1  0.33661831  0.98357236  0.05981006  1  0.072632  0  -0.094907  -0.161718  0  4.015794  0
C  C142  1  0.16337479  0.48357267  0.55981063  1  0.072392  0  -0.094917  -0.161528  0  4.015924  0
C  C143  1  0.66338387  0.01642684  0.94018839  1  0.07311  0  -0.094891  -0.161682  0  4.015911  0
C  C144  1  0.89753668  0.61591492  0.47228003  1  0.277855  0  0.094107  0.08406  0  4.003281  0
C  C145  1  0.39754120  0.88409277  0.02771868  1  0.277804  0  0.094205  0.084226  0  4.003292  0
C  C146  1  0.10244775  0.38409358  0.52772000  1  0.277903  0  0.094143  0.084043  0  4.003821  0
C  C147  1  0.60245605  0.11590268  0.97227973  1  0.277799  0  0.094145  0.084129  0  4.003333  0
C  C148  1  0.76161142  0.65215925  0.57521544  1  0.299159  0  -0.038149  -0.115317  0  3.894983  0
C  C149  1  0.26161786  0.84784035  0.92478257  1  0.299234  0  -0.038065  -0.115029  0  3.894816  0
C  C150  1  0.23837695  0.34784071  0.42478692  1  0.299894  0  -0.038078  -0.115133  0  3.894843  0
C  C151  1  0.73838037  0.15215981  0.07521540  1  0.299689  0  -0.038103  -0.115147  0  3.894862  0
C  C152  1  0.63061531  0.70523366  0.55402572  1  -0.070382  0  0.016095  0.152713  0  3.939213  0
C  C153  1  0.13061776  0.79476786  0.94597330  1  -0.070335  0  0.01614  0.152678  0  3.939379  0
C  C154  1  0.36937899  0.29476166  0.44597562  1  -0.07031  0  0.016036  0.152622  0  3.93916  0
C  C155  1  0.86938048  0.20523500  0.05402715  1  -0.07014  0  0.016168  0.152783  0  3.939264  0
C  C156  1  0.61607151  0.77806864  0.49797695  1  -0.064063  0  -0.085202  -0.178998  0  3.926781  0
C  C157  1  0.11607152  0.72193256  0.00202161  1  -0.064164  0  -0.08528  -0.179098  0  3.92696  0
C  C158  1  0.38391983  0.22192478  0.50202485  1  -0.064199  0  -0.085166  -0.178995  0  3.926709  0
C  C159  1  0.88392671  0.27806477  0.99797682  1  -0.064157  0  -0.085233  -0.179019  0  3.926888  0
C  C160  1  0.49214410  0.82397065  0.48163910  1  0.551624  0  0.050349  0.110014  0  3.920643  0
C  C161  1  0.99214484  0.67602932  0.01835743  1  0.551705  0  0.050366  0.110113  0  3.920737  0
C  C162  1  0.50784723  0.17602197  0.51835976  1  0.551641  0  0.050338  0.110071  0  3.920785  0
C  C163  1  0.00785537  0.32396511  0.98164292  1  0.551426  0  0.050372  0.11007  0  3.920865  0
C  C164  1  0.39862259  0.73533923  0.57396534  1  0.413796  0  0.042195  0.085071  0  3.965757  0
C  C165  1  0.89862433  0.76465851  0.92603121  1  0.413938  0  0.042308  0.085134  0  3.965583  0
C  C166  1  0.60137071  0.26465897  0.42603456  1  0.414059  0  0.042252  0.08497  0  3.965807  0
C  C167  1  0.10137391  0.23535159  0.07397469  1  0.413845  0  0.042408  0.085085  0  3.965548  0
C  C168  1  0.51859906  0.68382399  0.59250340  1  -0.050642  0  -0.085291  -0.18728  0  3.950313  0
C  C169  1  0.01859910  0.81617501  0.90749419  1  -0.050596  0  -0.085327  -0.187284  0  3.950374  0
C  C170  1  0.48139621  0.31617229  0.40749746  1  -0.050713  0  -0.085255  -0.187108  0  3.950438  0
C  C171  1  0.98139716  0.18383701  0.09251076  1  -0.051397  0  -0.085461  -0.187333  0  3.950472  0
N  N172  1  0.05261399  0.76559775  0.49200556  1  -1.242976  0  -0.357148  -0.350162  0  3.562051  0
N  N173  1  0.55261399  0.73441228  0.00799580  1  -1.24296  0  -0.357141  -0.350128  0  3.562093  0
N  N174  1  0.94738030  0.23440687  0.50799735  1  -1.242547  0  -0.357099  -0.350151  0  3.561986  0
N  N175  1  0.44738720  0.26558884  0.99200170  1  -1.242275  0  -0.357054  -0.350058  0  3.561971  0
N  N176  1  0.86966979  0.67701794  0.53059095  1  -1.242393  0  -0.236531  -0.01141  0  3.72535  0
N  N177  1  0.36967675  0.82298894  0.96940658  1  -1.242435  0  -0.236527  -0.011536  0  3.725425  0
N  N178  1  0.13032056  0.32298290  0.46941241  1  -1.242462  0  -0.236573  -0.011504  0  3.725578  0
N  N179  1  0.63032445  0.17701315  0.03059044  1  -1.24258  0  -0.23656  -0.011512  0  3.725549  0
N  N180  1  0.38467631  0.80348149  0.51879510  1  -1.265025  0  -0.328992  -0.241398  0  3.551847  0
N  N181  1  0.88467940  0.69651986  0.98120242  1  -1.265204  0  -0.329081  -0.241486  0  3.551877  0
N  N182  1  0.61531306  0.19651213  0.48120230  1  -1.264931  0  -0.329008  -0.241422  0  3.551993  0
N  N183  1  0.11531785  0.30348377  0.01880146  1  -1.264863  0  -0.32912  -0.241563  0  3.551933  0
O  O184  1  0.26262665  0.90474866  0.39990383  1  -1.202518  0  -0.340128  -0.579014  0  2.386467  0
O  O185  1  0.76262314  0.59528531  0.10009567  1  -1.202221  0  -0.340208  -0.579257  0  2.386461  0
O  O186  1  0.73736666  0.09523930  0.60009449  1  -1.202688  0  -0.340051  -0.57886  0  2.386473  0
O  O187  1  0.23737509  0.40471694  0.89989794  1  -1.202718  0  -0.340169  -0.579179  0  2.386489  0
O  O188  1  0.18630644  0.09144810  0.36264274  1  -1.196977  0  -0.332922  -0.568025  0  2.143648  0
O  O189  1  0.68630277  0.40858420  0.13735440  1  -1.197182  0  -0.333001  -0.568169  0  2.143684  0
O  O190  1  0.81369180  0.90853948  0.63736338  1  -1.196645  0  -0.332908  -0.568058  0  2.143686  0
O  O191  1  0.31369054  0.59142524  0.86264564  1  -1.197394  0  -0.333  -0.568103  0  2.143936  0
O  O192  1  0.82609654  0.97310222  0.44997595  1  -1.160322  0  -0.337326  -0.563458  0  2.292107  0
O  O193  1  0.32609690  0.52690049  0.05001902  1  -1.159914  0  -0.337308  -0.563385  0  2.291931  0
O  O194  1  0.17390367  0.02689028  0.55002535  1  -1.160229  0  -0.337253  -0.563432  0  2.291937  0
O  O195  1  0.67390824  0.47310721  0.94997807  1  -1.159841  0  -0.337251  -0.563392  0  2.292053  0
O  O196  1  0.82795253  0.12078311  0.37077631  1  -1.189657  0  -0.334834  -0.582143  0  2.129701  0
O  O197  1  0.32796055  0.37921834  0.12921854  1  -1.189459  0  -0.334816  -0.582033  0  2.129672  0
O  O198  1  0.17203881  0.87919921  0.62922242  1  -1.18988  0  -0.334904  -0.582158  0  2.129579  0
O  O199  1  0.67203769  0.62078945  0.87077659  1  -1.189512  0  -0.334881  -0.582196  0  2.129549  0
