# generated using pymatgen
data_ZnH5C7NO5
_symmetry_space_group_name_H-M   'P 1'
_cell_length_a   11.36437814
_cell_length_b   11.96179914
_cell_length_c   16.67930437
_cell_angle_alpha   89.99980316
_cell_angle_beta   106.19508450
_cell_angle_gamma   89.99976913
_symmetry_Int_Tables_number   1
_chemical_formula_structural   ZnH5C7NO5
_chemical_formula_sum   'Zn8 H40 C56 N8 O40'
_cell_volume   2177.38392144
_cell_formula_units_Z   8
loop_
 _symmetry_equiv_pos_site_id
 _symmetry_equiv_pos_as_xyz
  1  'x, y, z'
loop_
 _atom_site_type_symbol
 _atom_site_label
 _atom_site_symmetry_multiplicity
 _atom_site_fract_x
 _atom_site_fract_y
 _atom_site_fract_z
 _atom_site_occupancy
 _atom_site_pbe_bader_charge
 _atom_site_pbe_bader_spin_density
 _atom_site_pbe_cm5_charge
 _atom_site_pbe_ddec_charge
 _atom_site_pbe_ddec_spin_density
 _atom_site_pbe_ddec_sum_bond_order
 _atom_site_pbe_magmom
Zn  Zn0  1  0.41176934  0.49955906  0.19038337  1  1.314376  0  0.693423  0.892938  0  2.241535  0
Zn  Zn1  1  0.08823272  0.99956027  0.30961529  1  1.314426  0  0.693436  0.892978  0  2.241468  0
Zn  Zn2  1  0.58823037  0.50044174  0.80961496  1  1.31436  0  0.693397  0.892911  0  2.241474  0
Zn  Zn3  1  0.91176974  0.00044052  0.69038298  1  1.314389  0  0.693391  0.892857  0  2.241585  0
Zn  Zn4  1  0.24415637  0.73413469  0.09586802  1  1.357796  0  0.681134  0.911831  0  2.319256  0
Zn  Zn5  1  0.25584169  0.23414309  0.40413112  1  1.357696  0  0.681088  0.911785  0  2.319349  0
Zn  Zn6  1  0.75584149  0.26585858  0.90413235  1  1.357758  0  0.681122  0.911829  0  2.319228  0
Zn  Zn7  1  0.74415708  0.76585854  0.59586883  1  1.357686  0  0.681105  0.911836  0  2.319206  0
H  H8  1  0.40820983  0.08681590  0.22060919  1  0.103115  0  0.113409  0.122  0  1.020531  0
H  H9  1  0.09176528  0.58681223  0.27938107  1  0.103047  0  0.113409  0.122105  0  1.020453  0
H  H10  1  0.59176424  0.91318824  0.77938178  1  0.103054  0  0.113396  0.122066  0  1.02047  0
H  H11  1  0.90822707  0.41318522  0.72061823  1  0.10315  0  0.113407  0.122064  0  1.02046  0
H  H12  1  0.50166853  0.03544831  0.10241040  1  0.157026  0  0.116728  0.125626  0  1.001468  0
H  H13  1  0.99831219  0.53544752  0.39758282  1  0.156735  0  0.116736  0.125595  0  1.001435  0
H  H14  1  0.49830647  0.96455416  0.89758014  1  0.156996  0  0.116746  0.125649  0  1.001421  0
H  H15  1  0.00168381  0.46455578  0.60241959  1  0.156677  0  0.116728  0.125622  0  1.001466  0
H  H16  1  0.54503626  0.38862260  0.06814969  1  0.151291  0  0.121511  0.10354  0  1.008621  0
H  H17  1  0.95497995  0.88862517  0.43185852  1  0.151347  0  0.121479  0.103507  0  1.008608  0
H  H18  1  0.45497808  0.61137819  0.93185507  1  0.15141  0  0.121485  0.103499  0  1.008625  0
H  H19  1  0.04503163  0.11138064  0.56814750  1  0.151316  0  0.121492  0.103485  0  1.00868  0
H  H20  1  0.04549879  0.42939475  0.89042403  1  0.151545  0  0.113925  0.131244  0  1.002957  0
H  H21  1  0.45450090  0.92939633  0.60957101  1  0.151461  0  0.113965  0.131319  0  1.002923  0
H  H22  1  0.95449910  0.57060521  0.10957214  1  0.151564  0  0.113937  0.131237  0  1.002989  0
H  H23  1  0.54549972  0.07060112  0.39042749  1  0.151497  0  0.113969  0.131293  0  1.00298  0
H  H24  1  0.93363347  0.55998989  0.77281831  1  0.125931  0  0.110958  0.109732  0  1.01958  0
H  H25  1  0.56636537  0.05998398  0.72718043  1  0.125692  0  0.110955  0.109696  0  1.01965  0
H  H26  1  0.06636349  0.44001425  0.22717949  1  0.125736  0  0.110964  0.109751  0  1.019636  0
H  H27  1  0.43363433  0.94001347  0.27281849  1  0.125688  0  0.110944  0.109689  0  1.019617  0
H  H28  1  0.07855553  0.83753637  0.93300726  1  0.159198  0  0.128414  0.114326  0  0.982573  0
H  H29  1  0.42145379  0.33753821  0.56699647  1  0.159227  0  0.128365  0.114197  0  0.982632  0
H  H30  1  0.92145147  0.16246359  0.06699608  1  0.159212  0  0.128423  0.114344  0  0.982523  0
H  H31  1  0.57854774  0.66245924  0.43300341  1  0.159192  0  0.128411  0.114328  0  0.982574  0
H  H32  1  0.60206409  0.61121757  0.15083362  1  0.595088  0  0.328444  0.405339  0  0.865623  0
H  H33  1  0.89794181  0.11122151  0.34916969  1  0.595228  0  0.32844  0.405414  0  0.865654  0
H  H34  1  0.39794015  0.38877820  0.84917099  1  0.595219  0  0.328446  0.405392  0  0.865662  0
H  H35  1  0.10206246  0.88878179  0.65083192  1  0.59511  0  0.328432  0.405355  0  0.865689  0
H  H36  1  0.47954997  0.63794305  0.08103146  1  0.651222  0  0.289749  0.388603  0  0.956003  0
H  H37  1  0.02045504  0.13794979  0.41896986  1  0.651106  0  0.289676  0.38852  0  0.956124  0
H  H38  1  0.52045520  0.36205273  0.91897153  1  0.651101  0  0.289715  0.388527  0  0.956125  0
H  H39  1  0.97954832  0.86205518  0.58103037  1  0.651194  0  0.28971  0.388555  0  0.956085  0
H  H40  1  0.27249470  0.93078659  0.05286512  1  0.64658  0  0.290564  0.384142  0  0.952086  0
H  H41  1  0.22750772  0.43079156  0.44713678  1  0.646579  0  0.290571  0.384196  0  0.952024  0
H  H42  1  0.72750499  0.06920668  0.94713441  1  0.646556  0  0.290577  0.384237  0  0.952003  0
H  H43  1  0.77249928  0.56920840  0.55286776  1  0.646644  0  0.290593  0.384251  0  0.951974  0
H  H44  1  0.19873059  0.93306882  0.12629610  1  0.65596  0  0.300231  0.395295  0  0.922931  0
H  H45  1  0.30126452  0.43307302  0.37370077  1  0.656014  0  0.300217  0.395326  0  0.922908  0
H  H46  1  0.80126728  0.06692528  0.87370187  1  0.656018  0  0.300252  0.395378  0  0.92283  0
H  H47  1  0.69873060  0.56692777  0.62629727  1  0.656032  0  0.300227  0.39536  0  0.92285  0
C  C48  1  0.43211134  0.26136070  0.20477738  1  0.475631  0  0.119648  0.111729  0  3.965503  0
C  C49  1  0.06788564  0.76135872  0.29522208  1  0.475606  0  0.119632  0.11172  0  3.965342  0
C  C50  1  0.56788652  0.73864260  0.79522179  1  0.475861  0  0.119607  0.111651  0  3.965409  0
C  C51  1  0.93211587  0.23863957  0.70478019  1  0.47562  0  0.119692  0.11182  0  3.965327  0
C  C52  1  0.44178159  0.14927391  0.18510288  1  0.011378  0  -0.070378  -0.123644  0  3.925584  0
C  C53  1  0.05820232  0.64926937  0.31489073  1  0.011621  0  -0.070402  -0.123886  0  3.925355  0
C  C54  1  0.55819980  0.85073106  0.81489070  1  0.012289  0  -0.070402  -0.123836  0  3.92538  0
C  C55  1  0.94179279  0.35072808  0.68510911  1  0.011496  0  -0.070426  -0.123853  0  3.925408  0
C  C56  1  0.49272179  0.12173379  0.12093352  1  -0.051231  0  -0.047425  -0.019942  0  3.888558  0
C  C57  1  0.00726775  0.62173165  0.37906365  1  -0.050715  0  -0.047372  -0.019694  0  3.888397  0
C  C58  1  0.50726417  0.87826951  0.87906275  1  -0.051392  0  -0.047376  -0.019795  0  3.888382  0
C  C59  1  0.99273009  0.37827082  0.62093792  1  -0.050576  0  -0.047395  -0.019882  0  3.8884  0
C  C60  1  0.53226318  0.20781201  0.07794894  1  0.020202  0  -0.00289  -0.066446  0  3.926826  0
C  C61  1  0.96773942  0.70781373  0.42205289  1  0.01913  0  -0.00288  -0.06651  0  3.926814  0
C  C62  1  0.46773742  0.79218878  0.92205196  1  0.019541  0  -0.002813  -0.066374  0  3.926832  0
C  C63  1  0.03226483  0.29219124  0.57795052  1  0.019569  0  -0.002803  -0.066302  0  3.92664  0
C  C64  1  0.51709111  0.31851690  0.10019494  1  0.482061  0  0.062187  0.098415  0  3.881541  0
C  C65  1  0.98291453  0.81851784  0.39980721  1  0.482593  0  0.062218  0.09845  0  3.881634  0
C  C66  1  0.48291133  0.68148556  0.89980572  1  0.482306  0  0.062218  0.098421  0  3.881719  0
C  C67  1  0.01709522  0.18148462  0.60019726  1  0.482091  0  0.062176  0.098437  0  3.881619  0
C  C68  1  0.59396172  0.18132941  0.01113601  1  1.597823  0  0.215298  0.584454  0  4.20807  0
C  C69  1  0.90604651  0.68133106  0.48886997  1  1.597876  0  0.21526  0.584353  0  4.208076  0
C  C70  1  0.40603978  0.81866720  0.98886746  1  1.597955  0  0.215227  0.584399  0  4.208199  0
C  C71  1  0.09396412  0.31867141  0.51113887  1  1.597828  0  0.215293  0.584436  0  4.207849  0
C  C72  1  0.37842978  0.29678090  0.27388112  1  1.613105  0  0.220936  0.556948  0  4.189886  0
C  C73  1  0.12156792  0.79677402  0.22611899  1  1.613407  0  0.221  0.557089  0  4.189656  0
C  C74  1  0.62156808  0.70322491  0.72611865  1  1.613411  0  0.220978  0.55705  0  4.189712  0
C  C75  1  0.87843359  0.20322092  0.77388328  1  1.613456  0  0.220913  0.556841  0  4.190015  0
C  C76  1  0.12233014  0.56790535  0.97050513  1  0.46066  0  0.118872  0.11113  0  3.940621  0
C  C77  1  0.37767711  0.06790754  0.52949047  1  0.460525  0  0.118849  0.111247  0  3.940268  0
C  C78  1  0.87766957  0.43209377  0.02949260  1  0.460722  0  0.118862  0.111148  0  3.940623  0
C  C79  1  0.62232535  0.93208991  0.47050779  1  0.460859  0  0.118903  0.111198  0  3.940342  0
C  C80  1  0.05151096  0.52005834  0.89643788  1  -0.039362  0  -0.072437  -0.131952  0  3.93261  0
C  C81  1  0.44849288  0.02005823  0.60356018  1  -0.03928  0  -0.072565  -0.13224  0  3.932616  0
C  C82  1  0.94848508  0.47994161  0.10356034  1  -0.039202  0  -0.072473  -0.132015  0  3.932582  0
C  C83  1  0.55150683  0.97993921  0.39643815  1  -0.03938  0  -0.072505  -0.132086  0  3.932653  0
C  C84  1  0.00316008  0.70693514  0.84232694  1  -0.005909  0  -0.004769  -0.065724  0  3.933915  0
C  C85  1  0.49684267  0.20693208  0.65767345  1  -0.005857  0  -0.004786  -0.065869  0  3.934001  0
C  C86  1  0.99683869  0.29306649  0.15767421  1  -0.005665  0  -0.00477  -0.065779  0  3.933941  0
C  C87  1  0.50315794  0.79306537  0.34232566  1  -0.005893  0  -0.004753  -0.0658  0  3.934045  0
C  C88  1  0.99081064  0.59116639  0.83218774  1  0.013455  0  -0.054821  -0.027967  0  3.912193  0
C  C89  1  0.50919446  0.09116349  0.66781034  1  0.013629  0  -0.054737  -0.027756  0  3.912227  0
C  C90  1  0.00919091  0.40883608  0.16781034  1  0.013137  0  -0.054797  -0.027919  0  3.912149  0
C  C91  1  0.49080708  0.90883480  0.33218775  1  0.013614  0  -0.054777  -0.027817  0  3.912197  0
C  C92  1  0.06981840  0.74812177  0.92007059  1  0.475825  0  0.068871  0.103513  0  3.864999  0
C  C93  1  0.43018780  0.24812017  0.57992796  1  0.475794  0  0.068905  0.103706  0  3.865003  0
C  C94  1  0.93018312  0.25187986  0.07992989  1  0.475851  0  0.068859  0.103521  0  3.865037  0
C  C95  1  0.56981190  0.75187728  0.42007037  1  0.475771  0  0.068894  0.103594  0  3.865098  0
C  C96  1  0.94797152  0.78284013  0.76981026  1  1.601224  0  0.217965  0.592516  0  4.203354  0
C  C97  1  0.55202786  0.28283593  0.73019224  1  1.601255  0  0.217955  0.592583  0  4.203254  0
C  C98  1  0.05202723  0.21716401  0.23019209  1  1.601193  0  0.217937  0.592561  0  4.20315  0
C  C99  1  0.44796908  0.71716152  0.26980855  1  1.60127  0  0.217957  0.592604  0  4.203273  0
C  C100  1  0.20155610  0.49668818  0.04010780  1  1.608816  0  0.209851  0.541578  0  4.206585  0
C  C101  1  0.29845242  0.99668453  0.45988731  1  1.609179  0  0.209886  0.541744  0  4.206395  0
C  C102  1  0.79844545  0.50330844  0.95988908  1  1.608791  0  0.209875  0.541659  0  4.206534  0
C  C103  1  0.70155189  0.00331543  0.54010891  1  1.609  0  0.209935  0.541809  0  4.206462  0
N  N104  1  0.46825213  0.34431481  0.16239853  1  -1.253263  0  -0.319987  -0.260902  0  3.58662  0
N  N105  1  0.03175261  0.84431527  0.33760403  1  -1.2533  0  -0.320028  -0.260963  0  3.586614  0
N  N106  1  0.53175213  0.65568682  0.83760368  1  -1.253981  0  -0.320011  -0.260889  0  3.586557  0
N  N107  1  0.96825257  0.15568552  0.66239836  1  -1.253249  0  -0.319975  -0.260881  0  3.586516  0
N  N108  1  0.12716663  0.67950893  0.98211848  1  -1.23039  0  -0.315998  -0.247199  0  3.544478  0
N  N109  1  0.37284364  0.17950951  0.51787983  1  -1.230452  0  -0.315936  -0.247247  0  3.544528  0
N  N110  1  0.87283765  0.32049103  0.01788073  1  -1.23049  0  -0.316002  -0.247227  0  3.544572  0
N  N111  1  0.62715883  0.82048961  0.48211844  1  -1.230436  0  -0.316017  -0.247309  0  3.54462  0
O  O112  1  0.34856353  0.39953055  0.27542856  1  -1.164354  0  -0.298275  -0.529036  0  2.278254  0
O  O113  1  0.15142170  0.89952690  0.22456528  1  -1.164536  0  -0.298267  -0.52908  0  2.278178  0
O  O114  1  0.65142427  0.60047192  0.72456626  1  -1.164526  0  -0.298261  -0.529043  0  2.278126  0
O  O115  1  0.84857160  0.10047138  0.77543061  1  -1.164573  0  -0.298229  -0.528952  0  2.278384  0
O  O116  1  0.36791592  0.22099622  0.32422704  1  -1.161732  0  -0.30094  -0.517798  0  2.30769  0
O  O117  1  0.13208131  0.72098953  0.17577077  1  -1.161835  0  -0.301018  -0.517886  0  2.307529  0
O  O118  1  0.63208013  0.77900876  0.67576998  1  -1.161838  0  -0.301008  -0.517866  0  2.307574  0
O  O119  1  0.86791928  0.27900624  0.82423133  1  -1.161804  0  -0.301006  -0.517806  0  2.307608  0
O  O120  1  0.62606608  0.08210767  0.00446625  1  -1.154539  0  -0.303699  -0.526954  0  2.149285  0
O  O121  1  0.87394272  0.58211192  0.49553949  1  -1.154425  0  -0.303689  -0.526866  0  2.149318  0
O  O122  1  0.37393085  0.91788811  0.99553454  1  -1.154457  0  -0.303713  -0.526978  0  2.14932  0
O  O123  1  0.12607251  0.41789055  0.50446904  1  -1.154543  0  -0.303681  -0.526944  0  2.149215  0
O  O124  1  0.61277432  0.26479616  0.96733018  1  -1.194747  0  -0.321634  -0.594817  0  2.381487  0
O  O125  1  0.88722973  0.76479920  0.53267506  1  -1.194898  0  -0.321574  -0.594778  0  2.381527  0
O  O126  1  0.38722992  0.73520129  0.03267502  1  -1.194904  0  -0.321537  -0.594751  0  2.381662  0
O  O127  1  0.11277632  0.23520410  0.46733229  1  -1.19469  0  -0.321678  -0.594876  0  2.381413  0
O  O128  1  0.26429840  0.55511139  0.10485245  1  -1.177477  0  -0.325701  -0.567132  0  2.485281  0
O  O129  1  0.23570713  0.05511908  0.39514258  1  -1.177557  0  -0.325713  -0.567275  0  2.485185  0
O  O130  1  0.73570406  0.44488439  0.89514581  1  -1.177574  0  -0.325661  -0.567135  0  2.485355  0
O  O131  1  0.76429626  0.94488171  0.60485347  1  -1.177493  0  -0.325711  -0.56724  0  2.485206  0
O  O132  1  0.20542593  0.39436579  0.03244993  1  -1.157841  0  -0.312162  -0.499401  0  2.071032  0
O  O133  1  0.29458232  0.89437298  0.46753759  1  -1.157907  0  -0.312146  -0.499394  0  2.071267  0
O  O134  1  0.79457106  0.60563250  0.96754307  1  -1.157719  0  -0.312212  -0.499469  0  2.070989  0
O  O135  1  0.70542200  0.10562614  0.53245803  1  -1.157923  0  -0.312223  -0.499486  0  2.071359  0
O  O136  1  0.88752723  0.73585165  0.70338372  1  -1.188282  0  -0.312696  -0.558719  0  2.381171  0
O  O137  1  0.61247425  0.23584858  0.79661870  1  -1.188386  0  -0.312697  -0.558733  0  2.381312  0
O  O138  1  0.11246600  0.26415332  0.29662055  1  -1.188324  0  -0.312678  -0.558732  0  2.381234  0
O  O139  1  0.38752085  0.76414971  0.20338174  1  -1.188382  0  -0.312681  -0.558727  0  2.38123  0
O  O140  1  0.97018016  0.88765539  0.78106791  1  -1.155977  0  -0.320738  -0.54888  0  2.302714  0
O  O141  1  0.52982231  0.38765385  0.71893253  1  -1.155851  0  -0.32074  -0.54893  0  2.302582  0
O  O142  1  0.02982138  0.11234624  0.21893138  1  -1.15585  0  -0.320717  -0.548889  0  2.302552  0
O  O143  1  0.47017646  0.61234444  0.28106742  1  -1.155938  0  -0.320774  -0.548986  0  2.302612  0
O  O144  1  0.52853508  0.57586693  0.11593537  1  -1.219502  0  -0.56444  -0.749065  0  2.052254  0
O  O145  1  0.97147193  0.07587293  0.38406824  1  -1.219552  0  -0.564366  -0.749086  0  2.052378  0
O  O146  1  0.47146917  0.42412801  0.88406803  1  -1.219551  0  -0.56441  -0.749066  0  2.052359  0
O  O147  1  0.02853417  0.92413121  0.61593313  1  -1.219497  0  -0.564399  -0.749047  0  2.052374  0
O  O148  1  0.20127088  0.90326490  0.07175591  1  -1.274686  0  -0.573145  -0.749284  0  2.122239  0
O  O149  1  0.29872989  0.40327136  0.42824273  1  -1.274646  0  -0.573128  -0.749358  0  2.122204  0
O  O150  1  0.79872790  0.09672837  0.92824343  1  -1.274621  0  -0.573157  -0.749462  0  2.122151  0
O  O151  1  0.70127257  0.59672943  0.57175613  1  -1.274717  0  -0.573151  -0.749466  0  2.122189  0
