# generated using pymatgen
data_ZnH3C4N4O
_symmetry_space_group_name_H-M   'P 1'
_cell_length_a   8.06556802
_cell_length_b   9.58633011
_cell_length_c   16.05717755
_cell_angle_alpha   89.99984712
_cell_angle_beta   90.00033329
_cell_angle_gamma   110.88887011
_symmetry_Int_Tables_number   1
_chemical_formula_structural   ZnH3C4N4O
_chemical_formula_sum   'Zn8 H24 C32 N32 O8'
_cell_volume   1159.92710336
_cell_formula_units_Z   8
loop_
 _symmetry_equiv_pos_site_id
 _symmetry_equiv_pos_as_xyz
  1  'x, y, z'
loop_
 _atom_site_type_symbol
 _atom_site_label
 _atom_site_symmetry_multiplicity
 _atom_site_fract_x
 _atom_site_fract_y
 _atom_site_fract_z
 _atom_site_occupancy
 _atom_site_hle17_bader_spin_density
 _atom_site_hle17_ddec_charge
 _atom_site_hle17_ddec_spin_density
 _atom_site_hle17_ddec_sum_bond_order
 _atom_site_hle17_magmom
 _atom_site_hse06_10hf_bader_spin_density
 _atom_site_hse06_10hf_ddec_charge
 _atom_site_hse06_10hf_ddec_spin_density
 _atom_site_hse06_10hf_ddec_sum_bond_order
 _atom_site_hse06_10hf_magmom
 _atom_site_hse06_bader_spin_density
 _atom_site_hse06_ddec_charge
 _atom_site_hse06_ddec_spin_density
 _atom_site_hse06_ddec_sum_bond_order
 _atom_site_hse06_magmom
 _atom_site_pbe_bader_spin_density
 _atom_site_pbe_cm5_charge
 _atom_site_pbe_ddec_charge
 _atom_site_pbe_ddec_spin_density
 _atom_site_pbe_ddec_sum_bond_order
 _atom_site_pbe_magmom
Zn  Zn0  1  0.71708992  0.00852408  0.80891904  1  0  1.051985  0  1.929625  0  0  0.866465  0  2.418468  0  0  0.906975  0  2.362912  0  0  0.700115  0.83875  0  2.455805  0
Zn  Zn1  1  0.78290935  0.49147547  0.30891743  1  0  1.052039  0  1.929588  0  0  0.866538  0  2.418408  0  0  0.907053  0  2.362845  0  0  0.70013  0.83883  0  2.455743  0
Zn  Zn2  1  0.28290887  0.99147586  0.19108177  1  0  1.051961  0  1.929717  0  0  0.866443  0  2.418499  0  0  0.906967  0  2.36294  0  0  0.700098  0.83874  0  2.455833  0
Zn  Zn3  1  0.21709021  0.50852335  0.69108400  1  0  1.052008  0  1.929608  0  0  0.86653  0  2.418389  0  0  0.907046  0  2.362827  0  0  0.700119  0.838825  0  2.455722  0
Zn  Zn4  1  0.79864751  0.25702346  0.64007671  1  0  1.074873  0  1.894805  0  0  0.892316  0  2.381504  0  0  0.933114  0  2.326687  0  0  0.695005  0.863709  0  2.41916  0
Zn  Zn5  1  0.70134939  0.24297516  0.14007650  1  0  1.074891  0  1.894821  0  0  0.892332  0  2.381519  0  0  0.933135  0  2.326702  0  0  0.695028  0.86373  0  2.419174  0
Zn  Zn6  1  0.20135080  0.74297536  0.35992348  1  0  1.074884  0  1.894775  0  0  0.89232  0  2.381483  0  0  0.933116  0  2.326665  0  0  0.694998  0.86371  0  2.419137  0
Zn  Zn7  1  0.29865016  0.75702366  0.85992306  1  0  1.074882  0  1.89477  0  0  0.892316  0  2.381471  0  0  0.933118  0  2.326654  0  0  0.695011  0.863715  0  2.419123  0
H  H8  1  0.61904034  0.48912820  0.08270122  1  0  0.099513  0  0.959417  0  0  0.110928  0  1.019913  0  0  0.114291  0  1.017379  0  0  0.104578  0.108518  0  1.021895  0
H  H9  1  0.88096089  0.01087048  0.58269957  1  0  0.099562  0  0.959398  0  0  0.110971  0  1.019893  0  0  0.114337  0  1.017362  0  0  0.104595  0.108563  0  1.021876  0
H  H10  1  0.38095892  0.51087285  0.91729710  1  0  0.099505  0  0.959334  0  0  0.110912  0  1.019842  0  0  0.114283  0  1.017308  0  0  0.104589  0.108502  0  1.021823  0
H  H11  1  0.11904038  0.98912946  0.41729999  1  0  0.099534  0  0.959413  0  0  0.110945  0  1.019912  0  0  0.114312  0  1.017375  0  0  0.104567  0.108537  0  1.021895  0
H  H12  1  0.65963422  0.75607998  0.09818386  1  0  0.099847  0  0.940493  0  0  0.109207  0  0.998413  0  0  0.111727  0  0.998401  0  0  0.103533  0.107343  0  0.998593  0
H  H13  1  0.84036660  0.74391814  0.59818421  1  0  0.099826  0  0.940501  0  0  0.109185  0  0.998426  0  0  0.111704  0  0.998412  0  0  0.103512  0.10732  0  0.998606  0
H  H14  1  0.34036552  0.24392220  0.90181508  1  0  0.099828  0  0.94047  0  0  0.109197  0  0.998408  0  0  0.111715  0  0.998394  0  0  0.103527  0.107333  0  0.998588  0
H  H15  1  0.15963343  0.25608180  0.40181847  1  0  0.099827  0  0.94046  0  0  0.109184  0  0.998391  0  0  0.111704  0  0.998376  0  0  0.103522  0.107319  0  0.998571  0
H  H16  1  0.83051999  0.94114051  0.99332447  1  0  0.089924  0  0.990702  0  0  0.091962  0  1.070958  0  0  0.094699  0  1.069409  0  0  0.098489  0.089217  0  1.073582  0
H  H17  1  0.66948198  0.55885829  0.49332322  1  0  0.089924  0  0.990675  0  0  0.091967  0  1.070921  0  0  0.094704  0  1.069372  0  0  0.098498  0.089224  0  1.073546  0
H  H18  1  0.16947803  0.05886055  0.00667447  1  0  0.089924  0  0.990709  0  0  0.091974  0  1.070965  0  0  0.09471  0  1.069416  0  0  0.098485  0.089234  0  1.073591  0
H  H19  1  0.33051633  0.44114054  0.50667946  1  0  0.089885  0  0.990707  0  0  0.0919  0  1.071009  0  0  0.094637  0  1.06946  0  0  0.098462  0.089158  0  1.07363  0
H  H20  1  0.91592149  0.58964928  0.85316326  1  0  0.099188  0  1.007624  0  0  0.102313  0  1.08578  0  0  0.106286  0  1.081879  0  0  0.103944  0.099413  0  1.088886  0
H  H21  1  0.58408035  0.91035302  0.35316119  1  0  0.099167  0  1.007662  0  0  0.102299  0  1.085818  0  0  0.106272  0  1.081917  0  0  0.103929  0.099399  0  1.088926  0
H  H22  1  0.08407730  0.41035066  0.14683631  1  0  0.099188  0  1.007611  0  0  0.102284  0  1.085797  0  0  0.106255  0  1.081893  0  0  0.103929  0.099383  0  1.088905  0
H  H23  1  0.41592169  0.08964580  0.64684024  1  0  0.099211  0  1.007571  0  0  0.102346  0  1.085718  0  0  0.10632  0  1.081817  0  0  0.103947  0.099445  0  1.088827  0
H  H24  1  0.56836067  0.73181602  0.79447050  1  0  0.378233  0  0.944947  0  0  0.339475  0  1.022946  0  0  0.349351  0  1.008777  0  0  0.268751  0.332162  0  1.033444  0
H  H25  1  0.93164280  0.76818300  0.29446968  1  0  0.378217  0  0.944987  0  0  0.339452  0  1.022984  0  0  0.349326  0  1.008818  0  0  0.268763  0.332138  0  1.033483  0
H  H26  1  0.43164183  0.26818392  0.20552969  1  0  0.378231  0  0.944958  0  0  0.339466  0  1.022961  0  0  0.349341  0  1.008794  0  0  0.268753  0.332152  0  1.03346  0
H  H27  1  0.06835675  0.23181582  0.70553051  1  0  0.37821  0  0.944997  0  0  0.339441  0  1.023001  0  0  0.349316  0  1.008833  0  0  0.268758  0.332128  0  1.033498  0
H  H28  1  0.59040948  0.98548998  0.66866491  1  0  0.403955  0  0.880078  0  0  0.38224  0  0.941004  0  0  0.389847  0  0.930014  0  0  0.291131  0.376723  0  0.949052  0
H  H29  1  0.90959041  0.51450693  0.16866381  1  0  0.403931  0  0.88003  0  0  0.382219  0  0.941015  0  0  0.389826  0  0.930024  0  0  0.291125  0.376704  0  0.949059  0
H  H30  1  0.40959132  0.01450884  0.33133528  1  0  0.403969  0  0.880102  0  0  0.382246  0  0.941011  0  0  0.389853  0  0.93002  0  0  0.291116  0.37673  0  0.949055  0
H  H31  1  0.09040743  0.48549077  0.83133638  1  0  0.403941  0  0.880125  0  0  0.382223  0  0.941043  0  0  0.38983  0  0.930052  0  0  0.291121  0.376707  0  0.949086  0
C  C32  1  0.77054575  0.52180639  0.96824061  1  0  0.002811  0  3.79731  0  0  0.024296  0  4.028921  0  0  0.020949  0  4.052998  0  0  -0.007538  0.026321  0  4.012804  0
C  C33  1  0.72945518  0.97819355  0.46823886  1  0  0.002729  0  3.797444  0  0  0.02424  0  4.029021  0  0  0.02089  0  4.053105  0  0  -0.007492  0.026268  0  4.012901  0
C  C34  1  0.22945199  0.47819690  0.03175834  1  0  0.002788  0  3.797324  0  0  0.02427  0  4.028886  0  0  0.020923  0  4.052971  0  0  -0.007505  0.026296  0  4.012768  0
C  C35  1  0.27054590  0.02180304  0.53176133  1  0  0.002682  0  3.797306  0  0  0.02418  0  4.028898  0  0  0.020831  0  4.052977  0  0  -0.007531  0.026207  0  4.012779  0
C  C36  1  0.69736314  0.56962661  0.03706685  1  0  -0.081853  0  3.71778  0  0  -0.10575  0  3.963659  0  0  -0.105734  0  3.98278  0  0  -0.082096  -0.106087  0  3.950916  0
C  C37  1  0.80263452  0.93037158  0.53706617  1  0  -0.08194  0  3.717797  0  0  -0.105845  0  3.963682  0  0  -0.105838  0  3.9828  0  0  -0.082153  -0.106186  0  3.950941  0
C  C38  1  0.30263783  0.43037556  0.96293271  1  0  -0.081865  0  3.717664  0  0  -0.105739  0  3.963557  0  0  -0.10574  0  3.982678  0  0  -0.082128  -0.106074  0  3.95081  0
C  C39  1  0.19736627  0.06962724  0.46293464  1  0  -0.081911  0  3.71768  0  0  -0.105819  0  3.963566  0  0  -0.105806  0  3.982688  0  0  -0.082099  -0.106158  0  3.950824  0
C  C40  1  0.71980976  0.72008370  0.04555892  1  0  -0.050957  0  3.729342  0  0  -0.06429  0  3.983928  0  0  -0.067457  0  4.005552  0  0  -0.088984  -0.062259  0  3.969827  0
C  C41  1  0.78019142  0.77991670  0.54555841  1  0  -0.050922  0  3.72935  0  0  -0.064251  0  3.98393  0  0  -0.067415  0  4.005556  0  0  -0.08897  -0.06222  0  3.96983  0
C  C42  1  0.28018749  0.27991847  0.95444003  1  0  -0.050894  0  3.729271  0  0  -0.064267  0  3.9839  0  0  -0.067429  0  4.005526  0  0  -0.088949  -0.062235  0  3.969798  0
C  C43  1  0.21980909  0.22008435  0.45444302  1  0  -0.050832  0  3.729219  0  0  -0.06415  0  3.983778  0  0  -0.067317  0  4.005407  0  0  -0.088936  -0.062119  0  3.96968  0
C  C44  1  0.81686162  0.82444609  0.98686637  1  0  -0.071792  0  3.694994  0  0  -0.099679  0  3.949702  0  0  -0.099296  0  3.968937  0  0  -0.083298  -0.100345  0  3.938431  0
C  C45  1  0.68313656  0.67555272  0.48686497  1  0  -0.071771  0  3.694963  0  0  -0.099662  0  3.949655  0  0  -0.099288  0  3.968883  0  0  -0.08329  -0.100331  0  3.938387  0
C  C46  1  0.18313593  0.17555385  0.01313257  1  0  -0.071789  0  3.694944  0  0  -0.099656  0  3.949667  0  0  -0.099278  0  3.968896  0  0  -0.083302  -0.100331  0  3.938404  0
C  C47  1  0.31686223  0.32444722  0.51313771  1  0  -0.071821  0  3.694837  0  0  -0.099698  0  3.949578  0  0  -0.099331  0  3.9688  0  0  -0.08334  -0.100367  0  3.938308  0
C  C48  1  0.89345783  0.77777814  0.91883339  1  0  -0.005885  0  3.805766  0  0  0.017665  0  4.037299  0  0  0.013963  0  4.06038  0  0  -0.008134  0.019994  0  4.021332  0
C  C49  1  0.60654426  0.72222297  0.41883107  1  0  -0.005903  0  3.805801  0  0  0.017677  0  4.037292  0  0  0.014004  0  4.060334  0  0  -0.008126  0.020004  0  4.021322  0
C  C50  1  0.10654095  0.22222180  0.08116555  1  0  -0.005878  0  3.805747  0  0  0.01762  0  4.037348  0  0  0.013938  0  4.060403  0  0  -0.008133  0.01995  0  4.02138  0
C  C51  1  0.39345653  0.27777585  0.58117160  1  0  -0.005956  0  3.805774  0  0  0.017556  0  4.037298  0  0  0.013906  0  4.060309  0  0  -0.008118  0.019889  0  4.02133  0
C  C52  1  0.86702203  0.62660773  0.90898679  1  0  -0.118205  0  3.700103  0  0  -0.152984  0  3.947353  0  0  -0.153844  0  3.966706  0  0  -0.082934  -0.151428  0  3.933861  0
C  C53  1  0.63298243  0.87339339  0.40898431  1  0  -0.118117  0  3.70019  0  0  -0.152942  0  3.94747  0  0  -0.153808  0  3.966813  0  0  -0.082935  -0.151388  0  3.933979  0
C  C54  1  0.13297551  0.37339221  0.09101153  1  0  -0.118222  0  3.700139  0  0  -0.152991  0  3.947472  0  0  -0.153851  0  3.966812  0  0  -0.08296  -0.151435  0  3.933981  0
C  C55  1  0.36701913  0.12660432  0.59101651  1  0  -0.118121  0  3.700034  0  0  -0.152955  0  3.947379  0  0  -0.153829  0  3.966715  0  0  -0.082965  -0.151401  0  3.933888  0
C  C56  1  0.74380719  0.36447944  0.95454464  1  0  0.277429  0  3.780837  0  0  0.255621  0  4.045023  0  0  0.265081  0  4.063649  0  0  0.2219  0.249379  0  4.032634  0
C  C57  1  0.75619245  0.13551995  0.45454352  1  0  0.277542  0  3.780965  0  0  0.25574  0  4.045118  0  0  0.265201  0  4.063742  0  0  0.22193  0.249495  0  4.032729  0
C  C58  1  0.25619054  0.63552386  0.04545430  1  0  0.277435  0  3.780896  0  0  0.255696  0  4.044986  0  0  0.26515  0  4.063618  0  0  0.221934  0.249453  0  4.032597  0
C  C59  1  0.24380863  0.86447663  0.54545542  1  0  0.277519  0  3.780887  0  0  0.255755  0  4.045003  0  0  0.265216  0  4.063629  0  0  0.221934  0.24951  0  4.032614  0
C  C60  1  0.00345293  0.88601151  0.85821488  1  0  0.311414  0  3.766628  0  0  0.282925  0  4.021342  0  0  0.295773  0  4.039013  0  0  0.233813  0.274523  0  4.009169  0
C  C61  1  0.49654973  0.61398864  0.35821325  1  0  0.311455  0  3.766734  0  0  0.282961  0  4.021446  0  0  0.295802  0  4.039111  0  0  0.233847  0.27457  0  4.009257  0
C  C62  1  0.99654710  0.11398843  0.14178406  1  0  0.311442  0  3.76655  0  0  0.28297  0  4.02124  0  0  0.295813  0  4.038908  0  0  0.233839  0.274572  0  4.009062  0
C  C63  1  0.50344983  0.38601018  0.64178881  1  0  0.311539  0  3.766686  0  0  0.283182  0  4.02125  0  0  0.296014  0  4.038911  0  0  0.233933  0.274778  0  4.009081  0
N  N64  1  0.75056136  0.30569043  0.87922262  1  0  -0.274148  0  2.888137  0  0  -0.261415  0  3.158466  0  0  -0.269258  0  3.171042  0  0  -0.213835  -0.256682  0  3.150974  0
N  N65  1  0.74943916  0.19431016  0.37922200  1  0  -0.274176  0  2.888194  0  0  -0.261456  0  3.158526  0  0  -0.2693  0  3.171102  0  0  -0.213848  -0.256722  0  3.151036  0
N  N66  1  0.24943666  0.69431063  0.12077633  1  0  -0.274259  0  2.888073  0  0  -0.261567  0  3.15841  0  0  -0.269408  0  3.170986  0  0  -0.213975  -0.256834  0  3.150923  0
N  N67  1  0.25056192  0.80568643  0.62077756  1  0  -0.274186  0  2.888074  0  0  -0.26147  0  3.158403  0  0  -0.269315  0  3.170979  0  0  -0.213861  -0.256736  0  3.150914  0
N  N68  1  0.71703522  0.16067353  0.89466936  1  0  -0.134708  0  3.308537  0  0  -0.068995  0  3.629801  0  0  -0.077989  0  3.639256  0  0  -0.117312  -0.062931  0  3.623439  0
N  N69  1  0.78296423  0.33932704  0.39466923  1  0  -0.134753  0  3.308677  0  0  -0.069022  0  3.629928  0  0  -0.078015  0  3.639384  0  0  -0.11731  -0.062959  0  3.623569  0
N  N70  1  0.28296451  0.83932864  0.10533021  1  0  -0.134673  0  3.308438  0  0  -0.068959  0  3.6297  0  0  -0.077957  0  3.639161  0  0  -0.117231  -0.062898  0  3.623343  0
N  N71  1  0.21703686  0.66066955  0.60533033  1  0  -0.134794  0  3.308503  0  0  -0.069104  0  3.629798  0  0  -0.078099  0  3.639256  0  0  -0.117327  -0.063041  0  3.62344  0
N  N72  1  0.69277404  0.12904892  0.97461864  1  0  -0.060071  0  2.96262  0  0  -0.062744  0  3.248172  0  0  -0.059624  0  3.261198  0  0  -0.087103  -0.064783  0  3.240874  0
N  N73  1  0.80722412  0.37094933  0.47461854  1  0  -0.060059  0  2.96262  0  0  -0.062742  0  3.248174  0  0  -0.059622  0  3.2612  0  0  -0.087123  -0.064782  0  3.240878  0
N  N74  1  0.30722570  0.87095325  0.02538092  1  0  -0.06007  0  2.962638  0  0  -0.062743  0  3.248187  0  0  -0.059621  0  3.261214  0  0  -0.087139  -0.064784  0  3.240892  0
N  N75  1  0.19277525  0.62904614  0.52538103  1  0  -0.059969  0  2.962722  0  0  -0.062628  0  3.248249  0  0  -0.059507  0  3.261275  0  0  -0.087063  -0.064667  0  3.240951  0
N  N76  1  0.70897744  0.25632604  0.01368381  1  0  -0.345108  0  3.226251  0  0  -0.277023  0  3.53284  0  0  -0.294649  0  3.544479  0  0  -0.229803  -0.264746  0  3.524758  0
N  N77  1  0.79102131  0.24367160  0.51368401  1  0  -0.345146  0  3.226207  0  0  -0.277081  0  3.532812  0  0  -0.294708  0  3.544453  0  0  -0.229809  -0.264801  0  3.52473  0
N  N78  1  0.29102106  0.74367613  0.98631514  1  0  -0.345014  0  3.226233  0  0  -0.276939  0  3.532771  0  0  -0.294563  0  3.544408  0  0  -0.229734  -0.264661  0  3.524687  0
N  N79  1  0.20897682  0.75632387  0.48631555  1  0  -0.345121  0  3.226386  0  0  -0.277045  0  3.532944  0  0  -0.294669  0  3.544579  0  0  -0.229805  -0.264765  0  3.52486  0
N  N80  1  0.95979731  0.99179600  0.81917820  1  0  -0.352555  0  3.211449  0  0  -0.286278  0  3.512034  0  0  -0.304384  0  3.522457  0  0  -0.240591  -0.273571  0  3.504009  0
N  N81  1  0.54020491  0.50820522  0.31917603  1  0  -0.352596  0  3.211458  0  0  -0.286338  0  3.512054  0  0  -0.304447  0  3.522481  0  0  -0.24061  -0.273636  0  3.504028  0
N  N82  1  0.04020320  0.00820506  0.18082137  1  0  -0.352617  0  3.211483  0  0  -0.286308  0  3.51203  0  0  -0.304418  0  3.522458  0  0  -0.240589  -0.273603  0  3.504007  0
N  N83  1  0.45979464  0.49179360  0.68082541  1  0  -0.352583  0  3.211444  0  0  -0.286365  0  3.512011  0  0  -0.304473  0  3.52244  0  0  -0.240638  -0.27366  0  3.503988  0
N  N84  1  0.10077830  0.07018133  0.77135109  1  0  -0.075152  0  3.004085  0  0  -0.051103  0  3.286933  0  0  -0.052186  0  3.29803  0  0  -0.075165  -0.049785  0  3.279064  0
N  N85  1  0.39922149  0.42981946  0.27134992  1  0  -0.075176  0  3.004065  0  0  -0.05113  0  3.286927  0  0  -0.052213  0  3.298024  0  0  -0.075185  -0.049815  0  3.279061  0
N  N86  1  0.89922391  0.92982084  0.22864847  1  0  -0.07516  0  3.004018  0  0  -0.05113  0  3.286863  0  0  -0.052214  0  3.297961  0  0  -0.075236  -0.049814  0  3.278997  0
N  N87  1  0.60077901  0.57018159  0.72864965  1  0  -0.075195  0  3.003978  0  0  -0.051145  0  3.286852  0  0  -0.052228  0  3.297948  0  0  -0.075169  -0.049828  0  3.278984  0
N  N88  1  0.22604122  0.01508184  0.78052230  1  0  -0.04358  0  2.937121  0  0  -0.045997  0  3.23454  0  0  -0.043567  0  3.244669  0  0  -0.076487  -0.047119  0  3.227244  0
N  N89  1  0.27395868  0.48491893  0.28052129  1  0  -0.043551  0  2.937052  0  0  -0.045955  0  3.234444  0  0  -0.043526  0  3.244573  0  0  -0.076474  -0.047078  0  3.22715  0
N  N90  1  0.77395929  0.98491921  0.21947789  1  0  -0.043519  0  2.937024  0  0  -0.045936  0  3.23444  0  0  -0.043505  0  3.244568  0  0  -0.076433  -0.047059  0  3.227146  0
N  N91  1  0.72604306  0.51508212  0.71947827  1  0  -0.043557  0  2.936949  0  0  -0.045973  0  3.234376  0  0  -0.043542  0  3.244504  0  0  -0.076497  -0.047095  0  3.227079  0
N  N92  1  0.16865785  0.89878808  0.83421027  1  0  -0.353003  0  3.186641  0  0  -0.284187  0  3.497535  0  0  -0.302797  0  3.506595  0  0  -0.229847  -0.27141  0  3.491082  0
N  N93  1  0.33134454  0.60121209  0.33421005  1  0  -0.353026  0  3.186717  0  0  -0.284219  0  3.497625  0  0  -0.302826  0  3.506681  0  0  -0.229876  -0.271445  0  3.491169  0
N  N94  1  0.83134218  0.10121186  0.16578867  1  0  -0.353011  0  3.186566  0  0  -0.284204  0  3.497454  0  0  -0.302814  0  3.506513  0  0  -0.229846  -0.271429  0  3.491002  0
N  N95  1  0.66865626  0.39878673  0.66579077  1  0  -0.353018  0  3.186645  0  0  -0.284253  0  3.497511  0  0  -0.302862  0  3.506573  0  0  -0.229881  -0.271477  0  3.49106  0
O  O96  1  0.68354572  0.06622837  0.69611519  1  0  -0.961955  0  1.913485  0  0  -0.862956  0  2.22129  0  0  -0.889948  0  2.181763  0  0  -0.596227  -0.843688  0  2.248333  0
O  O97  1  0.81645476  0.43377130  0.19611501  1  0  -0.961924  0  1.913451  0  0  -0.862942  0  2.221344  0  0  -0.889935  0  2.18181  0  0  -0.596222  -0.843675  0  2.24839  0
O  O98  1  0.31645307  0.93377157  0.30388562  1  0  -0.961969  0  1.913533  0  0  -0.862963  0  2.221319  0  0  -0.889963  0  2.181798  0  0  -0.596192  -0.843697  0  2.248362  0
O  O99  1  0.18354155  0.56622864  0.80388580  1  0  -0.961929  0  1.913526  0  0  -0.862951  0  2.221332  0  0  -0.88994  0  2.18179  0  0  -0.596215  -0.843698  0  2.248402  0
O  O100  1  0.54141753  0.81169511  0.82359133  1  0  -0.960227  0  1.919687  0  0  -0.85202  0  2.234  0  0  -0.881337  0  2.19406  0  0  -0.601904  -0.831225  0  2.262095  0
O  O101  1  0.95858379  0.68830387  0.32359072  1  0  -0.960227  0  1.919675  0  0  -0.852008  0  2.234027  0  0  -0.881321  0  2.194087  0  0  -0.60193  -0.831213  0  2.262124  0
O  O102  1  0.45858450  0.18830371  0.17640948  1  0  -0.960222  0  1.919683  0  0  -0.851996  0  2.234022  0  0  -0.881315  0  2.194084  0  0  -0.601926  -0.831206  0  2.262122  0
O  O103  1  0.04141499  0.31169607  0.67640947  1  0  -0.960209  0  1.919662  0  0  -0.851983  0  2.234003  0  0  -0.881298  0  2.194062  0  0  -0.601925  -0.83119  0  2.262101  0
