# generated using pymatgen
data_Cd3H18C22N12(Cl2O)2
_symmetry_space_group_name_H-M   'P 1'
_cell_length_a   7.36742478
_cell_length_b   7.93226598
_cell_length_c   12.57606615
_cell_angle_alpha   90.83278650
_cell_angle_beta   90.13411506
_cell_angle_gamma   110.69658210
_symmetry_Int_Tables_number   1
_chemical_formula_structural   Cd3H18C22N12(Cl2O)2
_chemical_formula_sum   'Cd3 H18 C22 N12 Cl4 O2'
_cell_volume   687.42549342
_cell_formula_units_Z   1
loop_
 _symmetry_equiv_pos_site_id
 _symmetry_equiv_pos_as_xyz
  1  'x, y, z'
loop_
 _atom_site_type_symbol
 _atom_site_label
 _atom_site_symmetry_multiplicity
 _atom_site_fract_x
 _atom_site_fract_y
 _atom_site_fract_z
 _atom_site_occupancy
 _atom_site_hle17_bader_spin_density
 _atom_site_hle17_ddec_charge
 _atom_site_hle17_ddec_spin_density
 _atom_site_hle17_ddec_sum_bond_order
 _atom_site_hle17_magmom
 _atom_site_hse06_10hf_bader_spin_density
 _atom_site_hse06_10hf_ddec_charge
 _atom_site_hse06_10hf_ddec_spin_density
 _atom_site_hse06_10hf_ddec_sum_bond_order
 _atom_site_hse06_10hf_magmom
 _atom_site_hse06_bader_spin_density
 _atom_site_hse06_ddec_charge
 _atom_site_hse06_ddec_spin_density
 _atom_site_hse06_ddec_sum_bond_order
 _atom_site_hse06_magmom
 _atom_site_pbe_bader_spin_density
 _atom_site_pbe_cm5_charge
 _atom_site_pbe_ddec_charge
 _atom_site_pbe_ddec_spin_density
 _atom_site_pbe_ddec_sum_bond_order
 _atom_site_pbe_magmom
Cd  Cd0  1  0.36390858  0.20908577  0.24359603  1  0  1.010551  0  1.846423  0  0  0.826987  0  2.299875  0  0  0.876673  0  2.256278  0  0  0.690957  0.792037  0  2.329494  0
Cd  Cd1  1  0.63609065  0.79091532  0.75640471  1  0  1.010574  0  1.846398  0  0  0.827034  0  2.299845  0  0  0.876718  0  2.256248  0  0  0.690976  0.792084  0  2.329464  0
Cd  Cd2  1  0.50000071  0.49999986  0.50000037  1  0  0.924292  0  1.993724  0  0  0.757231  0  2.454482  0  0  0.802829  0  2.416413  0  0  0.580892  0.725226  0  2.480046  0
H  H3  1  0.26319630  0.92042735  0.44830131  1  0  0.098481  0  0.962097  0  0  0.101938  0  1.033317  0  0  0.10487  0  1.031353  0  0  0.105853  0.099739  0  1.034963  0
H  H4  1  0.73680346  0.07957508  0.55169865  1  0  0.098491  0  0.962097  0  0  0.101945  0  1.033315  0  0  0.104877  0  1.03135  0  0  0.105855  0.099746  0  1.034961  0
H  H5  1  0.96858922  0.67814064  0.52628255  1  0  0.097388  0  0.954968  0  0  0.100766  0  1.025966  0  0  0.103926  0  1.023672  0  0  0.108016  0.098401  0  1.027798  0
H  H6  1  0.03141137  0.32186042  0.47371661  1  0  0.097374  0  0.954973  0  0  0.100745  0  1.02597  0  0  0.103904  0  1.023677  0  0  0.108005  0.09838  0  1.027802  0
H  H7  1  0.61077901  0.79441489  0.30543342  1  0  0.109193  0  0.939319  0  0  0.11494  0  1.004737  0  0  0.118516  0  1.001871  0  0  0.116462  0.112268  0  1.007034  0
H  H8  1  0.38922052  0.20558348  0.69456652  1  0  0.109175  0  0.939294  0  0  0.114908  0  1.004742  0  0  0.118482  0  1.001877  0  0  0.116451  0.112235  0  1.007038  0
H  H9  1  0.96226192  0.27255415  0.84546547  1  0  0.123805  0  0.953307  0  0  0.134628  0  1.011577  0  0  0.137715  0  1.010687  0  0  0.110845  0.132367  0  1.012448  0
H  H10  1  0.03774031  0.72744422  0.15453686  1  0  0.1238  0  0.953319  0  0  0.134624  0  1.011595  0  0  0.137712  0  1.010704  0  0  0.110855  0.132363  0  1.012467  0
H  H11  1  0.20163479  0.51234778  0.73772771  1  0  0.075806  0  0.96745  0  0  0.081481  0  1.037299  0  0  0.083514  0  1.035745  0  0  0.10277  0.079938  0  1.038525  0
H  H12  1  0.79836204  0.48765063  0.26227301  1  0  0.075836  0  0.967384  0  0  0.081487  0  1.037255  0  0  0.083521  0  1.035701  0  0  0.102777  0.079945  0  1.03848  0
H  H13  1  0.52594000  0.74673637  0.00494545  1  0  0.077901  0  0.951584  0  0  0.085185  0  1.018256  0  0  0.087927  0  1.015309  0  0  0.115358  0.083181  0  1.020384  0
H  H14  1  0.47405819  0.25326202  0.99505448  1  0  0.077901  0  0.951562  0  0  0.085175  0  1.018252  0  0  0.087917  0  1.015305  0  0  0.115363  0.083173  0  1.020374  0
H  H15  1  0.30187586  0.52076295  0.12386067  1  0  0.115066  0  0.969969  0  0  0.123707  0  1.034421  0  0  0.127043  0  1.03292  0  0  0.099512  0.121236  0  1.035718  0
H  H16  1  0.69812556  0.47923677  0.87614008  1  0  0.115074  0  0.969984  0  0  0.12372  0  1.034413  0  0  0.127045  0  1.032931  0  0  0.099508  0.12126  0  1.035699  0
H  H17  1  0.30909971  0.92724129  0.07969831  1  0  0.375493  0  0.949101  0  0  0.331495  0  1.038494  0  0  0.343276  0  1.021837  0  0  0.271709  0.323226  0  1.050155  0
H  H18  1  0.69090141  0.07276113  0.92030165  1  0  0.375517  0  0.949088  0  0  0.331522  0  1.038454  0  0  0.343304  0  1.021796  0  0  0.271727  0.323252  0  1.050115  0
H  H19  1  0.50869974  0.95461668  0.14257789  1  0  0.383527  0  0.936891  0  0  0.343294  0  1.018344  0  0  0.354408  0  1.002488  0  0  0.27495  0.335487  0  1.029432  0
H  H20  1  0.49130273  0.04538572  0.85742207  1  0  0.383503  0  0.93691  0  0  0.343272  0  1.018373  0  0  0.354386  0  1.002518  0  0  0.274947  0.335466  0  1.029463  0
C  C21  1  0.11749747  0.89087387  0.41583580  1  0  0.10178  0  3.664699  0  0  0.071572  0  3.919466  0  0  0.074387  0  3.937268  0  0  0.056482  0.069507  0  3.907621  0
C  C22  1  0.88250177  0.10912721  0.58416335  1  0  0.10181  0  3.664737  0  0  0.071607  0  3.919468  0  0  0.074422  0  3.937271  0  0  0.056517  0.069541  0  3.907623  0
C  C23  1  0.95625064  0.75893299  0.45909095  1  0  0.07685  0  3.650568  0  0  0.045003  0  3.908987  0  0  0.048213  0  3.925916  0  0  0.04746  0.042812  0  3.897665  0
C  C24  1  0.04375130  0.24106806  0.54090821  1  0  0.076869  0  3.650609  0  0  0.045048  0  3.909  0  0  0.048257  0  3.925931  0  0  0.047486  0.042856  0  3.89768  0
C  C25  1  0.75768496  0.82325659  0.33595445  1  0  0.065328  0  3.625516  0  0  0.028395  0  3.879815  0  0  0.031289  0  3.895462  0  0  0.061781  0.026388  0  3.869469  0
C  C26  1  0.24231510  0.17674313  0.66404470  1  0  0.065348  0  3.625526  0  0  0.028434  0  3.879803  0  0  0.031327  0  3.895451  0  0  0.061784  0.026426  0  3.869457  0
C  C27  1  0.92095990  0.95052762  0.28905948  1  0  0.13319  0  3.750151  0  0  0.133076  0  3.994069  0  0  0.137684  0  4.012047  0  0  0.135004  0.129625  0  3.982061  0
C  C28  1  0.07903933  0.04947346  0.71094047  1  0  0.133233  0  3.750106  0  0  0.133126  0  3.99403  0  0  0.137734  0  4.012009  0  0  0.135046  0.129673  0  3.982019  0
C  C29  1  0.91370566  0.04408136  0.19105032  1  0  0.255358  0  3.816296  0  0  0.227145  0  4.088477  0  0  0.235754  0  4.108115  0  0  0.20269  0.221679  0  4.074876  0
C  C30  1  0.08629117  0.95591704  0.80894961  1  0  0.255337  0  3.816287  0  0  0.227099  0  4.088508  0  0  0.235706  0  4.108148  0  0  0.20269  0.221638  0  4.074896  0
C  C31  1  0.00737432  0.21902576  0.05981837  1  0  0.296081  0  3.76459  0  0  0.267945  0  4.036086  0  0  0.278005  0  4.053331  0  0  0.210172  0.261383  0  4.024083  0
C  C32  1  0.99262303  0.78097399  0.94018156  1  0  0.29606  0  3.764594  0  0  0.26795  0  4.036079  0  0  0.278009  0  4.053323  0  0  0.210161  0.261388  0  4.024077  0
C  C33  1  0.12443481  0.36586174  0.99295371  1  0  0.061148  0  3.765005  0  0  0.072433  0  4.004677  0  0  0.077036  0  4.02395  0  0  0.01541  0.069437  0  3.991444  0
C  C34  1  0.87556472  0.63413664  0.00704702  1  0  0.061182  0  3.764952  0  0  0.072408  0  4.004694  0  0  0.077012  0  4.023964  0  0  0.015413  0.069412  0  3.991463  0
C  C35  1  0.08909132  0.37127285  0.88345921  1  0  -0.143782  0  3.681219  0  0  -0.166043  0  3.934235  0  0  -0.173131  0  3.954817  0  0  -0.08304  -0.161488  0  3.920444  0
C  C36  1  0.91090926  0.62872824  0.11654313  1  0  -0.143815  0  3.681252  0  0  -0.166076  0  3.934296  0  0  -0.173164  0  3.954878  0  0  -0.083086  -0.161522  0  3.920505  0
C  C37  1  0.22045068  0.50418472  0.82327405  1  0  0.129969  0  3.704224  0  0  0.099554  0  3.958723  0  0  0.106663  0  3.977741  0  0  0.038133  0.095016  0  3.945712  0
C  C38  1  0.77954990  0.49581637  0.17672749  1  0  0.129983  0  3.704238  0  0  0.099577  0  3.958728  0  0  0.106686  0  3.977746  0  0  0.038119  0.095039  0  3.945717  0
C  C39  1  0.40166024  0.63739027  0.97199540  1  0  0.135425  0  3.73027  0  0  0.105647  0  3.982799  0  0  0.114168  0  3.999832  0  0  0.044546  0.100147  0  3.971131  0
C  C40  1  0.59833929  0.36260812  0.02800613  1  0  0.135478  0  3.730216  0  0  0.105681  0  3.982723  0  0  0.114204  0  3.999752  0  0  0.044542  0.10018  0  3.971059  0
C  C41  1  0.27775847  0.50955681  0.03810553  1  0  -0.146544  0  3.690195  0  0  -0.165328  0  3.936391  0  0  -0.172992  0  3.956399  0  0  -0.083811  -0.16036  0  3.922976  0
C  C42  1  0.72224377  0.49044154  0.96189442  1  0  -0.146583  0  3.690177  0  0  -0.165332  0  3.936343  0  0  -0.17299  0  3.956366  0  0  -0.083788  -0.160371  0  3.922922  0
N  N43  1  0.09876791  0.98558439  0.33227513  1  0  -0.295562  0  3.205878  0  0  -0.228588  0  3.45687  0  0  -0.242877  0  3.474414  0  0  -0.302277  -0.218541  0  3.444846  0
N  N44  1  0.90123133  0.01441669  0.66772403  1  0  -0.295621  0  3.20596  0  0  -0.228674  0  3.456985  0  0  -0.242961  0  3.474525  0  0  -0.30232  -0.218626  0  3.444961  0
N  N45  1  0.77748402  0.72903262  0.41981626  1  0  -0.272132  0  3.265705  0  0  -0.200301  0  3.52664  0  0  -0.215462  0  3.547535  0  0  -0.305473  -0.189776  0  3.51224  0
N  N46  1  0.22251552  0.27096574  0.58018288  1  0  -0.272145  0  3.265783  0  0  -0.200335  0  3.526717  0  0  -0.215494  0  3.547611  0  0  -0.305501  -0.189808  0  3.512317  0
N  N47  1  0.07083550  0.17779829  0.15378929  1  0  -0.47427  0  3.132423  0  0  -0.408591  0  3.401817  0  0  -0.430902  0  3.418999  0  0  -0.347294  -0.393352  0  3.389713  0
N  N48  1  0.92916185  0.82220147  0.84621144  1  0  -0.474266  0  3.132448  0  0  -0.408573  0  3.401826  0  0  -0.430884  0  3.419007  0  0  -0.347332  -0.393336  0  3.38972  0
N  N49  1  0.76108618  0.00170988  0.12322099  1  0  -0.285231  0  3.013416  0  0  -0.246392  0  3.281386  0  0  -0.258334  0  3.298288  0  0  -0.214976  -0.238183  0  3.269823  0
N  N50  1  0.23891170  0.99829122  0.87677974  1  0  -0.285232  0  3.013414  0  0  -0.246376  0  3.28139  0  0  -0.258318  0  3.298292  0  0  -0.214956  -0.238168  0  3.26983  0
N  N51  1  0.82195310  0.11171018  0.03905782  1  0  -0.273679  0  3.028157  0  0  -0.22919  0  3.292492  0  0  -0.241206  0  3.309539  0  0  -0.209491  -0.220958  0  3.280926  0
N  N52  1  0.17804426  0.88828958  0.96094291  1  0  -0.273643  0  3.028136  0  0  -0.229173  0  3.292496  0  0  -0.241188  0  3.309544  0  0  -0.209477  -0.220938  0  3.280922  0
N  N53  1  0.38010368  0.63011879  0.86569575  1  0  -0.346863  0  3.287093  0  0  -0.26785  0  3.550164  0  0  -0.28867  0  3.570335  0  0  -0.34101  -0.253682  0  3.536108  0
N  N54  1  0.61989637  0.36988094  0.13430499  1  0  -0.346943  0  3.287122  0  0  -0.267875  0  3.550142  0  0  -0.288696  0  3.570313  0  0  -0.340999  -0.253707  0  3.536087  0
Cl  Cl55  1  0.59439035  0.23488551  0.40412000  1  0  -0.564468  0  0.939182  0  0  -0.502053  0  1.214258  0  0  -0.520128  0  1.193551  0  0  -0.304851  -0.488978  0  1.228339  0
Cl  Cl56  1  0.40561159  0.76511555  0.59587996  1  0  -0.56448  0  0.939177  0  0  -0.502067  0  1.214246  0  0  -0.520143  0  1.193539  0  0  -0.304857  -0.488993  0  1.228326  0
Cl  Cl57  1  0.29688713  0.50072802  0.33213725  1  0  -0.564148  0  0.945262  0  0  -0.503866  0  1.212998  0  0  -0.521565  0  1.192671  0  0  -0.305405  -0.490993  0  1.226778  0
Cl  Cl58  1  0.70311346  0.49927305  0.66786270  1  0  -0.564157  0  0.945267  0  0  -0.503874  0  1.213006  0  0  -0.521571  0  1.192678  0  0  -0.305407  -0.491002  0  1.226788  0
O  O59  1  0.37173019  0.94818089  0.15243075  1  0  -0.817804  0  1.937412  0  0  -0.755606  0  2.157696  0  0  -0.777217  0  2.123462  0  0  -0.600925  -0.740179  0  2.18134  0
O  O60  1  0.62826905  0.05182019  0.84756919  1  0  -0.817803  0  1.937444  0  0  -0.75562  0  2.157735  0  0  -0.777226  0  2.123491  0  0  -0.600944  -0.740197  0  2.18137  0
