# generated using pymatgen
data_Nd2H10C10O13
_symmetry_space_group_name_H-M   'P 1'
_cell_length_a   8.24431118
_cell_length_b   9.40516991
_cell_length_c   11.55700672
_cell_angle_alpha   79.94285018
_cell_angle_beta   69.77590133
_cell_angle_gamma   75.63309921
_symmetry_Int_Tables_number   1
_chemical_formula_structural   Nd2H10C10O13
_chemical_formula_sum   'Nd4 H20 C20 O26'
_cell_volume   810.67480693
_cell_formula_units_Z   2
loop_
 _symmetry_equiv_pos_site_id
 _symmetry_equiv_pos_as_xyz
  1  'x, y, z'
loop_
 _atom_site_type_symbol
 _atom_site_label
 _atom_site_symmetry_multiplicity
 _atom_site_fract_x
 _atom_site_fract_y
 _atom_site_fract_z
 _atom_site_occupancy
 _atom_site_hle17_bader_spin_density
 _atom_site_hle17_ddec_charge
 _atom_site_hle17_ddec_spin_density
 _atom_site_hle17_ddec_sum_bond_order
 _atom_site_hle17_magmom
 _atom_site_hse06_10hf_bader_spin_density
 _atom_site_hse06_10hf_ddec_charge
 _atom_site_hse06_10hf_ddec_spin_density
 _atom_site_hse06_10hf_ddec_sum_bond_order
 _atom_site_hse06_10hf_magmom
 _atom_site_hse06_bader_spin_density
 _atom_site_hse06_ddec_charge
 _atom_site_hse06_ddec_spin_density
 _atom_site_hse06_ddec_sum_bond_order
 _atom_site_hse06_magmom
 _atom_site_pbe_bader_spin_density
 _atom_site_pbe_cm5_charge
 _atom_site_pbe_ddec_charge
 _atom_site_pbe_ddec_spin_density
 _atom_site_pbe_ddec_sum_bond_order
 _atom_site_pbe_magmom
Nd  Nd0  1  0.74890161  0.47283957  0.51382155  1  0  2.369628  0  1.569673  0  0  2.268634  0  1.90782  0  0  2.309966  0  1.868765  0  0  1.482852  2.182909  0  2.039351  0
Nd  Nd1  1  0.25109662  0.52716113  0.48617795  1  0  2.369686  0  1.569616  0  0  2.268705  0  1.907754  0  0  2.310035  0  1.8687  0  0  1.482902  2.182974  0  2.039293  0
Nd  Nd2  1  0.54959254  0.85174644  0.37251785  1  0  2.330226  0  1.692818  0  0  2.17373  0  2.150728  0  0  2.266507  0  2.011228  0  0  1.525519  2.14005  0  2.183794  0
Nd  Nd3  1  0.45040878  0.14825205  0.62748295  1  0  2.330242  0  1.692789  0  0  2.173767  0  2.150677  0  0  2.266532  0  2.011197  0  0  1.525535  2.14007  0  2.183781  0
H  H4  1  0.48607363  0.65726348  0.87190765  1  0  0.070365  0  0.917602  0  0  0.078048  0  0.977538  0  0  0.080508  0  0.975034  0  0  0.110596  0.075723  0  0.980153  0
H  H5  1  0.51392354  0.34273614  0.12809399  1  0  0.070437  0  0.917666  0  0  0.078114  0  0.977648  0  0  0.080576  0  0.975144  0  0  0.110629  0.075788  0  0.980261  0
H  H6  1  0.77898703  0.54545351  0.89061042  1  0  0.136104  0  0.891968  0  0  0.153416  0  0.940481  0  0  0.156316  0  0.939215  0  0  0.117813  0.151196  0  0.942  0
H  H7  1  0.22101640  0.45454714  0.10938609  1  0  0.136068  0  0.892005  0  0  0.153377  0  0.940513  0  0  0.156276  0  0.939249  0  0  0.117806  0.151159  0  0.942031  0
H  H8  1  0.75974899  0.73579278  0.84588331  1  0  0.12014  0  0.925116  0  0  0.134949  0  0.985271  0  0  0.136655  0  0.98533  0  0  0.109441  0.133815  0  0.985195  0
H  H9  1  0.24024663  0.26420795  0.15411855  1  0  0.120157  0  0.925093  0  0  0.134963  0  0.985247  0  0  0.136667  0  0.985309  0  0  0.109451  0.133828  0  0.985173  0
H  H10  1  0.07303929  0.03534468  0.34201593  1  0  0.149382  0  0.890661  0  0  0.16541  0  0.941723  0  0  0.168083  0  0.941238  0  0  0.128731  0.163424  0  0.942368  0
H  H11  1  0.92696329  0.96464831  0.65798796  1  0  0.149384  0  0.890709  0  0  0.165404  0  0.941774  0  0  0.168075  0  0.94129  0  0  0.128735  0.16342  0  0.942417  0
H  H12  1  0.96123696  0.15698303  0.24765082  1  0  0.136759  0  0.921929  0  0  0.149763  0  0.979667  0  0  0.152741  0  0.978081  0  0  0.115462  0.147714  0  0.980664  0
H  H13  1  0.03877132  0.84301323  0.75235121  1  0  0.136741  0  0.921932  0  0  0.149742  0  0.979672  0  0  0.15272  0  0.978084  0  0  0.115469  0.147691  0  0.980668  0
H  H14  1  0.08738442  0.91215664  0.16574954  1  0  0.069524  0  0.905781  0  0  0.078933  0  0.961465  0  0  0.080467  0  0.960431  0  0  0.115262  0.077705  0  0.962447  0
H  H15  1  0.91261949  0.08784184  0.83425064  1  0  0.069568  0  0.905712  0  0  0.078938  0  0.961425  0  0  0.080471  0  0.960395  0  0  0.115241  0.077711  0  0.962408  0
H  H16  1  0.45291872  0.92360580  0.91199138  1  0  0.118506  0  0.99488  0  0  0.120572  0  1.067796  0  0  0.125616  0  1.064369  0  0  0.106387  0.116897  0  1.070534  0
H  H17  1  0.54708007  0.07639267  0.08800484  1  0  0.118544  0  0.994875  0  0  0.120614  0  1.067775  0  0  0.125658  0  1.064346  0  0  0.106407  0.11694  0  1.070512  0
H  H18  1  0.78493321  0.04315853  0.16877375  1  0  0.394811  0  0.822951  0  0  0.383949  0  0.869736  0  0  0.391469  0  0.862455  0  0  0.339839  0.378603  0  0.875406  0
H  H19  1  0.21506628  0.95684219  0.83122890  1  0  0.394854  0  0.822844  0  0  0.383999  0  0.869631  0  0  0.391518  0  0.86235  0  0  0.339867  0.378653  0  0.875299  0
H  H20  1  0.60873127  0.41213595  0.81447404  1  0  0.394511  0  0.904905  0  0  0.365759  0  0.979335  0  0  0.378259  0  0.965815  0  0  0.298484  0.357112  0  0.988226  0
H  H21  1  0.39126746  0.58786255  0.18552739  1  0  0.39448  0  0.90494  0  0  0.365739  0  0.979347  0  0  0.378226  0  0.965855  0  0  0.298462  0.357091  0  0.988239  0
H  H22  1  0.58125991  0.55844160  0.31315102  1  0  0.440515  0  0.849546  0  0  0.414586  0  0.905398  0  0  0.425198  0  0.889501  0  0  0.30617  0.407091  0  0.916429  0
H  H23  1  0.41874141  0.44155689  0.68684978  1  0  0.440498  0  0.849569  0  0  0.414565  0  0.905429  0  0  0.425176  0  0.889533  0  0  0.30615  0.407071  0  0.91646  0
C  C24  1  0.56516755  0.75785044  0.68642763  1  0  0.708602  0  3.778913  0  0  0.663337  0  4.077341  0  0  0.697382  0  4.068246  0  0  0.240591  0.640458  0  4.082184  0
C  C25  1  0.43483301  0.24215135  0.31357115  1  0  0.708575  0  3.778729  0  0  0.663287  0  4.077257  0  0  0.697333  0  4.068162  0  0  0.240556  0.640408  0  4.082102  0
C  C26  1  0.59703564  0.63370938  0.78599869  1  0  0.138453  0  3.642342  0  0  0.115411  0  3.892  0  0  0.118154  0  3.898915  0  0  -0.000292  0.113806  0  3.885528  0
C  C27  1  0.40296391  0.36629131  0.21399876  1  0  0.138411  0  3.642313  0  0  0.115245  0  3.892209  0  0  0.117986  0  3.899122  0  0  -0.000334  0.11364  0  3.885737  0
C  C28  1  0.76717212  0.63023525  0.81365094  1  0  -0.307311  0  3.627836  0  0  -0.352205  0  3.876961  0  0  -0.358028  0  3.883287  0  0  -0.154589  -0.348674  0  3.873139  0
C  C29  1  0.23282793  0.36976873  0.18634677  1  0  -0.307299  0  3.627778  0  0  -0.352158  0  3.876868  0  0  -0.357978  0  3.883192  0  0  -0.154641  -0.348629  0  3.873047  0
C  C30  1  0.93452971  0.59978893  0.70491451  1  0  0.736811  0  3.828048  0  0  0.692787  0  4.136672  0  0  0.72624  0  4.126388  0  0  0.210713  0.670545  0  4.136055  0
C  C31  1  0.06546748  0.40021618  0.29508460  1  0  0.736715  0  3.828104  0  0  0.692798  0  4.136553  0  0  0.726251  0  4.126271  0  0  0.210833  0.670556  0  4.135932  0
C  C32  1  0.79266612  0.08790196  0.42298484  1  0  0.768538  0  3.787255  0  0  0.725198  0  4.082463  0  0  0.758877  0  4.077043  0  0  0.230115  0.701364  0  4.088993  0
C  C33  1  0.20733213  0.91209872  0.57701292  1  0  0.76849  0  3.787326  0  0  0.725177  0  4.08249  0  0  0.758855  0  4.077072  0  0  0.230083  0.701339  0  4.089022  0
C  C34  1  0.95580868  0.05531276  0.31175371  1  0  -0.328138  0  3.6153  0  0  -0.369933  0  3.859755  0  0  -0.376022  0  3.864654  0  0  -0.149196  -0.365398  0  3.856046  0
C  C35  1  0.04419599  0.94468241  0.68824762  1  0  -0.328099  0  3.615487  0  0  -0.369882  0  3.859874  0  0  -0.375966  0  3.86477  0  0  -0.149212  -0.365345  0  3.856164  0
C  C36  1  0.96576097  0.92394868  0.24580379  1  0  0.148232  0  3.587578  0  0  0.125111  0  3.840445  0  0  0.128533  0  3.848079  0  0  0.007689  0.122184  0  3.837514  0
C  C37  1  0.03424164  0.07604980  0.75419670  1  0  0.147978  0  3.587717  0  0  0.124956  0  3.840523  0  0  0.128372  0  3.848171  0  0  0.007679  0.122028  0  3.837592  0
C  C38  1  0.97772737  0.77651331  0.32807457  1  0  0.703852  0  3.797312  0  0  0.660747  0  4.092018  0  0  0.693681  0  4.08411  0  0  0.239599  0.637505  0  4.095934  0
C  C39  1  0.02226853  0.22348630  0.67192565  1  0  0.704023  0  3.797145  0  0  0.660812  0  4.092016  0  0  0.693745  0  4.084107  0  0  0.23961  0.637574  0  4.095932  0
C  C40  1  0.45438351  0.81613180  0.09747376  1  0  0.723889  0  3.879129  0  0  0.681886  0  4.169837  0  0  0.716263  0  4.1606  0  0  0.2238  0.658825  0  4.175662  0
C  C41  1  0.54561575  0.18386999  0.90252533  1  0  0.723905  0  3.879167  0  0  0.681897  0  4.169879  0  0  0.716275  0  4.160644  0  0  0.223812  0.658841  0  4.175706  0
C  C42  1  0.47592111  0.93844338  0.99609867  1  0  -0.185077  0  3.671159  0  0  -0.204251  0  3.926225  0  0  -0.210143  0  3.940052  0  0  -0.087016  -0.200021  0  3.915738  0
C  C43  1  0.52407999  0.06155619  0.00389856  1  0  -0.185073  0  3.671194  0  0  -0.204254  0  3.926255  0  0  -0.210144  0  3.94008  0  0  -0.087043  -0.200027  0  3.915768  0
O  O44  1  0.59914820  0.49855050  0.74638672  1  0  -0.657582  0  2.218206  0  0  -0.601031  0  2.446895  0  0  -0.618295  0  2.434075  0  0  -0.435812  -0.583876  0  2.455907  0
O  O45  1  0.40084869  0.50145023  0.25361655  1  0  -0.657536  0  2.218187  0  0  -0.600958  0  2.446912  0  0  -0.618216  0  2.434112  0  0  -0.435769  -0.583805  0  2.455924  0
O  O46  1  0.92188517  0.58913352  0.59834051  1  0  -0.832207  0  2.128624  0  0  -0.784183  0  2.381934  0  0  -0.808106  0  2.370943  0  0  -0.437424  -0.755174  0  2.388451  0
O  O47  1  0.07811253  0.41086939  0.40165966  1  0  -0.83217  0  2.128719  0  0  -0.784179  0  2.381963  0  0  -0.808098  0  2.370966  0  0  -0.437415  -0.75517  0  2.388476  0
O  O48  1  0.11770689  0.73089629  0.35431808  1  0  -0.663877  0  2.063028  0  0  -0.634596  0  2.32352  0  0  -0.657583  0  2.315541  0  0  -0.345378  -0.61236  0  2.330362  0
O  O49  1  0.88229755  0.26909997  0.64568142  1  0  -0.663896  0  2.063067  0  0  -0.634576  0  2.3236  0  0  -0.657558  0  2.315619  0  0  -0.345361  -0.61234  0  2.330444  0
O  O50  1  0.08294543  0.58762099  0.71808800  1  0  -0.665736  0  1.898388  0  0  -0.630349  0  2.122115  0  0  -0.651829  0  2.111512  0  0  -0.350637  -0.610374  0  2.12918  0
O  O51  1  0.91705151  0.41239073  0.28190935  1  0  -0.665699  0  1.898449  0  0  -0.630358  0  2.122125  0  0  -0.651839  0  2.111523  0  0  -0.350733  -0.610385  0  2.129189  0
O  O52  1  0.76204145  0.19963637  0.48025522  1  0  -0.741829  0  2.050557  0  0  -0.698747  0  2.306467  0  0  -0.726349  0  2.296421  0  0  -0.36816  -0.676461  0  2.314543  0
O  O53  1  0.23795810  0.80036431  0.51974136  1  0  -0.741793  0  2.050517  0  0  -0.698736  0  2.306439  0  0  -0.726339  0  2.296392  0  0  -0.368155  -0.67645  0  2.314513  0
O  O54  1  0.56806764  0.72198852  0.58393170  1  0  -0.757652  0  2.123056  0  0  -0.707342  0  2.376907  0  0  -0.736167  0  2.365818  0  0  -0.397851  -0.68468  0  2.383223  0
O  O55  1  0.43192565  0.27801112  0.41607088  1  0  -0.757649  0  2.12301  0  0  -0.707317  0  2.376869  0  0  -0.736141  0  2.36578  0  0  -0.397835  -0.684654  0  2.383187  0
O  O56  1  0.54838597  0.59374693  0.39454094  1  0  -1.230124  0  1.834604  0  0  -1.182908  0  2.071766  0  0  -1.210624  0  2.038994  0  0  -0.809932  -1.153349  0  2.096232  0
O  O57  1  0.45161225  0.40625377  0.60545942  1  0  -1.230105  0  1.834591  0  0  -1.182894  0  2.071754  0  0  -1.210606  0  2.038983  0  0  -0.809915  -1.15333  0  2.096222  0
O  O58  1  0.84612847  0.71211064  0.36158515  1  0  -0.775401  0  2.114426  0  0  -0.723281  0  2.361731  0  0  -0.75382  0  2.351285  0  0  -0.406748  -0.699986  0  2.367697  0
O  O59  1  0.15387050  0.28789227  0.63841644  1  0  -0.775441  0  2.11417  0  0  -0.723312  0  2.361554  0  0  -0.753851  0  2.351105  0  0  -0.406761  -0.700012  0  2.367521  0
O  O60  1  0.68413354  0.99997113  0.45981960  1  0  -0.811588  0  2.154169  0  0  -0.75137  0  2.404411  0  0  -0.786882  0  2.393671  0  0  -0.427463  -0.73426  0  2.411748  0
O  O61  1  0.31586623  0.00002846  0.54018055  1  0  -0.811608  0  2.154229  0  0  -0.75138  0  2.404421  0  0  -0.786892  0  2.393685  0  0  -0.42746  -0.734274  0  2.411769  0
O  O62  1  0.53364820  0.88845953  0.71411124  1  0  -0.722975  0  2.041024  0  0  -0.679502  0  2.296571  0  0  -0.710141  0  2.284411  0  0  -0.374964  -0.662994  0  2.303892  0
O  O63  1  0.46635029  0.11154007  0.28588835  1  0  -0.722982  0  2.040903  0  0  -0.679475  0  2.296449  0  0  -0.710115  0  2.284289  0  0  -0.374977  -0.662969  0  2.30377  0
O  O64  1  0.81561323  0.94178916  0.20339227  1  0  -0.611333  0  2.117768  0  0  -0.565502  0  2.335667  0  0  -0.584021  0  2.322527  0  0  -0.424736  -0.556004  0  2.344602  0
O  O65  1  0.18439587  0.05820928  0.79660579  1  0  -0.611269  0  2.117704  0  0  -0.565467  0  2.335585  0  0  -0.583983  0  2.322448  0  0  -0.424715  -0.555967  0  2.344518  0
O  O66  1  0.49670294  0.82208985  0.19265254  1  0  -0.769041  0  2.023454  0  0  -0.715403  0  2.282585  0  0  -0.747032  0  2.264604  0  0  -0.43211  -0.698834  0  2.292104  0
O  O67  1  0.50329762  0.17791194  0.80734623  1  0  -0.769091  0  2.023548  0  0  -0.715449  0  2.282681  0  0  -0.747079  0  2.264704  0  0  -0.432122  -0.698866  0  2.29218  0
O  O68  1  0.39334659  0.71175733  0.08196846  1  0  -0.599006  0  1.911907  0  0  -0.551665  0  2.123674  0  0  -0.575904  0  2.113101  0  0  -0.306767  -0.534517  0  2.130528  0
O  O69  1  0.60665292  0.28824336  0.91803159  1  0  -0.599018  0  1.911926  0  0  -0.551666  0  2.123699  0  0  -0.575911  0  2.113121  0  0  -0.306766  -0.534518  0  2.13055  0
