# generated using pymatgen
data_ZnH3C6(NO2)2
_symmetry_space_group_name_H-M   'P 1'
_cell_length_a   5.60975076
_cell_length_b   9.84977474
_cell_length_c   9.51714901
_cell_angle_alpha   58.83567008
_cell_angle_beta   79.50033141
_cell_angle_gamma   69.36173417
_symmetry_Int_Tables_number   1
_chemical_formula_structural   ZnH3C6(NO2)2
_chemical_formula_sum   'Zn2 H6 C12 N4 O8'
_cell_volume   421.10053420
_cell_formula_units_Z   2
loop_
 _symmetry_equiv_pos_site_id
 _symmetry_equiv_pos_as_xyz
  1  'x, y, z'
loop_
 _atom_site_type_symbol
 _atom_site_label
 _atom_site_symmetry_multiplicity
 _atom_site_fract_x
 _atom_site_fract_y
 _atom_site_fract_z
 _atom_site_occupancy
 _atom_site_hle17_bader_spin_density
 _atom_site_hle17_ddec_charge
 _atom_site_hle17_ddec_spin_density
 _atom_site_hle17_ddec_sum_bond_order
 _atom_site_hle17_magmom
 _atom_site_hse06_10hf_bader_spin_density
 _atom_site_hse06_10hf_ddec_charge
 _atom_site_hse06_10hf_ddec_spin_density
 _atom_site_hse06_10hf_ddec_sum_bond_order
 _atom_site_hse06_10hf_magmom
 _atom_site_hse06_bader_spin_density
 _atom_site_hse06_ddec_charge
 _atom_site_hse06_ddec_spin_density
 _atom_site_hse06_ddec_sum_bond_order
 _atom_site_hse06_magmom
 _atom_site_pbe_bader_spin_density
 _atom_site_pbe_cm5_charge
 _atom_site_pbe_ddec_charge
 _atom_site_pbe_ddec_spin_density
 _atom_site_pbe_ddec_sum_bond_order
 _atom_site_pbe_magmom
Zn  Zn0  1  0.49975148  0.17861305  0.64289344  1  0  0.999215  0  1.890634  0  0  0.824665  0  2.346538  0  0  0.8702  0  2.296561  0  0  0.67266  0.792937  0  2.38069  0
Zn  Zn1  1  0.50025862  0.82138730  0.35710609  1  0  0.999206  0  1.890742  0  0  0.824712  0  2.346666  0  0  0.870265  0  2.296677  0  0  0.672538  0.792977  0  2.380817  0
H  H2  1  0.00973818  0.85450025  0.73302361  1  0  0.111364  0  0.947884  0  0  0.114525  0  1.013616  0  0  0.118406  0  1.008991  0  0  0.128351  0.111508  0  1.017125  0
H  H3  1  0.98970066  0.41245656  0.73323268  1  0  0.111435  0  0.94883  0  0  0.114983  0  1.013942  0  0  0.118824  0  1.009394  0  0  0.129238  0.11197  0  1.017445  0
H  H4  1  0.99026313  0.14548236  0.26696862  1  0  0.111202  0  0.948067  0  0  0.114416  0  1.013721  0  0  0.118302  0  1.009089  0  0  0.128343  0.1114  0  1.017232  0
H  H5  1  0.01027330  0.58754317  0.26676203  1  0  0.111554  0  0.948752  0  0  0.114978  0  1.014014  0  0  0.118817  0  1.009466  0  0  0.129241  0.111967  0  1.017517  0
H  H6  1  0.21438480  0.60252456  0.99984539  1  0  0.120798  0  0.925647  0  0  0.132263  0  0.976335  0  0  0.135854  0  0.97627  0  0  0.119434  0.129622  0  0.976721  0
H  H7  1  0.78560798  0.39746788  0.00015574  1  0  0.120773  0  0.925533  0  0  0.132216  0  0.976262  0  0  0.135807  0  0.976198  0  0  0.11941  0.129576  0  0.976644  0
C  C8  1  0.61985750  0.93549852  0.99997700  1  0  0.318503  0  3.728404  0  0  0.293757  0  3.97896  0  0  0.30704  0  3.99331  0  0  0.26521  0.285022  0  3.969209  0
C  C9  1  0.38015805  0.06451672  0.00000462  1  0  0.318552  0  3.728461  0  0  0.293851  0  3.97908  0  0  0.307135  0  3.993437  0  0  0.265252  0.285117  0  3.969325  0
C  C10  1  0.93073998  0.83665174  0.85291360  1  0  0.20818  0  3.607525  0  0  0.16966  0  3.866877  0  0  0.181303  0  3.879692  0  0  0.085044  0.16195  0  3.858639  0
C  C11  1  0.06899613  0.31043646  0.85310304  1  0  0.206433  0  3.610719  0  0  0.167512  0  3.870514  0  0  0.17922  0  3.883309  0  0  0.083151  0.159775  0  3.862264  0
C  C12  1  0.06926862  0.16333557  0.14707838  1  0  0.208289  0  3.607605  0  0  0.169836  0  3.866879  0  0  0.181484  0  3.879699  0  0  0.085062  0.162118  0  3.858644  0
C  C13  1  0.93100133  0.68956665  0.14688205  1  0  0.206183  0  3.611175  0  0  0.167281  0  3.871034  0  0  0.178993  0  3.88383  0  0  0.083029  0.159542  0  3.862784  0
C  C14  1  0.04295120  0.69920690  0.99985696  1  0  -0.161736  0  3.668961  0  0  -0.173855  0  3.924249  0  0  -0.185735  0  3.944593  0  0  -0.067553  -0.166447  0  3.911061  0
C  C15  1  0.95705340  0.30078618  0.00014042  1  0  -0.161862  0  3.668684  0  0  -0.17401  0  3.923997  0  0  -0.185889  0  3.944341  0  0  -0.067605  -0.166602  0  3.910807  0
C  C16  1  0.38176128  0.97623197  0.55261751  1  0  0.516774  0  3.923934  0  0  0.477275  0  4.211805  0  0  0.50631  0  4.206675  0  0  0.200237  0.457589  0  4.214375  0
C  C17  1  0.61829412  0.47105956  0.55265760  1  0  0.515988  0  3.92887  0  0  0.476428  0  4.216776  0  0  0.505471  0  4.211667  0  0  0.199006  0.456739  0  4.219323  0
C  C18  1  0.61820448  0.02377916  0.44739433  1  0  0.516612  0  3.923728  0  0  0.477111  0  4.211608  0  0  0.506149  0  4.206481  0  0  0.200062  0.457422  0  4.214177  0
C  C19  1  0.38173058  0.52891903  0.44738425  1  0  0.51562  0  3.928917  0  0  0.475886  0  4.21702  0  0  0.504927  0  4.211914  0  0  0.198799  0.456202  0  4.219562  0
N  N20  1  0.71835774  0.95486485  0.85415245  1  0  -0.344691  0  3.183683  0  0  -0.278145  0  3.447656  0  0  -0.297342  0  3.460579  0  0  -0.295325  -0.265681  0  3.439183  0
N  N21  1  0.28136385  0.19100554  0.85424163  1  0  -0.344403  0  3.183831  0  0  -0.277984  0  3.448213  0  0  -0.297247  0  3.461183  0  0  -0.295488  -0.265486  0  3.43971  0
N  N22  1  0.28165497  0.04513586  0.14582196  1  0  -0.344608  0  3.183539  0  0  -0.278239  0  3.447664  0  0  -0.29746  0  3.460616  0  0  -0.295403  -0.265767  0  3.43918  0
N  N23  1  0.71863642  0.80900185  0.14574633  1  0  -0.344448  0  3.183979  0  0  -0.277943  0  3.448277  0  0  -0.297209  0  3.461245  0  0  -0.295468  -0.26544  0  3.439772  0
O  O24  1  0.29187808  0.03283829  0.65042902  1  0  -0.563839  0  2.063728  0  0  -0.513469  0  2.312642  0  0  -0.538799  0  2.304232  0  0  -0.306411  -0.495383  0  2.317605  0
O  O25  1  0.70805341  0.31662128  0.65052733  1  0  -0.563286  0  2.065073  0  0  -0.512979  0  2.313833  0  0  -0.538306  0  2.305441  0  0  -0.306168  -0.494906  0  2.318802  0
O  O26  1  0.70808539  0.96718685  0.34954529  1  0  -0.563886  0  2.063088  0  0  -0.513492  0  2.311991  0  0  -0.538826  0  2.303565  0  0  -0.306335  -0.495405  0  2.316961  0
O  O27  1  0.29198625  0.68337698  0.34948384  1  0  -0.563312  0  2.064794  0  0  -0.512975  0  2.313662  0  0  -0.538313  0  2.305269  0  0  -0.306143  -0.494887  0  2.318606  0
O  O28  1  0.29581615  0.88382038  0.53309321  1  0  -0.565546  0  2.063282  0  0  -0.50767  0  2.30722  0  0  -0.532959  0  2.296712  0  0  -0.306196  -0.489957  0  2.313752  0
O  O29  1  0.70452249  0.58289231  0.53313414  1  0  -0.564947  0  2.06469  0  0  -0.506758  0  2.308295  0  0  -0.532036  0  2.297799  0  0  -0.305  -0.489048  0  2.314818  0
O  O30  1  0.70416718  0.11616283  0.46692029  1  0  -0.565371  0  2.063702  0  0  -0.507469  0  2.30762  0  0  -0.532757  0  2.29712  0  0  -0.306068  -0.489758  0  2.314152  0
O  O31  1  0.29548019  0.41711393  0.46692011  1  0  -0.564743  0  2.065215  0  0  -0.506368  0  2.308758  0  0  -0.53163  0  2.298256  0  0  -0.304905  -0.488666  0  2.31528  0
