# generated using pymatgen
data_Na2Cu3P4H16C8(NO8)2
_symmetry_space_group_name_H-M   'P 1'
_cell_length_a   6.27512321
_cell_length_b   6.98549709
_cell_length_c   11.89570500
_cell_angle_alpha   85.44113106
_cell_angle_beta   85.49900404
_cell_angle_gamma   81.15310903
_symmetry_Int_Tables_number   1
_chemical_formula_structural   Na2Cu3P4H16C8(NO8)2
_chemical_formula_sum   'Na2 Cu3 P4 H16 C8 N2 O16'
_cell_volume   512.44946327
_cell_formula_units_Z   1
loop_
 _symmetry_equiv_pos_site_id
 _symmetry_equiv_pos_as_xyz
  1  'x, y, z'
loop_
 _atom_site_type_symbol
 _atom_site_label
 _atom_site_symmetry_multiplicity
 _atom_site_fract_x
 _atom_site_fract_y
 _atom_site_fract_z
 _atom_site_occupancy
 _atom_site_pbe_cm5_charge
 _atom_site_pbe_ddec_charge
 _atom_site_pbe_ddec_spin_density
 _atom_site_pbe_ddec_sum_bond_order
 _atom_site_pbe_magmom
Na  Na0  1  0.79931985  0.60341555  0.58714406  1  0.732843  0.86535  3.5e-05  0.563144  0.0
Na  Na1  1  0.20068699  0.39647085  0.41293829  1  0.732763  0.865247  -0.000171  0.563075  0.0
Cu  Cu2  1  0.99983689  0.00004931  0.50002608  1  0.763926  1.026492  -0.767577  2.12191  -0.607
Cu  Cu3  1  0.42897127  0.89624287  0.81264794  1  0.753297  0.940204  0.770761  2.138092  0.598
Cu  Cu4  1  0.57101786  0.10386995  0.18758216  1  0.753099  0.939714  -0.758118  2.136597  -0.602
P  P5  1  0.93282963  0.94667293  0.76303360  1  0.322757  1.252783  0.004301  5.418846  0.004
P  P6  1  0.06707869  0.05324881  0.23690442  1  0.322585  1.252383  -0.014075  5.419751  -0.006
P  P7  1  0.20507368  0.23604199  0.65613049  1  0.287258  1.193037  -0.001204  5.463623  0.0
P  P8  1  0.79485273  0.76409078  0.34382860  1  0.286851  1.19179  -0.006806  5.464154  -0.001
H  H9  1  0.63719150  0.24216551  0.68746624  1  0.30474  0.365992  4.6e-05  0.943347  0.0
H  H10  1  0.36270669  0.75764258  0.31261513  1  0.304555  0.365376  3.1e-05  0.943925  0.0
H  H11  1  0.38921140  0.84635461  0.59684441  1  0.297044  0.394914  0.000128  0.935984  0.0
H  H12  1  0.61096480  0.15366406  0.40301097  1  0.297019  0.395233  0.000214  0.93586  0.0
H  H13  1  0.34120746  0.63456785  0.63590170  1  0.295456  0.411138  4.8e-05  0.913876  0.0
H  H14  1  0.65879256  0.36553556  0.36404684  1  0.295435  0.411064  7.3e-05  0.914001  0.0
H  H15  1  0.74959548  0.29693240  0.88042406  1  0.090882  0.129494  -6.2e-05  1.040537  0.0
H  H16  1  0.25048695  0.70296220  0.11963561  1  0.090845  0.129351  -0.000155  1.040841  0.0
H  H17  1  0.92345302  0.46659056  0.82412740  1  0.09678  0.131898  -0.000292  1.006392  0.0
H  H18  1  0.07666203  0.53329971  0.17593629  1  0.096819  0.131767  -0.000109  1.006655  0.0
H  H19  1  0.02781680  0.24582710  0.90219772  1  0.097489  0.139994  -0.000123  1.012954  0.0
H  H20  1  0.97226998  0.75401324  0.09783435  1  0.097518  0.140226  0.0001  1.012771  0.0
H  H21  1  0.25848887  0.51881973  0.84791838  1  0.134344  0.118109  0.000549  1.003472  0.001
H  H22  1  0.74165490  0.48126668  0.15214741  1  0.134369  0.118161  -0.000551  1.002905  -0.001
H  H23  1  0.70185815  0.76956554  0.00527376  1  0.131186  0.113976  0.000487  1.017393  0.001
H  H24  1  0.29823272  0.23047411  0.99477297  1  0.131127  0.113877  -0.000558  1.017594  -0.001
C  C25  1  0.94259623  0.20664824  0.73287546  1  0.038633  -0.144688  0.001519  3.968816  0.002
C  C26  1  0.05736410  0.79329117  0.26716135  1  0.038906  -0.144715  0.000121  3.967956  -0.001
C  C27  1  0.91065260  0.31173864  0.84156195  1  -0.24425  -0.399257  -0.000239  3.949286  0.0
C  C28  1  0.08941403  0.68814680  0.15847190  1  -0.244255  -0.398997  -5.7e-05  3.948904  0.0
C  C29  1  0.36595367  0.50927925  0.91600382  1  0.073701  0.081672  -0.004583  3.848192  -0.006
C  C30  1  0.63415263  0.49077235  0.08406271  1  0.073651  0.081156  0.004624  3.847931  0.006
C  C31  1  0.61174060  0.64859108  0.00440931  1  0.069676  0.057514  -0.003896  3.877822  -0.005
C  C32  1  0.38835327  0.35143873  0.99565631  1  0.06947  0.056787  0.00398  3.877627  0.005
N  N33  1  0.47790875  0.65666600  0.92107354  1  -0.317582  -0.187495  0.060761  3.584649  0.078
N  N34  1  0.52212329  0.34342705  0.07902984  1  -0.317535  -0.187166  -0.059417  3.583086  -0.078
O  O35  1  0.93689006  0.85971507  0.64748212  1  -0.457566  -0.815419  -0.049634  2.405914  -0.067
O  O36  1  0.06274672  0.14042429  0.35241548  1  -0.45773  -0.816232  -0.053236  2.405024  -0.074
O  O37  1  0.12475123  0.86384036  0.83383083  1  -0.387502  -0.746133  0.055895  2.352572  0.076
O  O38  1  0.87549224  0.13567169  0.16581217  1  -0.387953  -0.746268  -0.059704  2.352002  -0.083
O  O39  1  0.72313064  0.92728833  0.83596064  1  -0.384175  -0.733048  0.055892  2.377402  0.076
O  O40  1  0.27687466  0.07275601  0.16409755  1  -0.383467  -0.731853  -0.066593  2.376705  -0.093
O  O41  1  0.23815526  0.09844067  0.55728968  1  -0.409493  -0.774023  -0.048666  2.402044  -0.066
O  O42  1  0.76152742  0.90218238  0.44244134  1  -0.408362  -0.773215  -0.049677  2.402153  -0.069
O  O43  1  0.38494851  0.16855312  0.73942384  1  -0.371525  -0.725605  0.043587  2.313718  0.06
O  O44  1  0.61509454  0.83107874  0.26040221  1  -0.370447  -0.723952  -0.056188  2.31203  -0.079
O  O45  1  0.19136607  0.44829764  0.61275625  1  -0.441761  -0.795764  0.008004  2.156531  0.01
O  O46  1  0.80852770  0.55196142  0.38743710  1  -0.441669  -0.79503  -0.011505  2.155958  -0.016
O  O47  1  0.77671243  0.28451798  0.65648572  1  -0.441086  -0.544549  0.001527  2.327345  0.001
O  O48  1  0.22313042  0.71545066  0.34363227  1  -0.440694  -0.543599  0.000104  2.327085  -0.001
O  O49  1  0.44714414  0.72588493  0.64018933  1  -0.654161  -0.843777  -0.000128  2.024609  0.001
O  O50  1  0.55300012  0.27414498  0.35964232  1  -0.653808  -0.843911  0.000538  2.025353  0.0
