# generated using pymatgen
data_DyAgH8C18(NO2)4
_symmetry_space_group_name_H-M   'P 1'
_cell_length_a   8.50723579
_cell_length_b   17.62795867
_cell_length_c   24.97550181
_cell_angle_alpha   89.99995030
_cell_angle_beta   90.00001629
_cell_angle_gamma   89.99998351
_symmetry_Int_Tables_number   1
_chemical_formula_structural   DyAgH8C18(NO2)4
_chemical_formula_sum   'Dy8 Ag8 H64 C144 N32 O64'
_cell_volume   3745.45614767
_cell_formula_units_Z   8
loop_
 _symmetry_equiv_pos_site_id
 _symmetry_equiv_pos_as_xyz
  1  'x, y, z'
loop_
 _atom_site_type_symbol
 _atom_site_label
 _atom_site_symmetry_multiplicity
 _atom_site_fract_x
 _atom_site_fract_y
 _atom_site_fract_z
 _atom_site_occupancy
 _atom_site_pbe_bader_charge
 _atom_site_pbe_bader_spin_density
 _atom_site_pbe_cm5_charge
 _atom_site_pbe_ddec_charge
 _atom_site_pbe_ddec_spin_density
 _atom_site_pbe_ddec_sum_bond_order
 _atom_site_pbe_magmom
Dy  Dy0  1  0.33420742  0.21677631  0.52511212  1  2.175823  0  1.532269  2.100892  0  2.154622  0
Dy  Dy1  1  0.16579333  0.21677605  0.97488886  1  2.175847  0  1.532274  2.100865  0  2.154666  0
Dy  Dy2  1  0.83420645  0.28322359  0.47488811  1  2.175843  0  1.532273  2.100885  0  2.154588  0
Dy  Dy3  1  0.66579316  0.28322445  0.02511175  1  2.17582  0  1.532274  2.100861  0  2.154721  0
Dy  Dy4  1  0.66579437  0.78322421  0.47488795  1  2.175808  0  1.532279  2.100853  0  2.154714  0
Dy  Dy5  1  0.83420494  0.78322504  0.02511201  1  2.175804  0  1.532257  2.10084  0  2.154721  0
Dy  Dy6  1  0.16579299  0.71677580  0.52511156  1  2.175848  0  1.532301  2.100875  0  2.154643  0
Dy  Dy7  1  0.33420628  0.71677607  0.97488832  1  2.175837  0  1.532284  2.100899  0  2.154664  0
Ag  Ag8  1  0.53760137  0.45489277  0.77264302  1  0.50442  0  0.482385  0.31018  0  1.907627  0
Ag  Ag9  1  0.96240091  0.45489220  0.72735706  1  0.504788  0  0.48241  0.310183  0  1.90765  0
Ag  Ag10  1  0.03759984  0.04510888  0.22735678  1  0.504407  0  0.482398  0.310177  0  1.907655  0
Ag  Ag11  1  0.46240177  0.04510882  0.27264318  1  0.504786  0  0.482412  0.310196  0  1.907622  0
Ag  Ag12  1  0.46240160  0.54510832  0.22735705  1  0.504781  0  0.482422  0.310206  0  1.907575  0
Ag  Ag13  1  0.03760088  0.54510946  0.27264341  1  0.504413  0  0.482412  0.310199  0  1.907631  0
Ag  Ag14  1  0.96239842  0.95489221  0.77264329  1  0.504432  0  0.482403  0.310189  0  1.907656  0
Ag  Ag15  1  0.53760120  0.95489000  0.72735649  1  0.504778  0  0.48238  0.310134  0  1.907761  0
H  H16  1  0.93440574  0.84569250  0.58942138  1  0.53677  0  0.333647  0.299095  0  0.945683  0
H  H17  1  0.56559395  0.84569290  0.91057767  1  0.536795  0  0.333647  0.299117  0  0.945664  0
H  H18  1  0.43440430  0.65430747  0.41057896  1  0.536779  0  0.33364  0.299089  0  0.945705  0
H  H19  1  0.06559459  0.65430769  0.08942183  1  0.536801  0  0.333656  0.299148  0  0.945635  0
H  H20  1  0.06559488  0.15430802  0.41057829  1  0.536792  0  0.333656  0.299156  0  0.945623  0
H  H21  1  0.43440431  0.15430706  0.08942200  1  0.536806  0  0.333657  0.29914  0  0.945649  0
H  H22  1  0.56559749  0.34569362  0.58942191  1  0.536834  0  0.333685  0.299203  0  0.945547  0
H  H23  1  0.93440367  0.34569397  0.91057904  1  0.536822  0  0.333658  0.299169  0  0.945585  0
H  H24  1  0.28205174  0.62273477  0.62810492  1  0.577821  0  0.312971  0.295446  0  0.994832  0
H  H25  1  0.21795111  0.62273349  0.87189421  1  0.577853  0  0.312996  0.295498  0  0.994781  0
H  H26  1  0.78205415  0.87726408  0.37189420  1  0.577822  0  0.312985  0.295474  0  0.994872  0
H  H27  1  0.71794862  0.87726707  0.12810610  1  0.577852  0  0.312999  0.295475  0  0.994818  0
H  H28  1  0.71794652  0.37726462  0.37189475  1  0.577822  0  0.312969  0.29544  0  0.994834  0
H  H29  1  0.78205420  0.37726647  0.12810626  1  0.577847  0  0.312999  0.295525  0  0.994792  0
H  H30  1  0.21794999  0.12273360  0.62810587  1  0.577839  0  0.312979  0.295464  0  0.994832  0
H  H31  1  0.28204964  0.12273175  0.87189277  1  0.577894  0  0.313017  0.295565  0  0.994735  0
H  H32  1  0.04771226  0.98709240  0.54275396  1  0.110994  0  0.111416  0.126373  0  1.030453  0
H  H33  1  0.45228333  0.98709268  0.95724575  1  0.110955  0  0.111434  0.126384  0  1.030513  0
H  H34  1  0.54771379  0.51290762  0.45724594  1  0.110983  0  0.111446  0.126427  0  1.030427  0
H  H35  1  0.95228686  0.51290785  0.04275459  1  0.111095  0  0.111453  0.126397  0  1.030489  0
H  H36  1  0.95228366  0.01290812  0.45724491  1  0.111175  0  0.111434  0.126357  0  1.030473  0
H  H37  1  0.54771259  0.01290784  0.04275432  1  0.11111  0  0.111433  0.126378  0  1.030418  0
H  H38  1  0.45228683  0.48709290  0.54275453  1  0.111102  0  0.111454  0.126435  0  1.030458  0
H  H39  1  0.04771258  0.48709381  0.95724669  1  0.110998  0  0.111434  0.126402  0  1.030454  0
H  H40  1  0.73844083  0.81293258  0.66446411  1  0.196071  0  0.150067  0.123208  0  0.959603  0
H  H41  1  0.76156240  0.81293474  0.83553575  1  0.195901  0  0.150063  0.123241  0  0.959614  0
H  H42  1  0.23844049  0.68706742  0.33553580  1  0.196077  0  0.150056  0.123221  0  0.959582  0
H  H43  1  0.26156073  0.68706639  0.16446537  1  0.195853  0  0.150072  0.123255  0  0.959588  0
H  H44  1  0.26156213  0.18706681  0.33553556  1  0.196066  0  0.150056  0.123237  0  0.959607  0
H  H45  1  0.23843939  0.18706635  0.16446432  1  0.196065  0  0.150065  0.123223  0  0.959648  0
H  H46  1  0.76156248  0.31293594  0.66446547  1  0.195888  0  0.150076  0.12324  0  0.959638  0
H  H47  1  0.73843753  0.31293584  0.83553550  1  0.195909  0  0.150077  0.123244  0  0.959601  0
H  H48  1  0.58502811  0.08640718  0.64568873  1  0.089871  0  0.107581  0.121077  0  1.008218  0
H  H49  1  0.91496616  0.08640930  0.85431078  1  0.089903  0  0.107596  0.121058  0  1.008264  0
H  H50  1  0.08502764  0.41359219  0.35431148  1  0.089862  0  0.10759  0.121057  0  1.008239  0
H  H51  1  0.41497257  0.41359230  0.14568866  1  0.089822  0  0.107577  0.121051  0  1.008234  0
H  H52  1  0.41497133  0.91359107  0.35431094  1  0.089856  0  0.107591  0.121042  0  1.008239  0
H  H53  1  0.08502741  0.91359179  0.14568969  1  0.089829  0  0.107575  0.121045  0  1.008219  0
H  H54  1  0.91496944  0.58641117  0.64569019  1  0.089848  0  0.107572  0.121036  0  1.008209  0
H  H55  1  0.58503157  0.58641106  0.85431021  1  0.089861  0  0.107578  0.121028  0  1.008226  0
H  H56  1  0.32548430  0.33606795  0.70748840  1  0.083246  0  0.10783  0.125337  0  0.997391  0
H  H57  1  0.17451050  0.33606621  0.79251131  1  0.083623  0  0.107815  0.125325  0  0.997387  0
H  H58  1  0.82548795  0.16393196  0.29251183  1  0.083243  0  0.107823  0.125334  0  0.997384  0
H  H59  1  0.67450938  0.16393486  0.20748851  1  0.083627  0  0.10783  0.12536  0  0.997336  0
H  H60  1  0.67451397  0.66393201  0.29251287  1  0.083519  0  0.107848  0.125388  0  0.997364  0
H  H61  1  0.82548659  0.66393375  0.20748796  1  0.083416  0  0.107823  0.12533  0  0.997387  0
H  H62  1  0.17451266  0.83606743  0.70748784  1  0.083478  0  0.107835  0.125341  0  0.997396  0
H  H63  1  0.32548771  0.83606510  0.79251076  1  0.083356  0  0.107808  0.125316  0  0.997389  0
H  H64  1  0.45450732  0.61441270  0.70651457  1  0.19606  0  0.140978  0.113842  0  0.988609  0
H  H65  1  0.04549436  0.61441211  0.79348497  1  0.196094  0  0.140962  0.11379  0  0.988673  0
H  H66  1  0.95451084  0.88558669  0.29348497  1  0.196383  0  0.140974  0.113848  0  0.988686  0
H  H67  1  0.54549428  0.88558905  0.20651613  1  0.196464  0  0.140972  0.113822  0  0.988636  0
H  H68  1  0.54549212  0.38558612  0.29348430  1  0.196407  0  0.140959  0.113837  0  0.988607  0
H  H69  1  0.95450860  0.38558841  0.20651550  1  0.196435  0  0.140995  0.113855  0  0.988679  0
H  H70  1  0.04549683  0.11441270  0.70651510  1  0.196094  0  0.140968  0.113794  0  0.988628  0
H  H71  1  0.45450751  0.11441034  0.79348434  1  0.196508  0  0.141  0.113844  0  0.988611  0
H  H72  1  0.11195654  0.50372899  0.56064244  1  0.119834  0  0.122762  0.146932  0  0.979793  0
H  H73  1  0.38804638  0.50372817  0.93935677  1  0.119863  0  0.122732  0.146877  0  0.979784  0
H  H74  1  0.61195659  0.99626932  0.43935666  1  0.119833  0  0.122768  0.146942  0  0.979766  0
H  H75  1  0.88804259  0.99627124  0.06064317  1  0.119874  0  0.122732  0.14685  0  0.979813  0
H  H76  1  0.88804172  0.49626984  0.43935803  1  0.119807  0  0.122748  0.146929  0  0.979787  0
H  H77  1  0.61195893  0.49627009  0.06064330  1  0.119852  0  0.122716  0.146837  0  0.979822  0
H  H78  1  0.38804520  0.00372780  0.56064301  1  0.119845  0  0.122756  0.146931  0  0.979835  0
H  H79  1  0.11194627  0.00372758  0.93935410  1  0.119892  0  0.12274  0.146947  0  0.979795  0
C  C80  1  0.98907233  0.12768428  0.51787949  1  1.614988  0  0.240946  0.659611  0  4.14132  0
C  C81  1  0.51092896  0.12768516  0.98212239  1  1.615037  0  0.241027  0.659705  0  4.14108  0
C  C82  1  0.48907317  0.37231447  0.48212075  1  1.614954  0  0.240966  0.659572  0  4.141328  0
C  C83  1  0.01093059  0.37231593  0.01787901  1  1.614999  0  0.241006  0.659646  0  4.141146  0
C  C84  1  0.01092828  0.87231511  0.48212058  1  1.615014  0  0.241008  0.659671  0  4.141232  0
C  C85  1  0.48906812  0.87231593  0.01787888  1  1.614948  0  0.240946  0.659601  0  4.141175  0
C  C86  1  0.51092862  0.62768605  0.51787932  1  1.615035  0  0.241052  0.659686  0  4.141094  0
C  C87  1  0.98907120  0.62768630  0.98212146  1  1.615065  0  0.241024  0.659656  0  4.141178  0
C  C88  1  0.89332328  0.08194102  0.55702666  1  -0.023497  0  -0.002429  -0.037852  0  3.889361  0
C  C89  1  0.60667334  0.08194193  0.94297365  1  -0.024174  0  -0.0025  -0.037935  0  3.889399  0
C  C90  1  0.39332406  0.41805888  0.44297397  1  -0.024039  0  -0.002504  -0.037921  0  3.889402  0
C  C91  1  0.10667615  0.41805914  0.05702696  1  -0.024129  0  -0.002435  -0.037879  0  3.889428  0
C  C92  1  0.10667381  0.91805894  0.44297261  1  -0.024038  0  -0.002452  -0.037929  0  3.889403  0
C  C93  1  0.39332257  0.91805973  0.05702722  1  -0.023492  0  -0.002465  -0.037838  0  3.889344  0
C  C94  1  0.60667538  0.58194278  0.55702730  1  -0.024137  0  -0.002492  -0.037901  0  3.889561  0
C  C95  1  0.89332564  0.58194309  0.94297311  1  -0.024186  0  -0.002469  -0.037873  0  3.889487  0
C  C96  1  0.94386734  0.00718306  0.56365358  1  0.005089  0  -0.083564  -0.173438  0  3.944068  0
C  C97  1  0.55612815  0.00718343  0.93634718  1  0.005622  0  -0.083551  -0.173482  0  3.944103  0
C  C98  1  0.44386807  0.49281683  0.43634666  1  0.005624  0  -0.08356  -0.173512  0  3.944096  0
C  C99  1  0.05613210  0.49281652  0.06365383  1  0.005649  0  -0.083614  -0.173511  0  3.94416  0
C  C100  1  0.05613328  0.99281746  0.43634569  1  0.005559  0  -0.083567  -0.173393  0  3.94412  0
C  C101  1  0.44386541  0.99281710  0.06365410  1  0.005095  0  -0.083553  -0.173439  0  3.944066  0
C  C102  1  0.55613255  0.50718426  0.56365341  1  0.005641  0  -0.083594  -0.173534  0  3.94424  0
C  C103  1  0.94386852  0.50718457  0.93634704  1  0.005676  0  -0.083541  -0.173446  0  3.944048  0
C  C104  1  0.85928025  0.96061051  0.59803017  1  0.414414  0  0.109127  0.175223  0  3.980856  0
C  C105  1  0.64071467  0.96061204  0.90196920  1  0.41448  0  0.109116  0.175295  0  3.980837  0
C  C106  1  0.35928122  0.53938833  0.40197015  1  0.414393  0  0.109063  0.175231  0  3.980865  0
C  C107  1  0.14072009  0.53938967  0.09803071  1  0.414282  0  0.109095  0.17521  0  3.980953  0
C  C108  1  0.14071801  0.03938944  0.40196950  1  0.414374  0  0.109062  0.17515  0  3.980954  0
C  C109  1  0.35927889  0.03938905  0.09803087  1  0.414269  0  0.109115  0.175244  0  3.980871  0
C  C110  1  0.64071939  0.46061219  0.59803112  1  0.414401  0  0.109117  0.175277  0  3.980936  0
C  C111  1  0.85928405  0.46061256  0.90196897  1  0.414465  0  0.109069  0.175229  0  3.980832  0
C  C112  1  0.76117675  0.86928625  0.64881276  1  1.00866  0  0.17575  0.197004  0  3.885663  0
C  C113  1  0.73882292  0.86928782  0.85118627  1  1.008584  0  0.175714  0.196926  0  3.885686  0
C  C114  1  0.26117645  0.63071318  0.35118716  1  1.008634  0  0.175695  0.196919  0  3.885664  0
C  C115  1  0.23882363  0.63071274  0.14881365  1  1.009185  0  0.175668  0.196818  0  3.885711  0
C  C116  1  0.23882504  0.13071371  0.35118691  1  1.008939  0  0.17568  0.196847  0  3.885684  0
C  C117  1  0.26117416  0.13071383  0.14881380  1  1.008509  0  0.175692  0.196907  0  3.885587  0
C  C118  1  0.73882416  0.36928791  0.64881371  1  1.008769  0  0.175696  0.196909  0  3.885695  0
C  C119  1  0.76117463  0.36928892  0.85118683  1  1.008794  0  0.175692  0.196937  0  3.885873  0
C  C120  1  0.73671753  0.98971711  0.63006635  1  0.335024  0  0.083289  0.121118  0  4.06906  0
C  C121  1  0.76327502  0.98971923  0.86993301  1  0.334952  0  0.083261  0.1211  0  4.069182  0
C  C122  1  0.23671849  0.51028289  0.36993396  1  0.335325  0  0.083299  0.121043  0  4.069035  0
C  C123  1  0.26328166  0.51028247  0.13006651  1  0.335377  0  0.083272  0.12108  0  4.06907  0
C  C124  1  0.26328074  0.01028228  0.36993292  1  0.335054  0  0.083298  0.121099  0  4.069029  0
C  C125  1  0.23671736  0.01028243  0.13006666  1  0.335153  0  0.083297  0.121099  0  4.069097  0
C  C126  1  0.76327977  0.48972047  0.63006771  1  0.335223  0  0.083249  0.121022  0  4.069148  0
C  C127  1  0.73672130  0.48972089  0.86993276  1  0.335182  0  0.083237  0.121052  0  4.069079  0
C  C128  1  0.68462568  0.06397635  0.62326517  1  0.037235  0  -0.081299  -0.162764  0  3.955679  0
C  C129  1  0.81537095  0.06397732  0.87673556  1  0.037271  0  -0.081409  -0.162863  0  3.955901  0
C  C130  1  0.18462404  0.43602075  0.37673665  1  0.037084  0  -0.081415  -0.162838  0  3.955857  0
C  C131  1  0.31537733  0.43602373  0.12326507  1  0.037239  0  -0.081324  -0.162756  0  3.955617  0
C  C132  1  0.31537376  0.93602248  0.37673450  1  0.03723  0  -0.0814  -0.162761  0  3.955701  0
C  C133  1  0.18462378  0.93602264  0.12326572  1  0.037217  0  -0.08133  -0.162729  0  3.955609  0
C  C134  1  0.81537305  0.56397808  0.62326582  1  0.037224  0  -0.081366  -0.162744  0  3.955684  0
C  C135  1  0.68462798  0.56397906  0.87673460  1  0.037207  0  -0.081371  -0.16274  0  3.955711  0
C  C136  1  0.75946547  0.10962544  0.58520146  1  0.017095  0  -0.008261  -0.048453  0  3.902757  0
C  C137  1  0.74053231  0.10962694  0.91479924  1  0.017062  0  -0.008141  -0.048264  0  3.902847  0
C  C138  1  0.25946506  0.39037448  0.41479957  1  0.017312  0  -0.00815  -0.048264  0  3.902878  0
C  C139  1  0.24053516  0.39037412  0.08520098  1  0.017195  0  -0.008243  -0.048404  0  3.902685  0
C  C140  1  0.24053280  0.89037395  0.41479781  1  0.017022  0  -0.008166  -0.048333  0  3.9027  0
C  C141  1  0.25946595  0.89037415  0.08520243  1  0.017104  0  -0.008232  -0.04845  0  3.902683  0
C  C142  1  0.74053320  0.60962775  0.58520171  1  0.017053  0  -0.008195  -0.048389  0  3.902781  0
C  C143  1  0.75946781  0.60962811  0.91479789  1  0.017045  0  -0.008157  -0.048332  0  3.902818  0
C  C144  1  0.69043832  0.18666784  0.57525528  1  1.584657  0  0.230389  0.655012  0  4.157691  0
C  C145  1  0.80955941  0.18666818  0.92474577  1  1.584609  0  0.230334  0.654887  0  4.157905  0
C  C146  1  0.19043679  0.31333323  0.42474613  1  1.584585  0  0.230377  0.654956  0  4.157645  0
C  C147  1  0.30956112  0.31333230  0.07525526  1  1.584638  0  0.230344  0.654902  0  4.157869  0
C  C148  1  0.30956112  0.81333212  0.42474479  1  1.584617  0  0.230356  0.654921  0  4.157793  0
C  C149  1  0.19043650  0.81333291  0.07525511  1  1.584636  0  0.230351  0.654924  0  4.157751  0
C  C150  1  0.80956029  0.68666900  0.57525434  1  1.584622  0  0.230329  0.654895  0  4.157892  0
C  C151  1  0.69043831  0.68666936  0.92474561  1  1.584635  0  0.230372  0.654912  0  4.157765  0
C  C152  1  0.15119266  0.25889458  0.63887198  1  1.628356  0  0.216806  0.631382  0  4.173388  0
C  C153  1  0.34880336  0.25889329  0.86112818  1  1.628321  0  0.216901  0.631479  0  4.173318  0
C  C154  1  0.65119515  0.24110479  0.36112824  1  1.628345  0  0.216825  0.63134  0  4.173471  0
C  C155  1  0.84880919  0.24110662  0.13887245  1  1.628354  0  0.216949  0.631634  0  4.173217  0
C  C156  1  0.84880913  0.74110425  0.36112849  1  1.628392  0  0.216931  0.631465  0  4.173307  0
C  C157  1  0.65119373  0.74110610  0.13887149  1  1.628331  0  0.216917  0.631468  0  4.173248  0
C  C158  1  0.34880429  0.75889403  0.63887103  1  1.628347  0  0.216863  0.631464  0  4.173309  0
C  C159  1  0.15119378  0.75889277  0.86112762  1  1.628379  0  0.216908  0.631516  0  4.173307  0
C  C160  1  0.18975863  0.34251628  0.63420378  1  -0.107963  0  -0.007959  -0.04897  0  3.948193  0
C  C161  1  0.31023734  0.34251556  0.86579553  1  -0.10793  0  -0.007958  -0.048978  0  3.948222  0
C  C162  1  0.68975999  0.15748251  0.36579644  1  -0.107897  0  -0.007967  -0.049028  0  3.948194  0
C  C163  1  0.81023851  0.15748378  0.13420430  1  -0.107927  0  -0.007998  -0.049035  0  3.948266  0
C  C164  1  0.81024199  0.65748254  0.36579709  1  -0.107954  0  -0.007984  -0.048973  0  3.94806  0
C  C165  1  0.68975975  0.65748383  0.13420334  1  -0.107906  0  -0.007972  -0.048917  0  3.948147  0
C  C166  1  0.31024062  0.84251518  0.63420363  1  -0.107981  0  -0.007986  -0.048951  0  3.948218  0
C  C167  1  0.18975975  0.84251504  0.86579497  1  -0.108046  0  -0.008001  -0.049049  0  3.948188  0
C  C168  1  0.28006999  0.37243917  0.67567321  1  0.039483  0  -0.099265  -0.207659  0  4.013312  0
C  C169  1  0.21992596  0.37243795  0.82432688  1  0.039271  0  -0.099257  -0.207712  0  4.013351  0
C  C170  1  0.78007252  0.12756018  0.32432662  1  0.039438  0  -0.099271  -0.207663  0  4.013288  0
C  C171  1  0.71992601  0.12756254  0.17567254  1  0.039264  0  -0.099273  -0.207742  0  4.013428  0
C  C172  1  0.71992827  0.62756079  0.32432726  1  0.039505  0  -0.099278  -0.20778  0  4.013264  0
C  C173  1  0.78007348  0.62756144  0.17567279  1  0.039285  0  -0.099227  -0.20769  0  4.013336  0
C  C174  1  0.21992810  0.87243808  0.67567346  1  0.039485  0  -0.099232  -0.20768  0  4.013285  0
C  C175  1  0.28007225  0.87243742  0.82432593  1  0.039437  0  -0.099234  -0.207647  0  4.013354  0
C  C176  1  0.31260110  0.44997282  0.67487881  1  0.360907  0  0.075265  0.121958  0  4.108153  0
C  C177  1  0.18739716  0.44997160  0.82512083  1  0.361054  0  0.075244  0.122017  0  4.108153  0
C  C178  1  0.81260485  0.05002652  0.32512142  1  0.360957  0  0.075276  0.122005  0  4.108232  0
C  C179  1  0.68739608  0.05003003  0.17487899  1  0.361016  0  0.075237  0.121981  0  4.10824  0
C  C180  1  0.68739716  0.55002657  0.32512206  1  0.36093  0  0.07525  0.122014  0  4.108149  0
C  C181  1  0.81260581  0.55002836  0.17487804  1  0.360921  0  0.075251  0.122013  0  4.108209  0
C  C182  1  0.18739694  0.94997230  0.67487785  1  0.360911  0  0.07523  0.121995  0  4.108231  0
C  C183  1  0.31260336  0.94996993  0.82512028  1  0.360878  0  0.075239  0.122007  0  4.108232  0
C  C184  1  0.39519782  0.56479892  0.69043602  1  1.004348  0  0.163481  0.182673  0  3.911962  0
C  C185  1  0.10480272  0.56479830  0.80956355  1  1.004327  0  0.16343  0.182691  0  3.911958  0
C  C186  1  0.89520367  0.93519992  0.30956391  1  1.004005  0  0.163471  0.182633  0  3.912036  0
C  C187  1  0.60480142  0.93520172  0.19043676  1  1.003942  0  0.163487  0.182749  0  3.911979  0
C  C188  1  0.60480162  0.43520104  0.30956405  1  1.003988  0  0.163479  0.182644  0  3.912054  0
C  C189  1  0.89520377  0.43520166  0.19043692  1  1.004005  0  0.16345  0.182654  0  3.912053  0
C  C190  1  0.10480282  0.06479833  0.69043616  1  1.004337  0  0.163458  0.182761  0  3.911872  0
C  C191  1  0.39519684  0.06479597  0.80956331  1  1.004193  0  0.163451  0.182755  0  3.912205  0
C  C192  1  0.24765283  0.49791601  0.63489361  1  0.340707  0  0.091207  0.123684  0  4.033143  0
C  C193  1  0.25235010  0.49791473  0.86510640  1  0.340829  0  0.091195  0.123633  0  4.03323  0
C  C194  1  0.74765546  0.00208278  0.36510581  1  0.340717  0  0.091199  0.123563  0  4.033346  0
C  C195  1  0.75234666  0.00208576  0.13489342  1  0.340821  0  0.091175  0.123628  0  4.03322  0
C  C196  1  0.75234426  0.50208282  0.36510686  1  0.340706  0  0.091234  0.123652  0  4.033192  0
C  C197  1  0.74765639  0.50208466  0.13489327  1  0.340706  0  0.091204  0.123611  0  4.033267  0
C  C198  1  0.25234633  0.99791491  0.63489386  1  0.340706  0  0.091189  0.12363  0  4.033308  0
C  C199  1  0.24765042  0.99791363  0.86510465  1  0.341043  0  0.091156  0.123543  0  4.033251  0
C  C200  1  0.15801853  0.46848552  0.59290967  1  -0.01444  0  -0.073344  -0.153932  0  3.904361  0
C  C201  1  0.34198324  0.46848531  0.90708916  1  -0.014387  0  -0.073358  -0.153965  0  3.904207  0
C  C202  1  0.65801883  0.03151271  0.40708934  1  -0.014419  0  -0.073336  -0.153886  0  3.904368  0
C  C203  1  0.84197975  0.03151459  0.09291108  1  -0.014363  0  -0.073332  -0.153913  0  3.904286  0
C  C204  1  0.84198091  0.53151274  0.40709040  1  -0.014448  0  -0.073368  -0.153956  0  3.90438  0
C  C205  1  0.65802090  0.53151351  0.09291052  1  -0.01442  0  -0.073321  -0.153853  0  3.904321  0
C  C206  1  0.34198178  0.96848554  0.59290953  1  -0.014405  0  -0.073353  -0.15392  0  3.904276  0
C  C207  1  0.15801146  0.96848480  0.90708779  1  -0.014398  0  -0.07335  -0.15397  0  3.904267  0
C  C208  1  0.13338071  0.38994098  0.59227828  1  0.056674  0  -0.012973  -0.050613  0  3.941872  0
C  C209  1  0.36661876  0.38993850  0.90772180  1  0.056631  0  -0.012894  -0.050405  0  3.941537  0
C  C210  1  0.63338331  0.11005839  0.40772153  1  0.056626  0  -0.012957  -0.050533  0  3.941756  0
C  C211  1  0.86661875  0.11006141  0.09227843  1  0.056635  0  -0.01289  -0.050419  0  3.94153  0
C  C212  1  0.86661991  0.61005785  0.40772219  1  0.05667  0  -0.012919  -0.050504  0  3.941743  0
C  C213  1  0.63338303  0.61005976  0.09227787  1  0.056636  0  -0.012925  -0.050538  0  3.941691  0
C  C214  1  0.36661848  0.88993873  0.59227774  1  0.056655  0  -0.012934  -0.050591  0  3.94169  0
C  C215  1  0.13337834  0.88993855  0.90772003  1  0.056678  0  -0.012821  -0.050314  0  3.941444  0
C  C216  1  0.04822143  0.35557458  0.54608181  1  1.559938  0  0.208451  0.611787  0  4.17118  0
C  C217  1  0.45177571  0.35557317  0.95391788  1  1.560552  0  0.2085  0.611777  0  4.171148  0
C  C218  1  0.54822522  0.14442367  0.45391839  1  1.560176  0  0.208436  0.611711  0  4.171359  0
C  C219  1  0.95177799  0.14442559  0.04608156  1  1.560811  0  0.208449  0.61178  0  4.171207  0
C  C220  1  0.95177801  0.64442424  0.45391866  1  1.560249  0  0.208443  0.611685  0  4.17133  0
C  C221  1  0.54822255  0.64442509  0.04608139  1  1.560253  0  0.208464  0.611733  0  4.171254  0
C  C222  1  0.45177656  0.85557346  0.54608128  1  1.560568  0  0.208453  0.611782  0  4.171353  0
C  C223  1  0.04822027  0.85557493  0.95391691  1  1.560787  0  0.208365  0.611688  0  4.171281  0
N  N224  1  0.86989242  0.88452229  0.61068700  1  -1.259954  0  -0.360523  -0.240135  0  3.596396  0
N  N225  1  0.63010607  0.88452327  0.88931242  1  -1.259926  0  -0.360532  -0.240218  0  3.596335  0
N  N226  1  0.36989333  0.61547712  0.38931293  1  -1.259926  0  -0.360513  -0.240154  0  3.596457  0
N  N227  1  0.13011028  0.61547675  0.11068788  1  -1.260289  0  -0.360474  -0.240101  0  3.59649  0
N  N228  1  0.13011055  0.11547654  0.38931187  1  -1.260272  0  -0.360484  -0.240132  0  3.596517  0
N  N229  1  0.36989102  0.11547726  0.11068765  1  -1.260267  0  -0.360533  -0.24022  0  3.596324  0
N  N230  1  0.63011081  0.38452510  0.61068834  1  -1.26025  0  -0.360523  -0.24025  0  3.596415  0
N  N231  1  0.86989033  0.38452548  0.88931219  1  -1.26026  0  -0.360474  -0.240186  0  3.596476  0
N  N232  1  0.68119776  0.93144035  0.66260145  1  -1.198131  0  -0.385903  -0.313434  0  3.680015  0
N  N233  1  0.81879952  0.93144364  0.83739794  1  -1.197818  0  -0.385822  -0.313377  0  3.680092  0
N  N234  1  0.18119749  0.56855795  0.33739846  1  -1.198312  0  -0.385859  -0.313369  0  3.679971  0
N  N235  1  0.31880380  0.56855805  0.16260198  1  -1.198323  0  -0.385852  -0.313334  0  3.679933  0
N  N236  1  0.31880403  0.06855847  0.33739822  1  -1.198076  0  -0.38589  -0.313412  0  3.679851  0
N  N237  1  0.18119521  0.06855802  0.16260213  1  -1.197665  0  -0.385858  -0.313345  0  3.6799  0
N  N238  1  0.81880313  0.43144427  0.66260281  1  -1.197887  0  -0.385848  -0.313334  0  3.67996  0
N  N239  1  0.68119799  0.43144417  0.83739769  1  -1.197885  0  -0.385846  -0.313451  0  3.680185  0
N  N240  1  0.40557137  0.49347471  0.70864229  1  -1.192643  0  -0.393949  -0.309501  0  3.657622  0
N  N241  1  0.09442804  0.49347411  0.79135773  1  -1.192411  0  -0.393907  -0.309497  0  3.657591  0
N  N242  1  0.90557629  0.00652632  0.29135795  1  -1.19228  0  -0.393948  -0.30951  0  3.657691  0
N  N243  1  0.59442701  0.00652696  0.20864288  1  -1.192774  0  -0.39391  -0.309508  0  3.657605  0
N  N244  1  0.59442807  0.50652581  0.29135778  1  -1.192655  0  -0.393924  -0.309487  0  3.65763  0
N  N245  1  0.90557610  0.50652755  0.20864234  1  -1.192303  0  -0.39396  -0.309516  0  3.657686  0
N  N246  1  0.09442667  0.99347364  0.70864212  1  -1.192267  0  -0.393898  -0.309502  0  3.657571  0
N  N247  1  0.40557478  0.99347243  0.79135719  1  -1.19284  0  -0.393924  -0.309537  0  3.657876  0
N  N248  1  0.30170680  0.57006388  0.64710195  1  -1.282545  0  -0.36284  -0.245737  0  3.600707  0
N  N249  1  0.19829491  0.57006263  0.85289761  1  -1.282682  0  -0.36284  -0.245763  0  3.600687  0
N  N250  1  0.80171034  0.92993497  0.35289757  1  -1.282622  0  -0.362878  -0.245728  0  3.600803  0
N  N251  1  0.69829241  0.92993737  0.14710270  1  -1.282668  0  -0.362882  -0.245804  0  3.600761  0
N  N252  1  0.69829029  0.42993551  0.35289812  1  -1.282583  0  -0.362887  -0.245768  0  3.600848  0
N  N253  1  0.80171040  0.42993619  0.14710206  1  -1.282566  0  -0.362864  -0.245806  0  3.600716  0
N  N254  1  0.19829498  0.07006272  0.64710170  1  -1.282547  0  -0.362863  -0.245821  0  3.600756  0
N  N255  1  0.30170468  0.07006088  0.85289617  1  -1.283041  0  -0.362892  -0.245877  0  3.600918  0
O  O256  1  0.13643110  0.12682604  0.52457161  1  -1.185998  0  -0.386674  -0.637415  0  2.300924  0
O  O257  1  0.36356852  0.12682631  0.97543223  1  -1.185976  0  -0.386701  -0.63744  0  2.300837  0
O  O258  1  0.63642773  0.37317163  0.47542940  1  -1.185954  0  -0.386655  -0.637355  0  2.300931  0
O  O259  1  0.86356712  0.37317473  0.02457041  1  -1.185978  0  -0.386736  -0.637462  0  2.300786  0
O  O260  1  0.86356481  0.87317449  0.47542966  1  -1.186062  0  -0.386767  -0.637503  0  2.300882  0
O  O261  1  0.63642739  0.87317478  0.02456904  1  -1.185944  0  -0.386663  -0.637399  0  2.300837  0
O  O262  1  0.36356936  0.62682663  0.52456947  1  -1.185985  0  -0.386738  -0.637465  0  2.30082  0
O  O263  1  0.13643114  0.62682636  0.97543047  1  -1.18599  0  -0.386709  -0.637417  0  2.300805  0
O  O264  1  0.92155096  0.15995917  0.47810250  1  -1.210171  0  -0.40868  -0.697937  0  2.342927  0
O  O265  1  0.57845577  0.15995891  0.02189864  1  -1.210212  0  -0.40872  -0.697968  0  2.342792  0
O  O266  1  0.42154715  0.34004072  0.52189814  1  -1.210184  0  -0.408689  -0.697902  0  2.342859  0
O  O267  1  0.07845000  0.34004103  0.97810237  1  -1.210185  0  -0.408696  -0.697912  0  2.342911  0
O  O268  1  0.07844848  0.84004135  0.52189677  1  -1.210162  0  -0.408639  -0.697862  0  2.342917  0
O  O269  1  0.42154249  0.84004218  0.97810223  1  -1.210166  0  -0.408685  -0.697919  0  2.34281  0
O  O270  1  0.57845346  0.65995867  0.47810193  1  -1.210182  0  -0.408695  -0.697917  0  2.342864  0
O  O271  1  0.92154827  0.65996006  0.02189810  1  -1.210221  0  -0.408719  -0.697968  0  2.342908  0
O  O272  1  0.77849040  0.24091689  0.56029381  1  -1.207604  0  -0.404947  -0.673043  0  2.331509  0
O  O273  1  0.72150730  0.24091836  0.93970721  1  -1.207578  0  -0.404951  -0.672971  0  2.331497  0
O  O274  1  0.27849362  0.25908246  0.43970762  1  -1.207685  0  -0.404956  -0.673002  0  2.331302  0
O  O275  1  0.22150903  0.25908326  0.06029382  1  -1.207641  0  -0.404935  -0.672985  0  2.331545  0
O  O276  1  0.22150786  0.75908307  0.43970666  1  -1.207525  0  -0.404966  -0.673009  0  2.331473  0
O  O277  1  0.27849096  0.75908330  0.06029246  1  -1.207602  0  -0.404965  -0.67303  0  2.331413  0
O  O278  1  0.72150817  0.74091750  0.56029245  1  -1.207597  0  -0.404933  -0.672973  0  2.331566  0
O  O279  1  0.77848923  0.74091896  0.93970786  1  -1.207589  0  -0.404969  -0.672999  0  2.331457  0
O  O280  1  0.54258183  0.19340033  0.58245353  1  -1.181615  0  -0.408595  -0.682097  0  2.292475  0
O  O281  1  0.95741590  0.19340066  0.91754712  1  -1.181553  0  -0.408569  -0.682053  0  2.292509  0
O  O282  1  0.04258266  0.30659962  0.41754747  1  -1.181629  0  -0.408566  -0.682077  0  2.292506  0
O  O283  1  0.45741762  0.30659923  0.08245313  1  -1.181601  0  -0.408583  -0.682048  0  2.292519  0
O  O284  1  0.45741761  0.80659963  0.41754654  1  -1.181607  0  -0.408569  -0.682065  0  2.292519  0
O  O285  1  0.04258354  0.80659986  0.08245295  1  -1.181623  0  -0.408565  -0.682061  0  2.292567  0
O  O286  1  0.95741561  0.69340147  0.58245300  1  -1.181578  0  -0.408575  -0.682054  0  2.292525  0
O  O287  1  0.54258300  0.69340129  0.91754734  1  -1.181599  0  -0.408579  -0.682065  0  2.292546  0
O  O288  1  0.24269477  0.21334025  0.61244530  1  -1.193369  0  -0.413387  -0.674939  0  2.344987  0
O  O289  1  0.25730833  0.21333894  0.88755529  1  -1.193394  0  -0.413474  -0.675045  0  2.345052  0
O  O290  1  0.74269373  0.28665797  0.38755492  1  -1.193369  0  -0.413378  -0.674905  0  2.345093  0
O  O291  1  0.75730588  0.28666154  0.11244454  1  -1.19339  0  -0.41347  -0.675053  0  2.344907  0
O  O292  1  0.75731172  0.78665801  0.38755597  1  -1.193321  0  -0.413451  -0.674977  0  2.344957  0
O  O293  1  0.74268993  0.78665988  0.11244478  1  -1.193359  0  -0.413454  -0.674972  0  2.345015  0
O  O294  1  0.25730806  0.71334028  0.61244515  1  -1.193421  0  -0.413399  -0.674959  0  2.345025  0
O  O295  1  0.24269356  0.71333898  0.88755433  1  -1.193428  0  -0.413455  -0.674999  0  2.345011  0
O  O296  1  0.04508418  0.23898415  0.67014662  1  -1.164047  0  -0.327644  -0.542424  0  2.024903  0
O  O297  1  0.45491537  0.23898345  0.82985314  1  -1.164029  0  -0.327653  -0.542452  0  2.0248  0
O  O298  1  0.54508428  0.26101467  0.32985238  1  -1.164021  0  -0.327661  -0.542397  0  2.024835  0
O  O299  1  0.95491299  0.26101587  0.17014550  1  -1.164044  0  -0.327677  -0.542518  0  2.025002  0
O  O300  1  0.95491761  0.76101411  0.32985305  1  -1.16411  0  -0.327677  -0.542441  0  2.024913  0
O  O301  1  0.54508406  0.76101537  0.17014693  1  -1.164027  0  -0.327692  -0.542486  0  2.024827  0
O  O302  1  0.45491751  0.73898359  0.67014769  1  -1.164043  0  -0.327661  -0.542459  0  2.024755  0
O  O303  1  0.04508528  0.73898295  0.82985257  1  -1.16408  0  -0.327677  -0.542499  0  2.024836  0
O  O304  1  0.08772663  0.28877899  0.53002931  1  -1.206241  0  -0.403785  -0.735842  0  2.440018  0
O  O305  1  0.41227289  0.28877870  0.96997123  1  -1.206289  0  -0.403828  -0.735925  0  2.440127  0
O  O306  1  0.58772805  0.21121925  0.46997090  1  -1.206184  0  -0.403751  -0.735785  0  2.440086  0
O  O307  1  0.91227277  0.21122120  0.03002901  1  -1.206263  0  -0.403805  -0.735868  0  2.440036  0
O  O308  1  0.91227398  0.71121870  0.46997116  1  -1.206171  0  -0.403734  -0.735771  0  2.440129  0
O  O309  1  0.58772537  0.71122012  0.03002884  1  -1.206247  0  -0.403782  -0.735835  0  2.440116  0
O  O310  1  0.41227138  0.78877957  0.53002877  1  -1.20629  0  -0.403802  -0.735847  0  2.440109  0
O  O311  1  0.08772549  0.78877819  0.96996946  1  -1.206221  0  -0.403733  -0.735838  0  2.439997  0
O  O312  1  0.93636418  0.39065744  0.52311734  1  -1.170848  0  -0.37058  -0.605617  0  2.160056  0
O  O313  1  0.56363460  0.39065718  0.97688318  1  -1.171401  0  -0.370585  -0.605585  0  2.160015  0
O  O314  1  0.43636870  0.10934075  0.47688370  1  -1.171075  0  -0.370562  -0.6056  0  2.160114  0
O  O315  1  0.06363169  0.10934333  0.02311742  1  -1.17168  0  -0.370533  -0.605603  0  2.160152  0
O  O316  1  0.06363643  0.60934138  0.47688313  1  -1.171142  0  -0.370607  -0.605591  0  2.16007  0
O  O317  1  0.43636483  0.60934221  0.02311729  1  -1.171086  0  -0.370577  -0.605577  0  2.160088  0
O  O318  1  0.56363309  0.89065750  0.52311677  1  -1.171424  0  -0.370562  -0.605598  0  2.160105  0
O  O319  1  0.93636892  0.89065776  0.97688305  1  -1.171691  0  -0.370548  -0.605591  0  2.160152  0
