# generated using pymatgen
data_KCuH10C16(SN)6
_symmetry_space_group_name_H-M   'P 1'
_cell_length_a   7.86328734
_cell_length_b   8.45862232
_cell_length_c   8.84066743
_cell_angle_alpha   79.01253197
_cell_angle_beta   77.21301889
_cell_angle_gamma   74.36470082
_symmetry_Int_Tables_number   1
_chemical_formula_structural   KCuH10C16(SN)6
_chemical_formula_sum   'K1 Cu1 H10 C16 S6 N6'
_cell_volume   546.81938650
_cell_formula_units_Z   1
loop_
 _symmetry_equiv_pos_site_id
 _symmetry_equiv_pos_as_xyz
  1  'x, y, z'
loop_
 _atom_site_type_symbol
 _atom_site_label
 _atom_site_symmetry_multiplicity
 _atom_site_fract_x
 _atom_site_fract_y
 _atom_site_fract_z
 _atom_site_occupancy
 _atom_site_hle17_bader_spin_density
 _atom_site_hle17_ddec_charge
 _atom_site_hle17_ddec_spin_density
 _atom_site_hle17_ddec_sum_bond_order
 _atom_site_hle17_magmom
 _atom_site_hse06_10hf_bader_spin_density
 _atom_site_hse06_10hf_ddec_charge
 _atom_site_hse06_10hf_ddec_spin_density
 _atom_site_hse06_10hf_ddec_sum_bond_order
 _atom_site_hse06_10hf_magmom
 _atom_site_hse06_bader_spin_density
 _atom_site_hse06_ddec_charge
 _atom_site_hse06_ddec_spin_density
 _atom_site_hse06_ddec_sum_bond_order
 _atom_site_hse06_magmom
 _atom_site_pbe_bader_spin_density
 _atom_site_pbe_cm5_charge
 _atom_site_pbe_ddec_charge
 _atom_site_pbe_ddec_spin_density
 _atom_site_pbe_ddec_sum_bond_order
 _atom_site_pbe_magmom
K  K0  1  0.49999264  0.00000231  0.99999330  1  0  0.85996  0  0.540477  0  0  0.784948  0  0.763349  0  0  0.797231  0  0.746501  0  0  0.744317  0.775909  0  0.775354  0
Cu  Cu1  1  0.49999777  0.00000130  0.50000338  1  0  0.417484  0  2.677077  0  0  0.393203  0  3.16135  0  0  0.413715  0  3.127559  0  0  0.510241  0.381048  0  3.184874  0
H  H2  1  0.09150813  0.87993271  0.99460609  1  0  0.122547  0  0.948028  0  0  0.135644  0  1.005249  0  0  0.139064  0  1.003178  0  0  0.108814  0.133227  0  1.006725  0
H  H3  1  0.90848973  0.12006277  0.00539857  1  0  0.122536  0  0.948016  0  0  0.135642  0  1.005238  0  0  0.139063  0  1.003162  0  0  0.108827  0.133225  0  1.006714  0
H  H4  1  0.52067250  0.41369826  0.72375937  1  0  0.115125  0  0.960623  0  0  0.126761  0  1.02206  0  0  0.129887  0  1.021037  0  0  0.100822  0.124515  0  1.022868  0
H  H5  1  0.47932672  0.58630334  0.27624299  1  0  0.115136  0  0.960569  0  0  0.126759  0  1.022025  0  0  0.129894  0  1.020993  0  0  0.100825  0.124512  0  1.022832  0
H  H6  1  0.20278586  0.61903475  0.47613774  1  0  0.150644  0  0.931696  0  0  0.167443  0  0.993666  0  0  0.168909  0  0.993641  0  0  0.105559  0.166407  0  0.993657  0
H  H7  1  0.79722524  0.38096641  0.52386025  1  0  0.150655  0  0.931786  0  0  0.167438  0  0.993741  0  0  0.168905  0  0.993715  0  0  0.105573  0.166408  0  0.993726  0
H  H8  1  0.97645699  0.71764717  0.45078489  1  0  0.1504  0  0.941417  0  0  0.164565  0  1.007849  0  0  0.166561  0  1.006873  0  0  0.104135  0.163145  0  1.008547  0
H  H9  1  0.02355100  0.28235674  0.54920873  1  0  0.150313  0  0.941431  0  0  0.164503  0  1.007839  0  0  0.166514  0  1.006851  0  0  0.104129  0.163082  0  1.008539  0
H  H10  1  0.07729196  0.78636522  0.58187430  1  0  0.144723  0  0.950614  0  0  0.160942  0  1.013551  0  0  0.161517  0  1.015148  0  0  0.105569  0.160529  0  1.012462  0
H  H11  1  0.92271210  0.21364495  0.41812023  1  0  0.144799  0  0.950534  0  0  0.160918  0  1.013555  0  0  0.161493  0  1.015154  0  0  0.105561  0.160504  0  1.012467  0
C  C12  1  0.29357768  0.81164797  0.79258228  1  0  0.039957  0  3.829665  0  0  0.055261  0  4.083149  0  0  0.057966  0  4.106464  0  0  -0.022266  0.05326  0  4.067275  0
C  C13  1  0.70642074  0.18835121  0.20742059  1  0  0.039859  0  3.829686  0  0  0.055176  0  4.083207  0  0  0.057882  0  4.106522  0  0  -0.022319  0.053174  0  4.067336  0
C  C14  1  0.41697963  0.67901732  0.71574847  1  0  0.050549  0  3.81751  0  0  0.064687  0  4.072836  0  0  0.067726  0  4.095986  0  0  -0.017375  0.062599  0  4.056881  0
C  C15  1  0.58301534  0.32097952  0.28425651  1  0  0.050607  0  3.817402  0  0  0.064664  0  4.072867  0  0  0.067701  0  4.096025  0  0  -0.017372  0.062576  0  4.056915  0
C  C16  1  0.18317453  0.78001483  0.93512561  1  0  -0.196301  0  3.718838  0  0  -0.222399  0  3.971833  0  0  -0.22595  0  3.989546  0  0  -0.102048  -0.219867  0  3.959847  0
C  C17  1  0.81682277  0.21997693  0.06488198  1  0  -0.196245  0  3.718856  0  0  -0.222381  0  3.971876  0  0  -0.225927  0  3.989586  0  0  -0.102026  -0.219847  0  3.959889  0
C  C18  1  0.42892572  0.51474630  0.78185545  1  0  -0.18193  0  3.675358  0  0  -0.206073  0  3.924871  0  0  -0.209713  0  3.942354  0  0  -0.101605  -0.203464  0  3.913005  0
C  C19  1  0.57107720  0.48525038  0.21814244  1  0  -0.181958  0  3.675296  0  0  -0.206053  0  3.924829  0  0  -0.209702  0  3.942312  0  0  -0.101597  -0.203445  0  3.912962  0
C  C20  1  0.31844117  0.48044830  0.92743457  1  0  0.191408  0  3.81446  0  0  0.186865  0  4.072064  0  0  0.191619  0  4.091614  0  0  0.100699  0.183596  0  4.058896  0
C  C21  1  0.68155650  0.51955467  0.07256561  1  0  0.191456  0  3.814565  0  0  0.186898  0  4.072159  0  0  0.191651  0  4.091711  0  0  0.100739  0.183633  0  4.058983  0
C  C22  1  0.19559800  0.61392938  0.00513294  1  0  0.165632  0  3.839017  0  0  0.163104  0  4.097969  0  0  0.166611  0  4.118782  0  0  0.096342  0.16067  0  4.083928  0
C  C23  1  0.80440228  0.38606738  0.99486655  1  0  0.165646  0  3.839032  0  0  0.163169  0  4.097927  0  0  0.166675  0  4.118741  0  0  0.096335  0.160732  0  4.083889  0
C  C24  1  0.16472797  0.85569479  0.34431651  1  0  0.422143  0  3.723757  0  0  0.411582  0  4.016835  0  0  0.424796  0  4.031891  0  0  0.200366  0.402426  0  4.006745  0
C  C25  1  0.83527576  0.14430431  0.65568088  1  0  0.422153  0  3.724046  0  0  0.41158  0  4.017087  0  0  0.42479  0  4.032147  0  0  0.200407  0.402425  0  4.007001  0
C  C26  1  0.10172401  0.73761378  0.47049603  1  0  -0.371639  0  3.743419  0  0  -0.441812  0  3.968794  0  0  -0.444588  0  3.973609  0  0  -0.214911  -0.439649  0  3.965398  0
C  C27  1  0.89827050  0.26239178  0.52950433  1  0  -0.371647  0  3.74348  0  0  -0.441708  0  3.968832  0  0  -0.444502  0  3.973635  0  0  -0.214921  -0.439547  0  3.96544  0
S  S28  1  0.28618416  0.01717827  0.70532255  1  0  -0.263007  0  2.261458  0  0  -0.253601  0  2.63661  0  0  -0.266248  0  2.630395  0  0  -0.177424  -0.244877  0  2.641132  0
S  S29  1  0.71381133  0.98282215  0.29468407  1  0  -0.262956  0  2.261412  0  0  -0.253528  0  2.636537  0  0  -0.26618  0  2.630322  0  0  -0.17738  -0.244804  0  2.64106  0
S  S30  1  0.55151560  0.72873960  0.53571330  1  0  -0.253711  0  2.265266  0  0  -0.254137  0  2.648862  0  0  -0.267134  0  2.643229  0  0  -0.158371  -0.245106  0  2.652874  0
S  S31  1  0.44847783  0.27126471  0.46428971  1  0  -0.25371  0  2.265258  0  0  -0.254101  0  2.648887  0  0  -0.267099  0  2.643257  0  0  -0.158373  -0.245061  0  2.65288  0
S  S32  1  0.16784783  0.36054258  0.16972302  1  0  0.453536  0  3.068075  0  0  0.444726  0  3.464519  0  0  0.45637  0  3.468746  0  0  0.381422  0.43586  0  3.462308  0
S  S33  1  0.83215165  0.63945177  0.83027699  1  0  0.453615  0  3.068079  0  0  0.444809  0  3.464537  0  0  0.456452  0  3.468763  0  0  0.381422  0.435944  0  3.462327  0
N  N34  1  0.31408011  0.32889415  0.01054083  1  0  -0.466382  0  2.942654  0  0  -0.427041  0  3.230846  0  0  -0.436464  0  3.241227  0  0  -0.409113  -0.420479  0  3.224072  0
N  N35  1  0.68592173  0.67110128  0.98945971  1  0  -0.466438  0  2.942744  0  0  -0.427109  0  3.230965  0  0  -0.436534  0  3.241348  0  0  -0.40913  -0.420548  0  3.224191  0
N  N36  1  0.10217418  0.56046091  0.14517563  1  0  -0.39245  0  2.850631  0  0  -0.363844  0  3.134211  0  0  -0.371294  0  3.144225  0  0  -0.316822  -0.358608  0  3.127616  0
N  N37  1  0.89782372  0.43953474  0.85482447  1  0  -0.392549  0  2.850784  0  0  -0.363953  0  3.134347  0  0  -0.371402  0  3.14436  0  0  -0.316831  -0.358716  0  3.127751  0
N  N38  1  0.21535181  0.95166102  0.24307302  1  0  -0.519989  0  2.641271  0  0  -0.501773  0  2.89674  0  0  -0.51513  0  2.906459  0  0  -0.411103  -0.492696  0  2.890464  0
N  N39  1  0.78466251  0.04833777  0.75691795  1  0  -0.519972  0  2.641464  0  0  -0.501772  0  2.896965  0  0  -0.515127  0  2.906685  0  0  -0.411116  -0.492695  0  2.89069  0
