# generated using pymatgen
data_CdH15C21S3N5O6
_symmetry_space_group_name_H-M   'P 1'
_cell_length_a   10.52108571
_cell_length_b   10.94678405
_cell_length_c   12.60100000
_cell_angle_alpha   95.83643616
_cell_angle_beta   114.43438250
_cell_angle_gamma   113.61796550
_symmetry_Int_Tables_number   1
_chemical_formula_structural   CdH15C21S3N5O6
_chemical_formula_sum   'Cd2 H30 C42 S6 N10 O12'
_cell_volume   1146.73250888
_cell_formula_units_Z   2
loop_
 _symmetry_equiv_pos_site_id
 _symmetry_equiv_pos_as_xyz
  1  'x, y, z'
loop_
 _atom_site_type_symbol
 _atom_site_label
 _atom_site_symmetry_multiplicity
 _atom_site_fract_x
 _atom_site_fract_y
 _atom_site_fract_z
 _atom_site_occupancy
 _atom_site_hle17_bader_spin_density
 _atom_site_hle17_ddec_charge
 _atom_site_hle17_ddec_spin_density
 _atom_site_hle17_ddec_sum_bond_order
 _atom_site_hle17_magmom
 _atom_site_hse06_10hf_bader_spin_density
 _atom_site_hse06_10hf_ddec_charge
 _atom_site_hse06_10hf_ddec_spin_density
 _atom_site_hse06_10hf_ddec_sum_bond_order
 _atom_site_hse06_10hf_magmom
 _atom_site_hse06_bader_spin_density
 _atom_site_hse06_ddec_charge
 _atom_site_hse06_ddec_spin_density
 _atom_site_hse06_ddec_sum_bond_order
 _atom_site_hse06_magmom
 _atom_site_pbe_bader_charge
 _atom_site_pbe_bader_spin_density
 _atom_site_pbe_cm5_charge
 _atom_site_pbe_ddec_charge
 _atom_site_pbe_ddec_spin_density
 _atom_site_pbe_ddec_sum_bond_order
 _atom_site_pbe_magmom
Cd  Cd0  1  0.42129089  0.85429439  0.06593555  1  0  1.164896  0  1.676816  0  0  0.967181  0  2.126056  0  0  1.025677  0  2.07371  0  1.301398  0  0.793171  0.926186  0  2.161271  0
Cd  Cd1  1  0.57870879  0.14570467  0.93406211  1  0  1.164906  0  1.676848  0  0  0.967185  0  2.126091  0  0  1.025681  0  2.073745  0  1.301429  0  0.793171  0.926189  0  2.161305  0
H  H2  1  0.82944734  0.86399913  0.09217099  1  0  0.134189  0  0.924271  0  0  0.151658  0  0.975685  0  0  0.153628  0  0.975349  0  0.102842  0  0.111003  0.15022  0  0.976151  0
H  H3  1  0.17055129  0.13599994  0.90783028  1  0  0.134203  0  0.924252  0  0  0.151672  0  0.975668  0  0  0.153642  0  0.975331  0  0.102845  0  0.111046  0.150235  0  0.976129  0
H  H4  1  0.79184119  0.82344766  0.93876216  1  0  0.12808  0  0.947632  0  0  0.139035  0  1.011628  0  0  0.141625  0  1.009713  0  0.094011  0  0.10875  0.137413  0  1.012698  0
H  H5  1  0.20815686  0.17655036  0.06123882  1  0  0.128082  0  0.9476  0  0  0.139023  0  1.011611  0  0  0.141614  0  1.009697  0  0.093983  0  0.108754  0.137401  0  1.012682  0
H  H6  1  0.71090838  0.90706835  0.71808679  1  0  0.146395  0  0.914273  0  0  0.159058  0  0.968577  0  0  0.162321  0  0.966428  0  0.11835  0  0.116889  0.156814  0  0.970188  0
H  H7  1  0.28909084  0.09293177  0.28191239  1  0  0.146406  0  0.914232  0  0  0.159059  0  0.96855  0  0  0.162321  0  0.966403  0  0.118345  0  0.116888  0.156815  0  0.970163  0
H  H8  1  0.67416819  0.96110751  0.58482111  1  0  0.143475  0  0.916228  0  0  0.158741  0  0.970708  0  0  0.161741  0  0.968913  0  0.105853  0  0.115346  0.15643  0  0.972544  0
H  H9  1  0.32583032  0.03888945  0.41517755  1  0  0.143485  0  0.916213  0  0  0.158763  0  0.970668  0  0  0.161765  0  0.968871  0  0.105839  0  0.115361  0.156453  0  0.972505  0
H  H10  1  0.19217494  0.24680231  0.74963085  1  0  0.133972  0  0.959512  0  0  0.13957  0  1.031378  0  0  0.143045  0  1.029281  0  0.141164  0  0.103345  0.137077  0  1.033015  0
H  H11  1  0.80782636  0.75319781  0.25037144  1  0  0.133993  0  0.959523  0  0  0.139588  0  1.031383  0  0  0.143063  0  1.029285  0  0.141185  0  0.10335  0.137096  0  1.033021  0
H  H12  1  0.01937343  0.08811835  0.63134392  1  0  0.139289  0  0.919347  0  0  0.153118  0  0.975339  0  0  0.156329  0  0.973234  0  0.097832  0  0.108643  0.150463  0  0.977626  0
H  H13  1  0.98062834  0.91188072  0.36865685  1  0  0.139282  0  0.919362  0  0  0.153108  0  0.975353  0  0  0.156317  0  0.973251  0  0.097802  0  0.108632  0.150453  0  0.977641  0
H  H14  1  0.25833397  0.82024573  0.76909248  1  0  0.089709  0  0.931681  0  0  0.096718  0  0.996912  0  0  0.099881  0  0.993588  0  0.122216  0  0.117074  0.094366  0  0.999383  0
H  H15  1  0.74166291  0.17975018  0.23090394  1  0  0.089708  0  0.931631  0  0  0.096677  0  0.996899  0  0  0.099839  0  0.993575  0  0.122169  0  0.11705  0.094324  0  0.999373  0
H  H16  1  0.03521637  0.63571370  0.56805247  1  0  0.090533  0  1.002444  0  0  0.096646  0  1.072461  0  0  0.09919  0  1.072682  0  0.062643  0  0.096391  0.094806  0  1.072414  0
H  H17  1  0.96478038  0.36428010  0.43194452  1  0  0.090524  0  1.002471  0  0  0.096645  0  1.072486  0  0  0.099189  0  1.072708  0  0.062554  0  0.096382  0.094804  0  1.072439  0
H  H18  1  0.88052816  0.38916085  0.56597880  1  0  0.103032  0  0.947825  0  0  0.111214  0  1.015198  0  0  0.11419  0  1.01277  0  0.095805  0  0.106529  0.109054  0  1.016858  0
H  H19  1  0.11946917  0.61083401  0.43401927  1  0  0.103025  0  0.947829  0  0  0.111178  0  1.015231  0  0  0.114155  0  1.012801  0  0.095852  0  0.106522  0.109026  0  1.016883  0
H  H20  1  0.83759825  0.22304677  0.68379516  1  0  0.102294  0  0.947229  0  0  0.113226  0  1.008328  0  0  0.115944  0  1.007598  0  0.090246  0  0.103876  0.1112  0  1.009109  0
H  H21  1  0.16240176  0.77694914  0.31620472  1  0  0.102289  0  0.947269  0  0  0.113224  0  1.008371  0  0  0.115943  0  1.00764  0  0.090243  0  0.103861  0.111196  0  1.009151  0
H  H22  1  0.90263200  0.18147219  0.88565780  1  0  0.118829  0  0.972478  0  0  0.126897  0  1.037101  0  0  0.130504  0  1.034864  0  0.150063  0  0.105881  0.124379  0  1.038437  0
H  H23  1  0.09736930  0.81852793  0.11434449  1  0  0.118928  0  0.97242  0  0  0.126964  0  1.037064  0  0  0.130568  0  1.034833  0  0.150091  0  0.105918  0.124447  0  1.0384  0
H  H24  1  0.06423358  0.27293457  0.11313149  1  0  0.122337  0  0.933281  0  0  0.135334  0  0.98753  0  0  0.13882  0  0.984584  0  0.140749  0  0.114727  0.132811  0  0.989729  0
H  H25  1  0.93576577  0.72706766  0.88686951  1  0  0.122343  0  0.933285  0  0  0.135341  0  0.987522  0  0  0.138826  0  0.984576  0  0.140377  0  0.114742  0.132818  0  0.989719  0
H  H26  1  0.28933165  0.47617084  0.30544046  1  0  0.107295  0  0.952812  0  0  0.114632  0  1.018407  0  0  0.117704  0  1.017524  0  0.098911  0  0.102572  0.11252  0  1.018988  0
H  H27  1  0.71066887  0.52383350  0.69456034  1  0  0.10724  0  0.952864  0  0  0.114618  0  1.018398  0  0  0.11769  0  1.017514  0  0.098896  0  0.102573  0.1125  0  1.018995  0
H  H28  1  0.43849961  0.70845394  0.28360308  1  0  0.0719  0  0.957318  0  0  0.078503  0  1.028525  0  0  0.080757  0  1.026052  0  0.091205  0  0.108866  0.076748  0  1.030465  0
H  H29  1  0.56150183  0.29154829  0.71639547  1  0  0.071902  0  0.957327  0  0  0.078494  0  1.028541  0  0  0.080747  0  1.026071  0  0.091234  0  0.108867  0.076739  0  1.030481  0
H  H30  1  0.30753182  0.94392213  0.59928805  1  0  0.396284  0  0.909695  0  0  0.363424  0  0.990937  0  0  0.377693  0  0.971466  0  0.642641  0  0.289687  0.353471  0  1.000958  0
H  H31  1  0.69247124  0.05608115  0.40071354  1  0  0.396284  0  0.909712  0  0  0.363422  0  0.990953  0  0  0.377692  0  0.971471  0  0.642659  0  0.289687  0.353471  0  1.000974  0
C  C32  1  0.48149720  0.60263235  0.80325476  1  0  0.38925  0  3.800647  0  0  0.370038  0  4.094306  0  0  0.391995  0  4.101838  0  0.985573  0  0.247272  0.355187  0  4.089809  0
C  C33  1  0.51850143  0.39736672  0.19674572  1  0  0.389231  0  3.800527  0  0  0.369932  0  4.094324  0  0  0.391887  0  4.101855  0  0.985592  0  0.247235  0.355082  0  4.089826  0
C  C34  1  0.45015716  0.62521427  0.61951727  1  0  0.384264  0  3.822482  0  0  0.366247  0  4.114636  0  0  0.387591  0  4.122185  0  1.004953  0  0.245869  0.351892  0  4.109156  0
C  C35  1  0.54984310  0.37478585  0.38048387  1  0  0.384261  0  3.822451  0  0  0.366238  0  4.114602  0  0  0.387582  0  4.122149  0  1.004953  0  0.245874  0.351882  0  4.109125  0
C  C36  1  0.29812102  0.41684986  0.62986849  1  0  0.37302  0  3.836415  0  0  0.354903  0  4.13076  0  0  0.375648  0  4.139889  0  1.00344  0  0.241256  0.340786  0  4.124675  0
C  C37  1  0.70188028  0.58315026  0.37013221  1  0  0.373158  0  3.836355  0  0  0.355016  0  4.130735  0  0  0.375761  0  4.139863  0  1.003242  0  0.241325  0.340898  0  4.124651  0
C  C38  1  0.73936549  0.83489019  0.99575686  1  0  -0.306612  0  3.655614  0  0  -0.339984  0  3.908622  0  0  -0.344186  0  3.913256  0  -0.123199  0  -0.151806  -0.337404  0  3.905531  0
C  C39  1  0.26063256  0.16510782  0.00424332  1  0  -0.306632  0  3.655633  0  0  -0.339995  0  3.908628  0  0  -0.344195  0  3.91326  0  -0.123201  0  -0.151872  -0.337416  0  3.905531  0
C  C40  1  0.70336566  0.95551202  0.98000406  1  0  0.715746  0  3.861922  0  0  0.667492  0  4.157753  0  0  0.701494  0  4.151805  0  1.605731  0  0.198978  0.644255  0  4.161295  0
C  C41  1  0.29663135  0.04448599  0.01999576  1  0  0.715639  0  3.862036  0  0  0.66741  0  4.157832  0  0  0.701412  0  4.151885  0  1.605739  0  0.198928  0.644186  0  4.161359  0
C  C42  1  0.61666572  0.89717732  0.63026045  1  0  -0.31339  0  3.636169  0  0  -0.34992  0  3.898456  0  0  -0.354086  0  3.901504  0  -0.14418  0  -0.145513  -0.347346  0  3.896817  0
C  C43  1  0.38333395  0.10282175  0.36973959  1  0  -0.313446  0  3.636159  0  0  -0.349961  0  3.898427  0  0  -0.35413  0  3.90148  0  -0.143979  0  -0.145525  -0.347376  0  3.896763  0
C  C44  1  0.52029131  0.95688774  0.65634257  1  0  0.72524  0  3.775644  0  0  0.675792  0  4.080436  0  0  0.70914  0  4.072149  0  1.587255  0  0.228967  0.653231  0  4.085257  0
C  C45  1  0.47970895  0.04311238  0.34365776  1  0  0.725236  0  3.775622  0  0  0.675784  0  4.080407  0  0  0.709133  0  4.07212  0  1.587263  0  0.228954  0.653224  0  4.08523  0
C  C46  1  0.14525797  0.16480784  0.66507892  1  0  -0.31265  0  3.610564  0  0  -0.347126  0  3.86409  0  0  -0.351939  0  3.867854  0  -0.156882  0  -0.154209  -0.34376  0  3.861659  0
C  C47  1  0.85474334  0.83519228  0.33492257  1  0  -0.312764  0  3.61075  0  0  -0.347168  0  3.86416  0  0  -0.351979  0  3.867921  0  -0.15691  0  -0.154233  -0.343806  0  3.861736  0
C  C48  1  0.24033900  0.08573216  0.68601801  1  0  0.726403  0  3.832251  0  0  0.679192  0  4.130647  0  0  0.713266  0  4.122519  0  1.601812  0  0.215677  0.656116  0  4.135223  0
C  C49  1  0.75966335  0.91426796  0.31398384  1  0  0.726412  0  3.832155  0  0  0.679175  0  4.130595  0  0  0.713248  0  4.122467  0  1.60183  0  0.215681  0.6561  0  4.135172  0
C  C50  1  0.18976784  0.71236636  0.76477367  1  0  0.165739  0  3.660252  0  0  0.133875  0  3.912903  0  0  0.142482  0  3.928811  0  0.48467  0  0.058363  0.128448  0  3.902037  0
C  C51  1  0.81022800  0.28762955  0.23522239  1  0  0.165677  0  3.660358  0  0  0.133879  0  3.912968  0  0  0.142488  0  3.928873  0  0.484446  0  0.058364  0.128451  0  3.902101  0
C  C52  1  0.06550112  0.60758997  0.65203426  1  0  -0.112988  0  3.721629  0  0  -0.125255  0  3.971992  0  0  -0.132545  0  3.994096  0  0.004612  0  -0.087142  -0.120553  0  3.956782  0
C  C53  1  0.93449459  0.39240383  0.34796316  1  0  -0.113044  0  3.72177  0  0  -0.125324  0  3.972083  0  0  -0.132618  0  3.994188  0  0.004771  0  -0.087182  -0.120624  0  3.956877  0
C  C54  1  0.98106850  0.47250156  0.65102517  1  0  -0.042717  0  3.676788  0  0  -0.06957  0  3.929528  0  0  -0.067547  0  3.948117  0  -0.047573  0  -0.063466  -0.070168  0  3.91654  0
C  C55  1  0.01892988  0.52749330  0.34897326  1  0  -0.042603  0  3.676808  0  0  -0.069416  0  3.929536  0  0  -0.067392  0  3.948123  0  -0.047824  0  -0.0634  -0.070021  0  3.916545  0
C  C56  1  0.02199049  0.44218743  0.76288408  1  0  0.02998  0  3.7918  0  0  0.046064  0  4.021596  0  0  0.043595  0  4.046582  0  0.030073  0  -0.001855  0.04737  0  4.005327  0
C  C57  1  0.97800952  0.55780848  0.23711501  1  0  0.029963  0  3.791856  0  0  0.046038  0  4.021651  0  0  0.043569  0  4.046636  0  0.030185  0  -0.00181  0.047346  0  4.005382  0
C  C58  1  0.93663840  0.30626538  0.76940380  1  0  -0.094266  0  3.730346  0  0  -0.114247  0  3.982115  0  0  -0.11848  0  4.006111  0  -0.061818  0  -0.083787  -0.11145  0  3.966232  0
C  C59  1  0.06336174  0.69373264  0.23059472  1  0  -0.094254  0  3.730475  0  0  -0.114241  0  3.982241  0  0  -0.118476  0  4.006239  0  -0.06186  0  -0.083787  -0.111442  0  3.966357  0
C  C60  1  0.97250712  0.28304454  0.87999455  1  0  -0.09194  0  3.707844  0  0  -0.117278  0  3.96318  0  0  -0.119948  0  3.985318  0  -0.025008  0  -0.084645  -0.115087  0  3.947907  0
C  C61  1  0.02749256  0.71695453  0.12000629  1  0  -0.09204  0  3.707934  0  0  -0.117351  0  3.963281  0  0  -0.120019  0  3.985412  0  -0.025035  0  -0.084676  -0.115163  0  3.948012  0
C  C62  1  0.09837372  0.39415847  0.99262695  1  0  0.025941  0  3.780574  0  0  0.04318  0  4.013  0  0  0.040314  0  4.037407  0  -0.035583  0  -0.00088  0.044823  0  3.996676  0
C  C63  1  0.90162712  0.60584270  0.00737289  1  0  0.025893  0  3.780597  0  0  0.043143  0  4.013036  0  0  0.040265  0  4.037433  0  -0.035945  0  -0.000892  0.044787  0  3.996711  0
C  C64  1  0.13555729  0.37535529  0.10906801  1  0  -0.037954  0  3.645793  0  0  -0.063178  0  3.892945  0  0  -0.060155  0  3.909484  0  -0.038042  0  -0.059744  -0.065157  0  3.882229  0
C  C65  1  0.86444251  0.62464588  0.89093226  1  0  -0.0379  0  3.645735  0  0  -0.063118  0  3.892877  0  0  -0.060096  0  3.909417  0  -0.037307  0  -0.05973  -0.065096  0  3.882159  0
C  C66  1  0.25863869  0.48698814  0.21430753  1  0  -0.115901  0  3.720954  0  0  -0.128433  0  3.976188  0  0  -0.136515  0  3.999282  0  0.016502  0  -0.085429  -0.123052  0  3.960897  0
C  C67  1  0.74136228  0.51301514  0.78569254  1  0  -0.11591  0  3.720894  0  0  -0.128474  0  3.976134  0  0  -0.136555  0  3.999229  0  0.016441  0  -0.085464  -0.123093  0  3.960837  0
C  C68  1  0.34276398  0.61722524  0.20278254  1  0  0.160127  0  3.695502  0  0  0.123803  0  3.955312  0  0  0.132629  0  3.973446  0  0.495144  0  0.055266  0.118007  0  3.942948  0
C  C69  1  0.65723583  0.38277594  0.79721694  1  0  0.160132  0  3.69545  0  0  0.123814  0  3.955262  0  0  0.132639  0  3.9734  0  0.49514  0  0.055278  0.118018  0  3.942895  0
C  C70  1  0.18844340  0.52994895  0.98983953  1  0  0.125899  0  3.765406  0  0  0.116416  0  4.004952  0  0  0.1212  0  4.027513  0  0.495773  0  0.11443  0.113508  0  3.989618  0
C  C71  1  0.81155686  0.47005117  0.01016002  1  0  0.125931  0  3.765455  0  0  0.11639  0  4.005059  0  0  0.121221  0  4.027558  0  0.495778  0  0.11443  0.113484  0  3.989723  0
C  C72  1  0.14818623  0.55484443  0.87273226  1  0  0.131968  0  3.758074  0  0  0.12513  0  3.995411  0  0  0.12935  0  4.017493  0  0.496063  0  0.117041  0.121787  0  3.981743  0
C  C73  1  0.85181287  0.44515358  0.12726590  1  0  0.131944  0  3.758002  0  0  0.125129  0  3.995348  0  0  0.129334  0  4.017416  0  0.496018  0  0.117005  0.121781  0  3.981682  0
S  S74  1  0.57793389  0.66519525  0.96335879  1  0  0.071895  0  2.429133  0  0  0.055273  0  2.792009  0  0  0.051954  0  2.789487  0  0.183745  0  0.061379  0.058057  0  2.793985  0
S  S75  1  0.42206428  0.33480487  0.03664242  1  0  0.071914  0  2.429112  0  0  0.055316  0  2.792013  0  0  0.051996  0  2.789496  0  0.183764  0  0.061413  0.058099  0  2.793987  0
S  S76  1  0.50322853  0.71968911  0.52733378  1  0  0.059764  0  2.39263  0  0  0.048396  0  2.742794  0  0  0.045124  0  2.738033  0  0.156889  0  0.057445  0.050978  0  2.746074  0
S  S77  1  0.49677115  0.28030995  0.47266706  1  0  0.059768  0  2.392599  0  0  0.048394  0  2.74277  0  0  0.045124  0  2.738009  0  0.156677  0  0.057428  0.050977  0  2.746048  0
S  S78  1  0.14279426  0.24405825  0.54578575  1  0  0.057079  0  2.385003  0  0  0.050417  0  2.722454  0  0  0.046553  0  2.719475  0  0.155682  0  0.054265  0.053429  0  2.724397  0
S  S79  1  0.85720647  0.75594082  0.45421545  1  0  0.05708  0  2.38503  0  0  0.050414  0  2.722466  0  0  0.046549  0  2.719486  0  0.155724  0  0.054286  0.053427  0  2.72441  0
N  N80  1  0.52646729  0.68820031  0.74150758  1  0  -0.462129  0  3.029866  0  0  -0.423278  0  3.294535  0  0  -0.443027  0  3.305633  0  -1.20879  0  -0.325914  -0.410466  0  3.287149  0
N  N81  1  0.47353088  0.31179981  0.25849363  1  0  -0.462071  0  3.029792  0  0  -0.423201  0  3.294518  0  0  -0.442949  0  3.305616  0  -1.208785  0  -0.325881  -0.410391  0  3.287133  0
N  N82  1  0.33563945  0.49046795  0.55777116  1  0  -0.482165  0  3.024419  0  0  -0.452297  0  3.303868  0  0  -0.469853  0  3.3114  0  -1.196645  0  -0.335767  -0.440703  0  3.298812  0
N  N83  1  0.66436023  0.50953112  0.44222968  1  0  -0.48222  0  3.0244  0  0  -0.452341  0  3.303866  0  0  -0.469896  0  3.311397  0  -1.196494  0  -0.335775  -0.440745  0  3.298808  0
N  N84  1  0.36620587  0.46636611  0.75237853  1  0  -0.467118  0  3.020768  0  0  -0.434162  0  3.294057  0  0  -0.452347  0  3.303679  0  -1.216914  0  -0.330792  -0.422529  0  3.288629  0
N  N85  1  0.63379381  0.53363296  0.24762231  1  0  -0.467154  0  3.020731  0  0  -0.43416  0  3.294052  0  0  -0.452351  0  3.303693  0  -1.216878  0  -0.330831  -0.422527  0  3.288624  0
N  N86  1  0.22861698  0.68636672  0.87135503  1  0  -0.368249  0  3.304931  0  0  -0.298825  0  3.569791  0  0  -0.318486  0  3.588867  0  -1.208084  0  -0.3262  -0.285694  0  3.557534  0
N  N87  1  0.77138095  0.31362919  0.12864175  1  0  -0.368201  0  3.30485  0  0  -0.298802  0  3.569704  0  0  -0.318461  0  3.588777  0  -1.207691  0  -0.326199  -0.285666  0  3.557444  0
N  N88  1  0.30801193  0.63810831  0.09437634  1  0  -0.362839  0  3.276733  0  0  -0.290326  0  3.544329  0  0  -0.311387  0  3.563817  0  -1.226361  0  -0.32423  -0.275726  0  3.530032  0
N  N89  1  0.69198892  0.36189287  0.90562350  1  0  -0.362835  0  3.276759  0  0  -0.290301  0  3.544362  0  0  -0.311376  0  3.563837  0  -1.226346  0  -0.324231  -0.275708  0  3.530084  0
O  O90  1  0.56011460  0.93381531  0.94637112  1  0  -0.689796  0  2.088689  0  0  -0.603859  0  2.348796  0  0  -0.638605  0  2.340081  0  -1.156734  0  -0.337074  -0.579871  0  2.354117  0
O  O91  1  0.43988240  0.06618270  0.05362711  1  0  -0.689766  0  2.088731  0  0  -0.60383  0  2.348812  0  0  -0.638578  0  2.340098  0  -1.156701  0  -0.337064  -0.579847  0  2.354129  0
O  O92  1  0.81618863  0.07126663  0.99964529  1  0  -0.616716  0  1.914808  0  0  -0.570295  0  2.142552  0  0  -0.595992  0  2.134102  0  -1.186179  0  -0.320893  -0.552158  0  2.147418  0
O  O93  1  0.18380838  0.92873138  0.00035453  1  0  -0.616678  0  1.914847  0  0  -0.570256  0  2.142571  0  0  -0.595953  0  2.134123  0  -1.186251  0  -0.320858  -0.55213  0  2.147443  0
O  O94  1  0.36459095  0.88371910  0.58529618  1  0  -0.576482  0  2.082748  0  0  -0.524833  0  2.308656  0  0  -0.549132  0  2.292707  0  -1.17862  0  -0.329695  -0.50792  0  2.316697  0
O  O95  1  0.63541094  0.11628207  0.41470481  1  0  -0.576507  0  2.082713  0  0  -0.524863  0  2.308643  0  0  -0.549163  0  2.292683  0  -1.17867  0  -0.32972  -0.507952  0  2.316681  0
O  O96  1  0.59303864  0.07100875  0.73876692  1  0  -0.601017  0  1.986165  0  0  -0.548555  0  2.23254  0  0  -0.573069  0  2.2239  0  -1.177106  0  -0.298653  -0.53111  0  2.237752  0
O  O97  1  0.40696163  0.92899137  0.26123342  1  0  -0.600963  0  1.986112  0  0  -0.548522  0  2.232516  0  0  -0.573027  0  2.223859  0  -1.177092  0  -0.298624  -0.531078  0  2.237727  0
O  O98  1  0.32103124  0.09161289  0.79555165  1  0  -0.653896  0  2.02931  0  0  -0.585599  0  2.285757  0  0  -0.613986  0  2.273633  0  -1.194681  0  -0.329708  -0.565437  0  2.293207  0
O  O99  1  0.67896949  0.90838618  0.20445034  1  0  -0.653861  0  2.029234  0  0  -0.585581  0  2.285715  0  0  -0.613967  0  2.273593  0  -1.19467  0  -0.329721  -0.565419  0  2.293165  0
O  O100  1  0.22459201  0.01536863  0.59003054  1  0  -0.625991  0  2.036322  0  0  -0.574143  0  2.267305  0  0  -0.600091  0  2.255884  0  -1.18143  0  -0.321546  -0.55623  0  2.27375  0
O  O101  1  0.77541209  0.98463464  0.40997220  1  0  -0.626001  0  2.036251  0  0  -0.574138  0  2.267241  0  0  -0.600088  0  2.25582  0  -1.181447  0  -0.321544  -0.55622  0  2.273675  0
