# generated using pymatgen
data_CuAg2H6WC10N4(O3F2)2
_symmetry_space_group_name_H-M   'P 1'
_cell_length_a   7.30206341
_cell_length_b   8.20934733
_cell_length_c   13.84543437
_cell_angle_alpha   89.99783643
_cell_angle_beta   93.55365781
_cell_angle_gamma   89.99970296
_symmetry_Int_Tables_number   1
_chemical_formula_structural   CuAg2H6WC10N4(O3F2)2
_chemical_formula_sum   'Cu2 Ag4 H12 W2 C20 N8 O12 F8'
_cell_volume   828.37111233
_cell_formula_units_Z   2
loop_
 _symmetry_equiv_pos_site_id
 _symmetry_equiv_pos_as_xyz
  1  'x, y, z'
loop_
 _atom_site_type_symbol
 _atom_site_label
 _atom_site_symmetry_multiplicity
 _atom_site_fract_x
 _atom_site_fract_y
 _atom_site_fract_z
 _atom_site_occupancy
 _atom_site_hle17_ddec_charge
 _atom_site_hle17_ddec_spin_density
 _atom_site_hle17_ddec_sum_bond_order
 _atom_site_hle17_magmom
 _atom_site_hse06_10hf_ddec_charge
 _atom_site_hse06_10hf_ddec_spin_density
 _atom_site_hse06_10hf_ddec_sum_bond_order
 _atom_site_hse06_10hf_magmom
 _atom_site_hse06_ddec_charge
 _atom_site_hse06_ddec_spin_density
 _atom_site_hse06_ddec_sum_bond_order
 _atom_site_hse06_magmom
 _atom_site_pbe_cm5_charge
 _atom_site_pbe_ddec_charge
 _atom_site_pbe_ddec_spin_density
 _atom_site_pbe_ddec_sum_bond_order
 _atom_site_pbe_magmom
Cu  Cu0  1  0.99999959  0.00001493  0.99999744  1  0.872959  0.727992  1.86006  0.51  0.86368  0.811357  2.247766  0.624  0.945549  0.889433  2.18218  0.71  0.757621  0.813148  0.745594  2.294148  0.562
Cu  Cu1  1  0.50000162  0.49999484  0.50000146  1  0.87294  -0.727986  1.860183  -0.51  0.863703  -0.811359  2.2478  -0.624  0.945515  -0.889434  2.182292  -0.71  0.757607  0.813181  -0.745582  2.29414  -0.562
Ag  Ag2  1  0.54487284  0.31118344  0.99132993  1  0.686613  0.009084  1.297487  0.005  0.569348  0.00356  1.734002  0.002  0.598592  0.001108  1.680655  0.0  0.452401  0.551503  0.009427  1.770716  0.006
Ag  Ag3  1  0.95514738  0.81118763  0.50868286  1  0.686634  -0.009094  1.29752  -0.005  0.569406  -0.003565  1.733962  -0.002  0.598644  -0.001109  1.680618  0.0  0.452433  0.55157  -0.009442  1.770678  -0.006
Ag  Ag4  1  0.45514552  0.68880259  0.00866992  1  0.686654  0.009083  1.297464  0.005  0.569427  0.003561  1.73393  0.002  0.598671  0.001109  1.680582  0.0  0.452422  0.551585  0.009429  1.770646  0.006
Ag  Ag5  1  0.04485862  0.18881058  0.49131727  1  0.686657  -0.009089  1.297471  -0.005  0.569426  -0.003562  1.733925  -0.002  0.598666  -0.001108  1.68058  0.0  0.452432  0.55159  -0.009435  1.77064  -0.006
H  H6  1  0.30433484  0.20743012  0.30319953  1  0.113508  0.000812  0.936008  0.001  0.117425  0.000668  1.003085  0.001  0.120517  0.000427  1.000319  0.001  0.121766  0.115105  0.000889  1.005197  0.001
H  H7  1  0.19563756  0.70745398  0.19678829  1  0.113729  -0.000813  0.935897  -0.001  0.117552  -0.000668  1.00303  -0.001  0.12065  -0.000427  1.000262  -0.001  0.121831  0.115228  -0.000889  1.005142  -0.001
H  H8  1  0.69566021  0.79256444  0.69679805  1  0.113473  0.000812  0.93606  0.001  0.117383  0.000668  1.003146  0.001  0.120477  0.000427  1.00038  0.001  0.121768  0.115063  0.000889  1.005259  0.001
H  H9  1  0.80436709  0.29253205  0.80320890  1  0.113699  -0.000813  0.935951  -0.001  0.117491  -0.000668  1.003106  -0.001  0.120588  -0.000427  1.000336  -0.001  0.121832  0.11517  -0.000889  1.005218  -0.001
H  H10  1  0.75473702  0.09663492  0.33487928  1  0.110502  0.000574  0.959553  0.001  0.112859  0.000476  1.027078  0.001  0.116667  0.000329  1.023164  0.0  0.120957  0.1099  0.000607  1.030164  0.001
H  H11  1  0.74526127  0.59663012  0.16511777  1  0.110535  -0.000576  0.959615  -0.001  0.11289  -0.000476  1.027122  -0.001  0.116699  -0.000329  1.023209  0.0  0.120993  0.109927  -0.000607  1.030213  -0.001
H  H12  1  0.24526074  0.90336694  0.66512201  1  0.110549  0.000577  0.959516  0.001  0.11291  0.000476  1.027025  0.001  0.116719  0.000329  1.023109  0.0  0.121002  0.109953  0.000607  1.030109  0.001
H  H13  1  0.25475292  0.40334128  0.83488843  1  0.110509  -0.000576  0.959598  -0.001  0.112911  -0.000476  1.027071  -0.001  0.116719  -0.000329  1.023155  0.0  0.120984  0.109947  -0.000607  1.030164  -0.001
H  H14  1  0.72275236  0.99904112  0.16033346  1  0.116703  0.001022  0.926234  0.002  0.123102  0.00087  0.987422  0.002  0.126156  0.000643  0.985185  0.001  0.131949  0.120619  0.001044  0.989465  0.002
H  H15  1  0.77723126  0.49902238  0.33966701  1  0.116664  -0.001022  0.926299  -0.002  0.123103  -0.00087  0.987466  -0.002  0.126152  -0.000643  0.985231  -0.001  0.131952  0.120622  -0.001044  0.989503  -0.002
H  H16  1  0.27723582  0.00098267  0.83966460  1  0.116579  0.001023  0.926333  0.002  0.123041  0.00087  0.987498  0.002  0.126093  0.000643  0.985264  0.001  0.131908  0.120558  0.001044  0.989537  0.002
H  H17  1  0.22277602  0.50096243  0.66034400  1  0.116541  -0.001019  0.92645  -0.002  0.123015  -0.00087  0.987552  -0.002  0.126066  -0.000643  0.985316  -0.001  0.131923  0.120531  -0.001044  0.989598  -0.002
W  W18  1  0.00000733  0.50000686  0.00000113  1  2.470701  -0.001736  4.217937  -0.002  2.483472  -0.00102  4.749372  -0.001  2.596297  -0.000617  4.682211  -0.001  1.569745  2.407049  -0.001471  4.792478  -0.002
W  W19  1  0.49999571  0.00000016  0.49999533  1  2.470613  0.001722  4.218116  0.002  2.483414  0.001018  4.749536  0.001  2.596242  0.000613  4.682362  0.001  1.56969  2.406993  0.00147  4.792648  0.002
C  C20  1  0.30533353  0.11947199  0.10606235  1  0.611794  -0.003441  3.91085  -0.006  0.563215  0.000773  4.210649  -0.001  0.599828  0.000497  4.206102  -0.001  0.207967  0.538198  0.001132  4.213459  -0.001
C  C21  1  0.19462861  0.61947729  0.39393503  1  0.612048  0.003441  3.910587  0.006  0.563311  -0.00077  4.210642  0.001  0.599924  -0.000498  4.206089  0.001  0.208003  0.538288  -0.001133  4.213461  0.001
C  C22  1  0.69464506  0.88052865  0.89393321  1  0.611997  -0.003441  3.910993  -0.006  0.563328  0.000772  4.21101  -0.001  0.599941  0.000497  4.206459  -0.001  0.207904  0.538307  0.001133  4.213824  -0.001
C  C23  1  0.80535819  0.38053066  0.60606442  1  0.611944  0.003442  3.91067  0.006  0.563268  -0.000769  4.210687  0.001  0.599883  -0.000498  4.206127  0.001  0.207941  0.538246  -0.001133  4.213509  0.001
C  C24  1  0.85208443  0.04414172  0.19335415  1  0.117888  -0.006328  3.593906  -0.007  0.091819  -0.000716  3.846321  -0.001  0.097806  -0.00188  3.860396  -0.003  0.074339  0.087379  0.000233  3.838493  0.0
C  C25  1  0.64790882  0.54414178  0.30664607  1  0.117913  0.006338  3.594023  0.007  0.091779  0.000717  3.846427  0.001  0.097772  0.001882  3.860497  0.003  0.074315  0.087338  -0.000231  3.838601  0.0
C  C26  1  0.14790376  0.95588451  0.80664319  1  0.118036  -0.006345  3.593919  -0.007  0.091834  -0.000718  3.846388  -0.001  0.09782  -0.001883  3.860465  -0.003  0.074328  0.087396  0.000232  3.838562  0.0
C  C27  1  0.35209575  0.45584181  0.69336123  1  0.118338  0.006332  3.593822  0.007  0.092243  0.00072  3.846148  0.001  0.098234  0.001882  3.860219  0.003  0.074589  0.0878  -0.000231  3.83832  0.0
C  C28  1  0.17411295  0.16145575  0.27183451  1  0.115758  0.006149  3.601214  0.006  0.075634  0.002415  3.85302  0.002  0.081058  0.002536  3.866549  0.002  0.073142  0.071547  0.002316  3.844999  0.002
C  C29  1  0.32587208  0.66148925  0.22816851  1  0.115301  -0.006158  3.601317  -0.006  0.075289  -0.002414  3.853172  -0.002  0.080697  -0.002538  3.866719  -0.002  0.07301  0.071212  -0.002316  3.84514  -0.002
C  C30  1  0.82587797  0.83855220  0.72816292  1  0.115802  0.00617  3.601351  0.006  0.075697  0.002415  3.853303  0.002  0.081113  0.002539  3.866844  0.002  0.073092  0.07161  0.002316  3.845277  0.002
C  C31  1  0.67413802  0.33849800  0.77183321  1  0.115124  -0.00616  3.601123  -0.006  0.075193  -0.002413  3.852911  -0.002  0.080608  -0.002537  3.86645  -0.002  0.072933  0.071113  -0.002316  3.844882  -0.002
C  C32  1  0.86963922  0.10052561  0.28841243  1  0.106449  0.008802  3.600599  0.009  0.07824  0.003926  3.847486  0.005  0.082851  0.003678  3.859979  0.004  0.069396  0.074668  0.00402  3.840276  0.005
C  C33  1  0.63035221  0.60051472  0.21157923  1  0.106497  -0.008812  3.600571  -0.009  0.078323  -0.003927  3.84744  -0.005  0.082932  -0.003679  3.859933  -0.004  0.069414  0.074759  -0.004021  3.840216  -0.005
C  C34  1  0.13035717  0.89948234  0.71158736  1  0.106417  0.008814  3.60043  0.009  0.078251  0.003928  3.847322  0.005  0.082865  0.00368  3.85981  0.004  0.069361  0.074681  0.004021  3.840109  0.005
C  C35  1  0.36966335  0.39946887  0.78842702  1  0.106455  -0.008813  3.600596  -0.009  0.078185  -0.003928  3.847502  -0.005  0.082797  -0.003678  3.859994  -0.004  0.069372  0.074618  -0.00402  3.840284  -0.005
C  C36  1  0.15750111  0.10716581  0.17645975  1  0.06908  -0.005576  3.693751  -0.006  0.075806  -0.000781  3.939386  -0.001  0.075394  -0.001728  3.956983  -0.002  0.122045  0.075433  -7.5e-05  3.928901  -0.001
C  C37  1  0.34247759  0.60717372  0.32353922  1  0.069345  0.005589  3.693237  0.006  0.076028  0.000778  3.939017  0.001  0.075617  0.00173  3.95662  0.003  0.122174  0.075659  7.4e-05  3.928527  0.001
C  C38  1  0.84248433  0.89284579  0.82353750  1  0.069031  -0.005593  3.693586  -0.006  0.075601  -0.000779  3.939566  -0.001  0.075192  -0.00173  3.957167  -0.003  0.122183  0.075236  -7.4e-05  3.929078  -0.001
C  C39  1  0.65752564  0.39282815  0.67646443  1  0.069639  0.005584  3.693052  0.006  0.076231  0.000777  3.93889  0.001  0.075819  0.001729  3.95649  0.003  0.12224  0.075861  7.4e-05  3.928404  0.001
N  N40  1  0.99619157  0.04937011  0.13842478  1  -0.258875  0.06935  3.34318  0.085  -0.223314  0.049146  3.632256  0.064  -0.245631  0.041824  3.650464  0.057  -0.334601  -0.21124  0.051744  3.623049  0.065
N  N41  1  0.50379891  0.54937342  0.36157306  1  -0.25902  -0.069374  3.342988  -0.085  -0.22341  -0.049153  3.632086  -0.064  -0.245718  -0.041831  3.65029  -0.057  -0.334653  -0.211338  -0.051752  3.62288  -0.065
N  N42  1  0.00379526  0.95065002  0.86157107  1  -0.25895  0.069379  3.343068  0.085  -0.223286  0.049153  3.632247  0.064  -0.245606  0.04183  3.650458  0.057  -0.334664  -0.211215  0.051752  3.62304  0.065
N  N43  1  0.49620569  0.45061870  0.63843064  1  -0.259402  -0.069363  3.34295  -0.085  -0.223813  -0.049149  3.63213  -0.064  -0.246119  -0.041827  3.650327  -0.057  -0.334815  -0.211741  -0.051747  3.622927  -0.065
N  N44  1  0.02969158  0.15926534  0.32737757  1  -0.247157  -0.006121  3.21567  -0.007  -0.17972  -0.002093  3.502272  -0.003  -0.191531  -0.002406  3.51203  -0.003  -0.305049  -0.172448  -0.001925  3.496685  -0.002
N  N45  1  0.47029896  0.65927492  0.17262642  1  -0.247136  0.00613  3.21565  0.007  -0.179713  0.002093  3.502215  0.003  -0.191522  0.002407  3.511981  0.003  -0.305044  -0.172441  0.001925  3.496624  0.002
N  N46  1  0.97030342  0.84073531  0.67262434  1  -0.247151  -0.006138  3.215642  -0.007  -0.179683  -0.002094  3.502203  -0.003  -0.191492  -0.002408  3.511965  -0.003  -0.305017  -0.172412  -0.001926  3.496618  -0.002
N  N47  1  0.52970976  0.34070623  0.82737670  1  -0.247049  0.006135  3.215566  0.007  -0.179613  0.002093  3.50211  0.003  -0.191423  0.002405  3.511873  0.003  -0.305074  -0.172342  0.001924  3.496518  0.002
O  O48  1  0.26269203  0.06273701  0.02079504  1  -0.594052  0.088933  2.067961  0.117  -0.574449  0.060613  2.372074  0.087  -0.614832  0.047203  2.359233  0.071  -0.317508  -0.548785  0.067728  2.381786  0.094
O  O49  1  0.23730079  0.56272943  0.47920542  1  -0.594225  -0.088948  2.067626  -0.117  -0.574584  -0.060619  2.371827  -0.087  -0.614955  -0.047203  2.358978  -0.071  -0.317592  -0.548921  -0.067734  2.381544  -0.094
O  O50  1  0.73730167  0.93727581  0.97919960  1  -0.594157  0.088949  2.067654  0.117  -0.574527  0.060618  2.371841  0.087  -0.61491  0.047203  2.358989  0.071  -0.317527  -0.548865  0.067736  2.381562  0.094
O  O51  1  0.76269146  0.43726268  0.52079712  1  -0.594151  -0.088916  2.067954  -0.117  -0.574536  -0.060607  2.372177  -0.087  -0.614901  -0.047196  2.359323  -0.071  -0.317537  -0.548877  -0.067718  2.381899  -0.094
O  O52  1  0.45463031  0.18790627  0.13122914  1  -0.55612  0.019804  1.987936  0.025  -0.501  0.0096  2.234943  0.013  -0.533036  0.00481  2.226908  0.007  -0.299715  -0.478003  0.014492  2.239393  0.019
O  O53  1  0.04535179  0.68792721  0.36876885  1  -0.556204  -0.019788  1.988088  -0.025  -0.501021  -0.009597  2.235168  -0.013  -0.53305  -0.004809  2.227126  -0.007  -0.299719  -0.478028  -0.014486  2.239625  -0.019
O  O54  1  0.54536610  0.81208950  0.86876993  1  -0.556099  0.019791  1.988273  0.025  -0.500929  0.009598  2.235329  0.013  -0.53296  0.004811  2.22729  0.007  -0.299645  -0.477936  0.014489  2.239785  0.019
O  O55  1  0.95465557  0.31207586  0.63123278  1  -0.556211  -0.019802  1.987797  -0.025  -0.501049  -0.0096  2.234864  -0.013  -0.533085  -0.00481  2.226821  -0.007  -0.299695  -0.47805  -0.01449  2.239322  -0.019
O  O56  1  0.24751984  0.46980199  0.99310053  1  -0.945252  0.000495  1.731162  0.001  -0.93163  2.3e-05  2.059608  0.0  -0.968473  -1.1e-05  2.038699  0.0  -0.598231  -0.905636  0.000309  2.073043  0.0
O  O57  1  0.25248365  0.96978890  0.50690517  1  -0.945327  -0.000494  1.731212  -0.001  -0.93164  -2.4e-05  2.05951  0.0  -0.968486  1.2e-05  2.038601  0.0  -0.59825  -0.905652  -0.000309  2.072958  0.0
O  O58  1  0.75249164  0.53019012  0.00690124  1  -0.945286  0.000499  1.731274  0.001  -0.931566  2.5e-05  2.059522  0.0  -0.968409  -1.2e-05  2.038614  0.0  -0.59825  -0.905579  0.000309  2.072974  0.0
O  O59  1  0.74751275  0.03019591  0.49309463  1  -0.945215  -0.000494  1.731168  -0.001  -0.931523  -2.5e-05  2.059457  0.0  -0.968369  1.2e-05  2.038549  0.0  -0.598151  -0.905527  -0.00031  2.072888  0.0
F  F60  1  0.04707710  0.71951596  0.04895271  1  -0.573385  -0.001284  0.952465  0.0  -0.55733  -0.001174  1.166496  0.0  -0.579787  -0.001224  1.144018  0.0  -0.337629  -0.541245  -0.001051  1.181858  0.0
F  F61  1  0.45289516  0.21950282  0.45103844  1  -0.573364  0.001283  0.952463  0.0  -0.557324  0.001174  1.166497  0.0  -0.579772  0.001224  1.144015  0.0  -0.337647  -0.541241  0.001051  1.181856  0.0
F  F62  1  0.95295372  0.28050417  0.95103457  1  -0.573369  -0.001283  0.952458  0.0  -0.557308  -0.001174  1.166495  0.0  -0.579765  -0.001224  1.144016  0.0  -0.337638  -0.541225  -0.001051  1.181856  0.0
F  F63  1  0.54708344  0.78050270  0.54895639  1  -0.573342  0.001283  0.952498  0.0  -0.557299  0.001174  1.166527  0.0  -0.579748  0.001225  1.144046  0.0  -0.337656  -0.541216  0.001051  1.181886  0.0
F  F64  1  0.01410411  0.42302211  0.13215283  1  -0.545282  -0.000119  0.851809  0.0  -0.513631  -0.000102  1.015878  0.0  -0.536552  -7.1e-05  1.002201  0.0  -0.344911  -0.497149  -0.00014  1.024896  0.0
F  F65  1  0.48589230  0.92301563  0.36784831  1  -0.545264  0.000119  0.851912  0.0  -0.513662  0.000102  1.01604  0.0  -0.536582  7.1e-05  1.002359  0.0  -0.344917  -0.497179  0.00014  1.025059  0.0
F  F66  1  0.98590458  0.57700411  0.86785389  1  -0.545331  -0.000119  0.851982  0.0  -0.513648  -0.000102  1.016009  0.0  -0.53657  -7.1e-05  1.002332  0.0  -0.344924  -0.497163  -0.00014  1.025023  0.0
F  F67  1  0.51410278  0.07697527  0.63214566  1  -0.545243  0.00012  0.851871  0.0  -0.513624  0.000102  1.015977  0.0  -0.536547  7.1e-05  1.0023  0.0  -0.344909  -0.497138  0.00014  1.024991  0.0
