# generated using pymatgen
data_Dy2H20C24N2O17
_symmetry_space_group_name_H-M   'P 1'
_cell_length_a   8.53382573
_cell_length_b   15.54019131
_cell_length_c   28.06625782
_cell_angle_alpha   90.00019341
_cell_angle_beta   89.99995493
_cell_angle_gamma   89.99959571
_symmetry_Int_Tables_number   1
_chemical_formula_structural   Dy2H20C24N2O17
_chemical_formula_sum   'Dy8 H80 C96 N8 O68'
_cell_volume   3722.07089685
_cell_formula_units_Z   4
loop_
 _symmetry_equiv_pos_site_id
 _symmetry_equiv_pos_as_xyz
  1  'x, y, z'
loop_
 _atom_site_type_symbol
 _atom_site_label
 _atom_site_symmetry_multiplicity
 _atom_site_fract_x
 _atom_site_fract_y
 _atom_site_fract_z
 _atom_site_occupancy
 _atom_site_pbe_bader_charge
 _atom_site_pbe_bader_spin_density
 _atom_site_pbe_cm5_charge
 _atom_site_pbe_ddec_charge
 _atom_site_pbe_ddec_spin_density
 _atom_site_pbe_ddec_sum_bond_order
 _atom_site_pbe_magmom
Dy  Dy0  1  0.05161011  0.79582920  0.41333621  1  2.199428  0  1.5335  2.117992  0  2.147766  0
Dy  Dy1  1  0.44839412  0.29583061  0.58666411  1  2.199389  0  1.533546  2.11808  0  2.147829  0
Dy  Dy2  1  0.55159087  0.70417264  0.08666159  1  2.199248  0  1.53351  2.118059  0  2.147838  0
Dy  Dy3  1  0.94839395  0.20417862  0.91334094  1  2.19924  0  1.533542  2.118088  0  2.147827  0
Dy  Dy4  1  0.94839789  0.20417247  0.58666325  1  2.199284  0  1.533567  2.118138  0  2.147814  0
Dy  Dy5  1  0.55160685  0.70417042  0.41333820  1  2.199168  0  1.533489  2.118008  0  2.147917  0
Dy  Dy6  1  0.44839136  0.29583547  0.91333609  1  2.199385  0  1.533531  2.118043  0  2.147883  0
Dy  Dy7  1  0.05161405  0.79583078  0.08666210  1  2.199321  0  1.533551  2.11803  0  2.147864  0
H  H8  1  0.13638894  0.62865325  0.54779572  1  0.106902  0  0.113873  0.13923  0  1.005758  0
H  H9  1  0.36362331  0.12866125  0.45220108  1  0.106915  0  0.113871  0.139282  0  1.005617  0
H  H10  1  0.63638651  0.87134423  0.95220820  1  0.10646  0  0.113885  0.13926  0  1.005742  0
H  H11  1  0.86362310  0.37134590  0.04779963  1  0.107068  0  0.113857  0.139301  0  1.005735  0
H  H12  1  0.86362375  0.37134391  0.45220125  1  0.107006  0  0.11385  0.139221  0  1.005799  0
H  H13  1  0.63638938  0.87133978  0.54779162  1  0.105945  0  0.11387  0.139182  0  1.005803  0
H  H14  1  0.36359922  0.12865294  0.04779163  1  0.105991  0  0.113878  0.139268  0  1.005753  0
H  H15  1  0.13638138  0.62866543  0.95220340  1  0.106732  0  0.113873  0.139249  0  1.005724  0
H  H16  1  0.64312001  0.59263909  0.29923096  1  0.127206  0  0.117294  0.143011  0  1.00741  0
H  H17  1  0.85689554  0.09263962  0.70077136  1  0.127208  0  0.117312  0.143067  0  1.007327  0
H  H18  1  0.14309970  0.90734373  0.20076539  1  0.127807  0  0.11731  0.143069  0  1.007127  0
H  H19  1  0.35688786  0.40735387  0.79923656  1  0.127528  0  0.11731  0.143016  0  1.007373  0
H  H20  1  0.35689385  0.40734907  0.70076672  1  0.127664  0  0.117246  0.142937  0  1.007251  0
H  H21  1  0.14311129  0.90734532  0.29923666  1  0.127774  0  0.117323  0.143082  0  1.007262  0
H  H22  1  0.85689072  0.09264957  0.79924191  1  0.127592  0  0.117316  0.143009  0  1.00733  0
H  H23  1  0.64311311  0.59264008  0.20076183  1  0.127243  0  0.117314  0.143044  0  1.00734  0
H  H24  1  0.10203246  0.47658328  0.59872507  1  0.145306  0  0.122023  0.156841  0  0.995007  0
H  H25  1  0.39797530  0.97658238  0.40127702  1  0.145403  0  0.122046  0.15682  0  0.99504  0
H  H26  1  0.60203465  0.02340992  0.90127258  1  0.145323  0  0.122054  0.156846  0  0.995048  0
H  H27  1  0.89797359  0.52342455  0.09872320  1  0.145148  0  0.122005  0.156722  0  0.995121  0
H  H28  1  0.89797086  0.52341518  0.40127369  1  0.145352  0  0.122013  0.156844  0  0.995049  0
H  H29  1  0.60205613  0.02341736  0.59871853  1  0.144997  0  0.122011  0.156737  0  0.995077  0
H  H30  1  0.39795109  0.97658082  0.09872190  1  0.145276  0  0.122026  0.156771  0  0.995031  0
H  H31  1  0.10204613  0.47658806  0.90127627  1  0.145342  0  0.12205  0.15687  0  0.994956  0
H  H32  1  0.02848953  0.00683457  0.45272299  1  0.12112  0  0.134363  0.060229  0  0.996657  0
H  H33  1  0.47149851  0.50683493  0.54728143  1  0.12132  0  0.134369  0.06033  0  0.996585  0
H  H34  1  0.52847603  0.49316487  0.04726676  1  0.134403  0  0.134308  0.060276  0  0.996626  0
H  H35  1  0.97149803  0.99316512  0.95271920  1  0.134332  0  0.13445  0.06045  0  0.996662  0
H  H36  1  0.97151730  0.99316774  0.54727577  1  0.121372  0  0.134385  0.060306  0  0.996757  0
H  H37  1  0.52849074  0.49316224  0.45272160  1  0.121128  0  0.134407  0.060419  0  0.996741  0
H  H38  1  0.47150502  0.50683230  0.95273662  1  0.134383  0  0.134392  0.060247  0  0.996723  0
H  H39  1  0.02849474  0.00683141  0.04727599  1  0.121507  0  0.134437  0.060417  0  0.996634  0
H  H40  1  0.93267838  0.19519075  0.41290763  1  0.051458  0  0.098992  0.108485  0  0.988037  0
H  H41  1  0.56732648  0.69518969  0.58709274  1  0.051384  0  0.099  0.108491  0  0.988034  0
H  H42  1  0.43266202  0.30481550  0.08708844  1  0.051523  0  0.098987  0.108518  0  0.988016  0
H  H43  1  0.06731749  0.80481385  0.91290193  1  0.051386  0  0.098978  0.108428  0  0.987979  0
H  H44  1  0.06732142  0.80481221  0.58708685  1  0.051668  0  0.098976  0.108492  0  0.988072  0
H  H45  1  0.43267566  0.30480619  0.41290957  1  0.051482  0  0.098993  0.108459  0  0.98802  0
H  H46  1  0.56732254  0.69518296  0.91291780  1  0.051714  0  0.098956  0.108522  0  0.988081  0
H  H47  1  0.93266708  0.19518911  0.08709291  1  0.051396  0  0.098991  0.108449  0  0.988006  0
H  H48  1  0.13253652  0.21319984  0.42830987  1  0.028609  0  0.100504  0.107418  0  1.007665  0
H  H49  1  0.36747229  0.71320139  0.57169351  1  0.028678  0  0.100529  0.107476  0  1.007587  0
H  H50  1  0.63252445  0.28679534  0.07168271  1  0.028797  0  0.100532  0.107549  0  1.007567  0
H  H51  1  0.86746751  0.78680356  0.92830358  1  0.028705  0  0.100557  0.107481  0  1.007607  0
H  H52  1  0.86745742  0.78680376  0.57168675  1  0.028684  0  0.100588  0.107534  0  1.007598  0
H  H53  1  0.63253688  0.28679964  0.42831094  1  0.028629  0  0.100529  0.107422  0  1.007672  0
H  H54  1  0.36745660  0.71320055  0.92832032  1  0.028584  0  0.100557  0.107519  0  1.007553  0
H  H55  1  0.13253932  0.21319747  0.07169303  1  0.028638  0  0.100516  0.107438  0  1.007637  0
H  H56  1  0.01348831  0.14488056  0.46438908  1  0.113893  0  0.119852  0.141604  0  1.013432  0
H  H57  1  0.48650966  0.64487757  0.53561524  1  0.113873  0  0.119842  0.141565  0  1.013575  0
H  H58  1  0.51347077  0.35511830  0.03560210  1  0.113559  0  0.119838  0.141673  0  1.013269  0
H  H59  1  0.98651093  0.85512435  0.96438183  1  0.113738  0  0.119834  0.14153  0  1.013541  0
H  H60  1  0.98650328  0.85512626  0.53560718  1  0.113726  0  0.119904  0.141746  0  1.013286  0
H  H61  1  0.51349131  0.35512346  0.46438815  1  0.113839  0  0.119863  0.14165  0  1.013446  0
H  H62  1  0.48650090  0.64487759  0.96440094  1  0.113572  0  0.119879  0.141692  0  1.013352  0
H  H63  1  0.01348887  0.14487282  0.03561158  1  0.11383  0  0.119852  0.141607  0  1.013503  0
H  H64  1  0.18300276  0.04738683  0.33553246  1  0.107731  0  0.118421  0.13859  0  0.998836  0
H  H65  1  0.31700232  0.54740201  0.66447452  1  0.107838  0  0.118425  0.138629  0  0.998831  0
H  H66  1  0.68301996  0.45261587  0.16445297  1  0.105182  0  0.118537  0.138788  0  0.998804  0
H  H67  1  0.81699564  0.95260893  0.83552757  1  0.107584  0  0.118415  0.138632  0  0.998901  0
H  H68  1  0.81699703  0.95260712  0.66446380  1  0.105279  0  0.118499  0.138662  0  0.998919  0
H  H69  1  0.68298576  0.45260095  0.33552922  1  0.108352  0  0.118435  0.138647  0  0.998885  0
H  H70  1  0.31696578  0.54738644  0.83554685  1  0.105162  0  0.118586  0.138829  0  0.998827  0
H  H71  1  0.18299127  0.04739596  0.16447011  1  0.108144  0  0.118449  0.138682  0  0.998816  0
H  H72  1  0.23661224  0.15494530  0.35206415  1  0.067764  0  0.103595  0.109399  0  0.99002  0
H  H73  1  0.26339732  0.65495865  0.64793947  1  0.067952  0  0.103626  0.109445  0  0.989827  0
H  H74  1  0.73662852  0.34505591  0.14791985  1  0.067949  0  0.103604  0.109395  0  0.990065  0
H  H75  1  0.76338261  0.84505571  0.85205979  1  0.067771  0  0.103536  0.109336  0  0.989942  0
H  H76  1  0.76337936  0.84505380  0.64793068  1  0.068024  0  0.103569  0.109365  0  0.989955  0
H  H77  1  0.73659896  0.34504109  0.35206213  1  0.068002  0  0.103614  0.109436  0  0.98987  0
H  H78  1  0.26335956  0.65494962  0.85208318  1  0.067745  0  0.103544  0.109315  0  0.989941  0
H  H79  1  0.23659727  0.15495240  0.14793826  1  0.068093  0  0.103625  0.109441  0  0.989919  0
H  H80  1  0.04555976  0.13369039  0.32872866  1  0.049809  0  0.104951  0.112458  0  0.976731  0
H  H81  1  0.45445242  0.63370379  0.67127528  1  0.050153  0  0.104972  0.112482  0  0.976614  0
H  H82  1  0.54557805  0.36631156  0.17126073  1  0.050025  0  0.105023  0.112576  0  0.976825  0
H  H83  1  0.95443867  0.86630597  0.82872393  1  0.049555  0  0.104963  0.112427  0  0.976704  0
H  H84  1  0.95443887  0.86630614  0.67126867  1  0.049649  0  0.104947  0.112435  0  0.976704  0
H  H85  1  0.54553214  0.36629853  0.32872811  1  0.049949  0  0.104993  0.112506  0  0.976518  0
H  H86  1  0.45441941  0.63369204  0.82874230  1  0.050172  0  0.105  0.11258  0  0.976692  0
H  H87  1  0.04553887  0.13369248  0.17127447  1  0.049939  0  0.10503  0.112538  0  0.97661  0
C  C88  1  0.85056788  0.66423813  0.48988735  1  1.629057  0  0.228949  0.615493  0  4.250396  0
C  C89  1  0.64945026  0.16424474  0.51011333  1  1.629719  0  0.229149  0.615917  0  4.249533  0
C  C90  1  0.35054898  0.83576191  0.01010718  1  1.629273  0  0.228939  0.615634  0  4.250177  0
C  C91  1  0.14945122  0.33576114  0.98988681  1  1.629532  0  0.229039  0.615733  0  4.249838  0
C  C92  1  0.14944246  0.33576354  0.51011105  1  1.62923  0  0.228954  0.615605  0  4.250227  0
C  C93  1  0.35055891  0.83576723  0.48988970  1  1.628963  0  0.228798  0.615383  0  4.250631  0
C  C94  1  0.64943558  0.16423076  0.98988516  1  1.629025  0  0.228863  0.615326  0  4.25054  0
C  C95  1  0.85055796  0.66424182  0.01011444  1  1.629509  0  0.22906  0.615758  0  4.249844  0
C  C96  1  0.80502444  0.70047655  0.28914206  1  0.394621  0  0.078347  0.087376  0  3.893029  0
C  C97  1  0.69498620  0.20048613  0.71086117  1  0.394806  0  0.078302  0.087323  0  3.893112  0
C  C98  1  0.30499846  0.79949214  0.21085711  1  0.394407  0  0.078331  0.087377  0  3.892491  0
C  C99  1  0.19497760  0.29951636  0.78914429  1  0.394907  0  0.078411  0.087552  0  3.892667  0
C  C100  1  0.19499059  0.29951033  0.71085990  1  0.394529  0  0.078267  0.087243  0  3.892923  0
C  C101  1  0.30501125  0.79949109  0.28914578  1  0.394404  0  0.078463  0.087446  0  3.892762  0
C  C102  1  0.69498142  0.20048894  0.78914414  1  0.39437  0  0.078376  0.087499  0  3.892647  0
C  C103  1  0.80501517  0.70047824  0.21085696  1  0.395198  0  0.078447  0.087481  0  3.892591  0
C  C104  1  0.85148750  0.73401415  0.33582947  1  1.581119  0  0.2165  0.594263  0  4.244685  0
C  C105  1  0.64851334  0.23401462  0.66417169  1  1.580868  0  0.216508  0.594251  0  4.244815  0
C  C106  1  0.35148317  0.76595500  0.16416613  1  1.5818  0  0.216612  0.594474  0  4.24472  0
C  C107  1  0.14850505  0.26598547  0.83583343  1  1.581214  0  0.21637  0.594016  0  4.244902  0
C  C108  1  0.14851464  0.26597594  0.66417000  1  1.581196  0  0.216558  0.594346  0  4.244836  0
C  C109  1  0.35149349  0.76596968  0.33583526  1  1.582019  0  0.216399  0.594139  0  4.245101  0
C  C110  1  0.64852484  0.23403831  0.83583049  1  1.581849  0  0.216494  0.594137  0  4.245103  0
C  C111  1  0.85149710  0.73401234  0.16416675  1  1.581021  0  0.216435  0.594066  0  4.244797  0
C  C112  1  0.86924173  0.47911641  0.56625325  1  0.411417  0  0.069019  0.075641  0  3.903819  0
C  C113  1  0.63077470  0.97911031  0.43375051  1  0.411494  0  0.069042  0.075724  0  3.904096  0
C  C114  1  0.36924220  0.02088218  0.93373543  1  0.411523  0  0.069002  0.075615  0  3.903872  0
C  C115  1  0.13077026  0.52089379  0.06625156  1  0.411477  0  0.068892  0.075509  0  3.904039  0
C  C116  1  0.13076159  0.52088977  0.43374551  1  0.410817  0  0.069  0.075686  0  3.903801  0
C  C117  1  0.36926025  0.02089329  0.56625039  1  0.410755  0  0.068976  0.075568  0  3.903704  0
C  C118  1  0.63075408  0.97911306  0.06625085  1  0.411087  0  0.069079  0.075784  0  3.903652  0
C  C119  1  0.86924360  0.47911818  0.93374791  1  0.411185  0  0.069085  0.075651  0  3.903574  0
C  C120  1  0.03434235  0.58744226  0.55056023  1  0.016479  0  -0.10716  -0.180396  0  3.99937  0
C  C121  1  0.46567863  0.08744276  0.44943650  1  0.016723  0  -0.107158  -0.180503  0  3.999312  0
C  C122  1  0.53433589  0.91255691  0.94943659  1  0.017065  0  -0.107099  -0.180349  0  3.999302  0
C  C123  1  0.96567202  0.41256271  0.05056348  1  0.016581  0  -0.107184  -0.180621  0  3.999417  0
C  C124  1  0.96566682  0.41255942  0.44943568  1  0.016559  0  -0.107116  -0.180362  0  3.999284  0
C  C125  1  0.53434109  0.91255762  0.55055655  1  0.017194  0  -0.107168  -0.180339  0  3.999353  0
C  C126  1  0.46564633  0.08743640  0.05055611  1  0.017133  0  -0.107199  -0.180513  0  3.999452  0
C  C127  1  0.03433363  0.58744862  0.94944062  1  0.016431  0  -0.107121  -0.180348  0  3.999351  0
C  C128  1  0.89597813  0.60004332  0.52609945  1  0.399718  0  0.064981  0.060379  0  3.928588  0
C  C129  1  0.60403264  0.10004666  0.47389897  1  0.399599  0  0.064907  0.060326  0  3.928381  0
C  C130  1  0.39596893  0.89996281  0.97389728  1  0.399421  0  0.064937  0.060275  0  3.9284  0
C  C131  1  0.10403396  0.39995570  0.02610252  1  0.39941  0  0.064969  0.060441  0  3.928275  0
C  C132  1  0.10402987  0.39996157  0.47389931  1  0.399283  0  0.06495  0.060383  0  3.92848  0
C  C133  1  0.39597888  0.89996144  0.52610121  1  0.399854  0  0.065005  0.060446  0  3.928708  0
C  C134  1  0.60401681  0.10004273  0.02609969  1  0.400133  0  0.064997  0.060452  0  3.928564  0
C  C135  1  0.89597169  0.60005112  0.97389730  1  0.399765  0  0.06489  0.060275  0  3.928486  0
C  C136  1  0.70901520  0.63347108  0.27519430  1  0.115473  0  -0.093169  -0.157285  0  3.969002  0
C  C137  1  0.79099045  0.13347137  0.72480809  1  -0.055113  0  -0.093229  -0.157509  0  3.968703  0
C  C138  1  0.20899418  0.86650506  0.22480739  1  -0.055803  0  -0.093152  -0.157369  0  3.9684  0
C  C139  1  0.29099508  0.36652560  0.77519628  1  0.114959  0  -0.093148  -0.157294  0  3.968577  0
C  C140  1  0.29099163  0.36652223  0.72480695  1  -0.055674  0  -0.093051  -0.157074  0  3.968469  0
C  C141  1  0.20901169  0.86650907  0.27519957  1  0.114521  0  -0.093151  -0.15736  0  3.968538  0
C  C142  1  0.79100328  0.13348053  0.77519956  1  0.114782  0  -0.092985  -0.156993  0  3.968365  0
C  C143  1  0.70900706  0.63346256  0.22480604  1  -0.055634  0  -0.093146  -0.157266  0  3.968525  0
C  C144  1  0.79537385  0.39599857  0.57789242  1  1.615127  0  0.225621  0.607159  0  4.260081  0
C  C145  1  0.70463662  0.89599276  0.42211367  1  1.615511  0  0.225796  0.607588  0  4.259936  0
C  C146  1  0.29537680  0.10400225  0.92210340  1  1.614988  0  0.225656  0.607329  0  4.260046  0
C  C147  1  0.20462287  0.60401364  0.07788802  1  1.615445  0  0.225923  0.607742  0  4.259992  0
C  C148  1  0.20462126  0.60400761  0.42211061  1  1.615821  0  0.22575  0.607372  0  4.259941  0
C  C149  1  0.29539951  0.10401278  0.57789043  1  1.616039  0  0.225824  0.607565  0  4.259936  0
C  C150  1  0.70461714  0.89599364  0.07788823  1  1.615937  0  0.225655  0.607231  0  4.260168  0
C  C151  1  0.79538630  0.39599640  0.92210967  1  1.616074  0  0.225717  0.607361  0  4.259919  0
C  C152  1  0.01712428  0.50972196  0.57653369  1  -0.016153  0  -0.101187  -0.172248  0  3.963826  0
C  C153  1  0.48289418  0.00971517  0.42346716  1  -0.016533  0  -0.101229  -0.172307  0  3.964042  0
C  C154  1  0.51712275  0.99027276  0.92346099  1  -0.016587  0  -0.101301  -0.172346  0  3.964201  0
C  C155  1  0.98288534  0.49029024  0.07653245  1  -0.016513  0  -0.101088  -0.171998  0  3.964053  0
C  C156  1  0.98287669  0.49028357  0.42346506  1  -0.016284  0  -0.101191  -0.172283  0  3.963849  0
C  C157  1  0.51714429  0.99028393  0.57652803  1  -0.015923  0  -0.101229  -0.172246  0  3.963575  0
C  C158  1  0.48286299  0.00971347  0.07652957  1  -0.016166  0  -0.101154  -0.172176  0  3.963661  0
C  C159  1  0.01713204  0.50972366  0.92346595  1  -0.016174  0  -0.101249  -0.172325  0  3.963461  0
C  C160  1  0.07141285  0.01069147  0.41578112  1  1.373289  0  0.188934  0.330256  0  4.075054  0
C  C161  1  0.42857865  0.51069158  0.58422259  1  1.373101  0  0.188757  0.329908  0  4.074963  0
C  C162  1  0.57140986  0.48931166  0.08420684  1  1.359907  0  0.188975  0.330118  0  4.074651  0
C  C163  1  0.92857129  0.98930928  0.91578161  1  1.359751  0  0.188807  0.329771  0  4.07463  0
C  C164  1  0.92858929  0.98931277  0.58421621  1  1.372732  0  0.188963  0.330162  0  4.07457  0
C  C165  1  0.57141529  0.48930817  0.41578293  1  1.373149  0  0.188776  0.329713  0  4.074938  0
C  C166  1  0.42857002  0.51068358  0.91579619  1  1.35991  0  0.189038  0.330378  0  4.074292  0
C  C167  1  0.07141328  0.01068918  0.08421750  1  1.372733  0  0.188865  0.329895  0  4.074653  0
C  C168  1  0.03860007  0.16480679  0.42776648  1  0.289867  0  -0.128535  -0.276048  0  3.921401  0
C  C169  1  0.46140468  0.66480541  0.57223610  1  0.28984  0  -0.128566  -0.276101  0  3.921609  0
C  C170  1  0.53858737  0.33519132  0.07222505  1  0.289257  0  -0.128546  -0.276343  0  3.921036  0
C  C171  1  0.96140045  0.83519918  0.92776097  1  0.28983  0  -0.128519  -0.276045  0  3.92147  0
C  C172  1  0.96139856  0.83519681  0.57222979  1  0.289786  0  -0.12862  -0.276344  0  3.921432  0
C  C173  1  0.53859394  0.33519240  0.42776943  1  0.289792  0  -0.128506  -0.276037  0  3.921483  0
C  C174  1  0.46139836  0.66480714  0.92778011  1  0.289279  0  -0.128575  -0.276283  0  3.921371  0
C  C175  1  0.03859349  0.16480378  0.07223315  1  0.290054  0  -0.128554  -0.276064  0  3.921344  0
C  C176  1  0.14068253  0.10772277  0.35099914  1  0.241875  0  -0.125992  -0.260781  0  3.910231  0
C  C177  1  0.35932764  0.60773125  0.64900475  1  0.240795  0  -0.126008  -0.26092  0  3.909998  0
C  C178  1  0.64069586  0.39227881  0.14898773  1  0.244524  0  -0.126214  -0.261129  0  3.910657  0
C  C179  1  0.85931701  0.89228017  0.85099341  1  0.242097  0  -0.125898  -0.260767  0  3.910033  0
C  C180  1  0.85931609  0.89227891  0.64899819  1  0.244391  0  -0.126106  -0.260887  0  3.910184  0
C  C181  1  0.64066630  0.39227364  0.35099792  1  0.240697  0  -0.126091  -0.261053  0  3.909947  0
C  C182  1  0.35929574  0.60771900  0.85101637  1  0.244593  0  -0.126061  -0.26095  0  3.910421  0
C  C183  1  0.14066756  0.10772408  0.14900463  1  0.240732  0  -0.126092  -0.261003  0  3.909982  0
N  N184  1  0.08553498  0.09129658  0.39912204  1  -1.215459  0  -0.283262  0.021141  0  3.711498  0
N  N185  1  0.41447775  0.59130134  0.60088253  1  -1.21503  0  -0.283282  0.021256  0  3.711617  0
N  N186  1  0.58553767  0.40870843  0.10086591  1  -1.215661  0  -0.283196  0.021366  0  3.71157  0
N  N187  1  0.91446327  0.90870536  0.89911669  1  -1.214953  0  -0.283267  0.021478  0  3.711409  0
N  N188  1  0.91446717  0.90870509  0.60087422  1  -1.215268  0  -0.283267  0.021302  0  3.711344  0
N  N189  1  0.58552205  0.40869776  0.39912263  1  -1.215255  0  -0.283291  0.021393  0  3.711491  0
N  N190  1  0.41445041  0.59129196  0.89913925  1  -1.215515  0  -0.283305  0.021143  0  3.711624  0
N  N191  1  0.08552247  0.09129438  0.10088064  1  -1.215337  0  -0.283226  0.021343  0  3.711484  0
O  O192  1  0.79350430  0.70038481  0.37360505  1  -1.198795  0  -0.40266  -0.720004  0  2.378447  0
O  O193  1  0.70650870  0.20038932  0.62639604  1  -1.198758  0  -0.402676  -0.71996  0  2.378487  0
O  O194  1  0.29350665  0.79959680  0.12639234  1  -1.19859  0  -0.402678  -0.719991  0  2.378641  0
O  O195  1  0.20649753  0.29961054  0.87360799  1  -1.198959  0  -0.402678  -0.719961  0  2.378693  0
O  O196  1  0.20650136  0.29960529  0.62639442  1  -1.198695  0  -0.402721  -0.72008  0  2.378615  0
O  O197  1  0.29351102  0.79960334  0.37361019  1  -1.198848  0  -0.40258  -0.719894  0  2.378723  0
O  O198  1  0.70648494  0.20040810  0.87361069  1  -1.198611  0  -0.402633  -0.719932  0  2.378414  0
O  O199  1  0.79349641  0.70038920  0.12639361  1  -1.198865  0  -0.402641  -0.719888  0  2.37863  0
O  O200  1  0.95231410  0.79458915  0.33742930  1  -1.150926  0  -0.401304  -0.633576  0  2.251066  0
O  O201  1  0.54768010  0.29458935  0.66257198  1  -1.150917  0  -0.401294  -0.633566  0  2.251167  0
O  O202  1  0.45231875  0.70537961  0.16257518  1  -1.151488  0  -0.401319  -0.633699  0  2.251281  0
O  O203  1  0.04766438  0.20541306  0.83742996  1  -1.151064  0  -0.401249  -0.633496  0  2.251112  0
O  O204  1  0.04768921  0.20540030  0.66257266  1  -1.151096  0  -0.401285  -0.633551  0  2.251178  0
O  O205  1  0.45233025  0.70539623  0.33742749  1  -1.151443  0  -0.401294  -0.633523  0  2.251222  0
O  O206  1  0.54768808  0.29461048  0.83742892  1  -1.151441  0  -0.40139  -0.633588  0  2.251381  0
O  O207  1  0.95233659  0.79458604  0.16256915  1  -1.151028  0  -0.401287  -0.633535  0  2.251086  0
O  O208  1  0.95632903  0.71737430  0.47788685  1  -1.187876  0  -0.389906  -0.663588  0  2.329697  0
O  O209  1  0.54368140  0.21738396  0.52211249  1  -1.187924  0  -0.389904  -0.663711  0  2.329412  0
O  O210  1  0.45632133  0.78263048  0.02211371  1  -1.187647  0  -0.389844  -0.663613  0  2.329724  0
O  O211  1  0.04368307  0.28261846  0.97788980  1  -1.18773  0  -0.389898  -0.663623  0  2.32952  0
O  O212  1  0.04367311  0.28262673  0.52211440  1  -1.187675  0  -0.389911  -0.66363  0  2.32953  0
O  O213  1  0.45630903  0.78262093  0.47788519  1  -1.187602  0  -0.389811  -0.663547  0  2.329769  0
O  O214  1  0.54367612  0.21737377  0.97788469  1  -1.187731  0  -0.389824  -0.663528  0  2.329682  0
O  O215  1  0.95632024  0.71738836  0.02211145  1  -1.187884  0  -0.389945  -0.66368  0  2.3293  0
O  O216  1  0.79339969  0.53445748  0.53594966  1  -1.064595  0  -0.109694  -0.099813  0  2.624465  0
O  O217  1  0.70660958  0.03445329  0.46405398  1  -1.06521  0  -0.109759  -0.099975  0  2.624253  0
O  O218  1  0.29339318  0.96554775  0.96403961  1  -1.064266  0  -0.109679  -0.099752  0  2.624227  0
O  O219  1  0.20660300  0.46555061  0.03594713  1  -1.06463  0  -0.10975  -0.100011  0  2.624384  0
O  O220  1  0.20659893  0.46555255  0.46405052  1  -1.064306  0  -0.109698  -0.099936  0  2.62457  0
O  O221  1  0.29341366  0.96555675  0.53594727  1  -1.064461  0  -0.109691  -0.099811  0  2.624337  0
O  O222  1  0.70658787  0.03445134  0.03594453  1  -1.06477  0  -0.109786  -0.099933  0  2.62442  0
O  O223  1  0.79340266  0.53445879  0.96405305  1  -1.064846  0  -0.109724  -0.099845  0  2.624383  0
O  O224  1  0.87966460  0.34509692  0.60227966  1  -1.185975  0  -0.397306  -0.648272  0  2.314322  0
O  O225  1  0.62034536  0.84508678  0.39772599  1  -1.185596  0  -0.397357  -0.648441  0  2.314055  0
O  O226  1  0.37966930  0.15490100  0.89771543  1  -1.18619  0  -0.397219  -0.648293  0  2.314227  0
O  O227  1  0.12031800  0.65490965  0.10227679  1  -1.185898  0  -0.397444  -0.648548  0  2.314288  0
O  O228  1  0.12034223  0.65490476  0.39772195  1  -1.186144  0  -0.397323  -0.648315  0  2.314395  0
O  O229  1  0.37970835  0.15490910  0.60227811  1  -1.185888  0  -0.397386  -0.648392  0  2.314108  0
O  O230  1  0.62033519  0.84509617  0.10227905  1  -1.186128  0  -0.397306  -0.64828  0  2.314304  0
O  O231  1  0.87970406  0.34509910  0.89772339  1  -1.186109  0  -0.397401  -0.648397  0  2.314231  0
O  O232  1  0.86492468  0.74129884  0.24999936  1  -1.031982  0  -0.09877  -0.073848  0  2.588725  0
O  O233  1  0.63507372  0.24131147  0.75000181  1  -1.03191  0  -0.098793  -0.073919  0  2.588688  0
O  O234  1  0.36491319  0.75867025  0.25000051  1  -1.031834  0  -0.098933  -0.073891  0  2.58842  0
O  O235  1  0.13506926  0.25869382  0.75000189  1  -1.031833  0  -0.098718  -0.073899  0  2.588742  0
O  O236  1  0.65848813  0.38031107  0.56210977  1  -1.19249  0  -0.396264  -0.680974  0  2.330285  0
O  O237  1  0.84150849  0.88030676  0.43790306  1  -1.192882  0  -0.396308  -0.681077  0  2.330459  0
O  O238  1  0.15849317  0.11969606  0.93788680  1  -1.192339  0  -0.396342  -0.681143  0  2.330383  0
O  O239  1  0.34149575  0.61970039  0.06210109  1  -1.192633  0  -0.396355  -0.681134  0  2.330543  0
O  O240  1  0.34150816  0.61969446  0.43789504  1  -1.192586  0  -0.396332  -0.681054  0  2.330251  0
O  O241  1  0.15851475  0.11970328  0.56211173  1  -1.192919  0  -0.396333  -0.681122  0  2.33051  0
O  O242  1  0.84150897  0.88031141  0.06210733  1  -1.192824  0  -0.396259  -0.680977  0  2.330373  0
O  O243  1  0.65850170  0.38030836  0.93788983  1  -1.192879  0  -0.396276  -0.681006  0  2.330427  0
O  O244  1  0.10371242  0.94506272  0.39191561  1  -1.174646  0  -0.345832  -0.532263  0  2.361744  0
O  O245  1  0.39627934  0.44506446  0.60808963  1  -1.174753  0  -0.345677  -0.532055  0  2.361515  0
O  O246  1  0.60370676  0.55494343  0.10807720  1  -1.174171  0  -0.345841  -0.532251  0  2.361349  0
O  O247  1  0.89627295  0.05494626  0.89191401  1  -1.174655  0  -0.34586  -0.532248  0  2.361096  0
O  O248  1  0.89629324  0.05494603  0.60808493  1  -1.174775  0  -0.345854  -0.532299  0  2.36135  0
O  O249  1  0.60371929  0.55494172  0.39191447  1  -1.174647  0  -0.345742  -0.532057  0  2.361414  0
O  O250  1  0.39626374  0.44505567  0.89192369  1  -1.174295  0  -0.346009  -0.532461  0  2.361295  0
O  O251  1  0.10371747  0.94505606  0.10809045  1  -1.174517  0  -0.345879  -0.532232  0  2.361173  0
O  O252  1  0.71157751  0.66076220  0.47370993  1  -1.198816  0  -0.40813  -0.664912  0  2.321307  0
O  O253  1  0.78843717  0.16075872  0.52629252  1  -1.199108  0  -0.408275  -0.665116  0  2.321077  0
O  O254  1  0.21157258  0.83924738  0.02629033  1  -1.198923  0  -0.408176  -0.665  0  2.321273  0
O  O255  1  0.28843812  0.33924019  0.97371114  1  -1.19914  0  -0.40821  -0.665025  0  2.321253  0
O  O256  1  0.28842112  0.33924462  0.52629275  1  -1.198939  0  -0.408127  -0.664966  0  2.321316  0
O  O257  1  0.21157904  0.83924875  0.47371015  1  -1.198809  0  -0.408055  -0.664862  0  2.321428  0
O  O258  1  0.78842956  0.16075815  0.97371127  1  -1.198874  0  -0.408152  -0.664849  0  2.321255  0
O  O259  1  0.71156988  0.66076213  0.02628904  1  -1.198979  0  -0.408129  -0.66501  0  2.321323  0
