# generated using pymatgen
data_SmCuH16C22S2N2O11
_symmetry_space_group_name_H-M   'P 1'
_cell_length_a   9.46079571
_cell_length_b   11.37620463
_cell_length_c   12.38110000
_cell_angle_alpha   99.50791853
_cell_angle_beta   100.22373107
_cell_angle_gamma   113.97240343
_symmetry_Int_Tables_number   1
_chemical_formula_structural   SmCuH16C22S2N2O11
_chemical_formula_sum   'Sm2 Cu2 H32 C44 S4 N4 O22'
_cell_volume   1155.79966131
_cell_formula_units_Z   2
loop_
 _symmetry_equiv_pos_site_id
 _symmetry_equiv_pos_as_xyz
  1  'x, y, z'
loop_
 _atom_site_type_symbol
 _atom_site_label
 _atom_site_symmetry_multiplicity
 _atom_site_fract_x
 _atom_site_fract_y
 _atom_site_fract_z
 _atom_site_occupancy
 _atom_site_hle17_bader_spin_density
 _atom_site_hle17_ddec_charge
 _atom_site_hle17_ddec_spin_density
 _atom_site_hle17_ddec_sum_bond_order
 _atom_site_hle17_magmom
 _atom_site_hse06_10hf_bader_spin_density
 _atom_site_hse06_10hf_ddec_charge
 _atom_site_hse06_10hf_ddec_spin_density
 _atom_site_hse06_10hf_ddec_sum_bond_order
 _atom_site_hse06_10hf_magmom
 _atom_site_hse06_bader_spin_density
 _atom_site_hse06_ddec_charge
 _atom_site_hse06_ddec_spin_density
 _atom_site_hse06_ddec_sum_bond_order
 _atom_site_hse06_magmom
 _atom_site_pbe_bader_charge
 _atom_site_pbe_bader_spin_density
 _atom_site_pbe_cm5_charge
 _atom_site_pbe_ddec_charge
 _atom_site_pbe_ddec_spin_density
 _atom_site_pbe_ddec_sum_bond_order
 _atom_site_pbe_magmom
Sm  Sm0  1  0.30674754  0.46399532  0.09624513  1  0  2.35786  0  1.593905  0  0  2.270915  0  1.948797  0  0  2.313031  0  1.904811  0  2.261403  0  1.52086  2.240674  0  1.979473  0
Sm  Sm1  1  0.69325220  0.53600494  0.90375528  1  0  2.357856  0  1.593924  0  0  2.270914  0  1.948806  0  0  2.313027  0  1.904826  0  2.261395  0  1.520872  2.240674  0  1.979485  0
Cu  Cu2  1  0.26141328  0.97531851  0.59468428  1  0  0.502729  0  1.54179  0  0  0.366395  0  1.951853  0  0  0.376291  0  1.912595  0  0.645585  0  0.547141  0.363328  0  1.976757  0
Cu  Cu3  1  0.73858754  0.02468175  0.40531708  1  0  0.502782  0  1.541796  0  0  0.366436  0  1.951847  0  0  0.376337  0  1.912629  0  0.645596  0  0.547153  0.363367  0  1.976753  0
H  H4  1  0.73982985  0.54828647  0.41889312  1  0  0.099378  0  0.960799  0  0  0.112136  0  1.018391  0  0  0.114537  0  1.018138  0  0.077245  0  0.103595  0.110209  0  1.019265  0
H  H5  1  0.26016989  0.45171378  0.58110648  1  0  0.099354  0  0.960789  0  0  0.112112  0  1.018394  0  0  0.114512  0  1.018141  0  0.07725  0  0.103581  0.110185  0  1.019267  0
H  H6  1  0.90264181  0.67553107  0.30341394  1  0  0.119616  0  0.950544  0  0  0.126556  0  1.013345  0  0  0.130182  0  1.011407  0  0.135024  0  0.108794  0.123936  0  1.014953  0
H  H7  1  0.09735793  0.32446919  0.69658566  1  0  0.119631  0  0.950551  0  0  0.126573  0  1.013345  0  0  0.130198  0  1.01141  0  0.135035  0  0.108799  0.123952  0  1.014954  0
H  H8  1  0.28527718  0.58073768  0.43474048  1  0  0.112764  0  0.953216  0  0  0.122497  0  1.01717  0  0  0.125281  0  1.016041  0  0.113238  0  0.108069  0.120032  0  1.019013  0
H  H9  1  0.71472256  0.41926258  0.56525993  1  0  0.112756  0  0.953191  0  0  0.122494  0  1.017143  0  0  0.12528  0  1.016012  0  0.11324  0  0.108068  0.12003  0  1.018984  0
H  H10  1  0.45324389  0.25475051  0.23163646  1  0  0.102203  0  1.001534  0  0  0.111133  0  1.064988  0  0  0.113147  0  1.065251  0  0.114029  0  0.111999  0.109728  0  1.065008  0
H  H11  1  0.54675639  0.74524875  0.76836467  1  0  0.102202  0  1.001529  0  0  0.111128  0  1.064991  0  0  0.113142  0  1.065254  0  0.114028  0  0.112  0.109722  0  1.065012  0
H  H12  1  0.49928756  0.11150521  0.35411231  1  0  0.091028  0  0.932243  0  0  0.102955  0  0.989577  0  0  0.105185  0  0.988415  0  0.105023  0  0.121718  0.100887  0  0.991324  0
H  H13  1  0.50071218  0.88849505  0.64588809  1  0  0.091  0  0.932202  0  0  0.102926  0  0.989543  0  0  0.105155  0  0.988381  0  0.105036  0  0.121706  0.100856  0  0.99129  0
H  H14  1  0.93531492  0.18441346  0.28253242  1  0  0.07709  0  0.967415  0  0  0.085287  0  1.034962  0  0  0.087194  0  1.033736  0  0.10825  0  0.114838  0.083515  0  1.036837  0
H  H15  1  0.06468535  0.81558580  0.71746711  1  0  0.077069  0  0.967423  0  0  0.08527  0  1.034972  0  0  0.087177  0  1.033748  0  0.108261  0  0.114846  0.083498  0  1.036848  0
H  H16  1  0.90742013  0.33018607  0.16168851  1  0  0.123107  0  0.961177  0  0  0.133131  0  1.021076  0  0  0.136459  0  1.019453  0  0.136344  0  0.120157  0.130482  0  1.023003  0
H  H17  1  0.09257907  0.66981319  0.83831006  1  0  0.123133  0  0.961156  0  0  0.133162  0  1.021041  0  0  0.136491  0  1.019418  0  0.136341  0  0.120153  0.130511  0  1.022971  0
H  H18  1  0.57262001  0.17505021  0.86240260  1  0  0.114021  0  0.96264  0  0  0.119965  0  1.032489  0  0  0.123983  0  1.029053  0  0.105864  0  0.111607  0.117014  0  1.035042  0
H  H19  1  0.42738135  0.82495104  0.13759656  1  0  0.114049  0  0.962595  0  0  0.119992  0  1.032438  0  0  0.124006  0  1.029005  0  0.105891  0  0.111615  0.117039  0  1.034993  0
H  H20  1  0.76254386  0.08017005  0.90835556  1  0  0.11382  0  0.94963  0  0  0.124665  0  1.006445  0  0  0.127941  0  1.005024  0  0.1142  0  0.108618  0.122355  0  1.00752  0
H  H21  1  0.23745696  0.91983021  0.09164500  1  0  0.113779  0  0.94964  0  0  0.124638  0  1.006438  0  0  0.127914  0  1.005021  0  0.11422  0  0.108619  0.122328  0  1.007514  0
H  H22  1  0.15893880  0.06911428  0.99542450  1  0  0.112426  0  0.932424  0  0  0.125767  0  0.986497  0  0  0.129076  0  0.984526  0  0.099538  0  0.115245  0.123508  0  0.987851  0
H  H23  1  0.84106202  0.93088598  0.00457525  1  0  0.112514  0  0.932359  0  0  0.125833  0  0.986448  0  0  0.129146  0  0.984479  0  0.099513  0  0.115262  0.123572  0  0.987803  0
H  H24  1  0.41691973  0.25569202  0.62702807  1  0  0.109135  0  0.946304  0  0  0.116722  0  1.006876  0  0  0.119997  0  1.003628  0  0.19471  0  0.126706  0.114249  0  1.00937  0
H  H25  1  0.58308001  0.74430824  0.37297233  1  0  0.10913  0  0.946277  0  0  0.116708  0  1.006856  0  0  0.119983  0  1.003607  0  0.194717  0  0.126698  0.114235  0  1.00935  0
H  H26  1  0.43760980  0.40696808  0.50124894  1  0  0.112643  0  0.973488  0  0  0.121409  0  1.038813  0  0  0.125208  0  1.035917  0  0.115042  0  0.110269  0.11846  0  1.041626  0
H  H27  1  0.56238886  0.59303218  0.49875132  1  0  0.11263  0  0.973474  0  0  0.121397  0  1.038803  0  0  0.125197  0  1.035908  0  0.114975  0  0.11026  0.118448  0  1.041616  0
H  H28  1  0.08646603  0.06494131  0.22945303  1  0  0.127315  0  0.928731  0  0  0.139029  0  0.982932  0  0  0.142353  0  0.98172  0  0.134153  0  0.119195  0.136791  0  0.98378  0
H  H29  1  0.91353424  0.93505795  0.77054730  1  0  0.127266  0  0.928777  0  0  0.139003  0  0.982959  0  0  0.142328  0  0.981745  0  0.134148  0  0.119179  0.136765  0  0.983805  0
H  H30  1  0.08325025  0.92502447  0.36373747  1  0  0.098035  0  0.95868  0  0  0.102863  0  1.027427  0  0  0.106019  0  1.023914  0  0.130041  0  0.118716  0.100525  0  1.030047  0
H  H31  1  0.91675164  0.07497578  0.63626323  1  0  0.09801  0  0.95866  0  0  0.10285  0  1.02739  0  0  0.106007  0  1.023876  0  0.130043  0  0.118711  0.100512  0  1.030011  0
H  H32  1  0.97216610  0.31644839  0.92875906  1  0  0.445844  0  0.849333  0  0  0.415633  0  0.911575  0  0  0.42595  0  0.896479  0  0.653699  0  0.302491  0.408204  0  0.922419  0
H  H33  1  0.02783471  0.68355186  0.07124149  1  0  0.44584  0  0.849339  0  0  0.415629  0  0.911581  0  0  0.425948  0  0.896482  0  0.653691  0  0.302482  0.408202  0  0.922424  0
H  H34  1  0.93771918  0.40352219  0.02425964  1  0  0.440416  0  0.841379  0  0  0.412239  0  0.908356  0  0  0.42228  0  0.893276  0  0.647171  0  0.310446  0.404964  0  0.919269  0
H  H35  1  0.06228002  0.59647707  0.97574054  1  0  0.440437  0  0.841352  0  0  0.412259  0  0.908332  0  0  0.4223  0  0.893253  0  0.647173  0  0.310446  0.404982  0  0.919246  0
C  C36  1  0.86034319  0.55784221  0.42467331  1  0  -0.101775  0  3.727726  0  0  -0.121707  0  3.977048  0  0  -0.124493  0  3.999115  0  -0.025671  0  -0.08689  -0.119498  0  3.962464  0
C  C37  1  0.13965655  0.44215805  0.57532629  1  0  -0.101664  0  3.727636  0  0  -0.121606  0  3.976948  0  0  -0.124388  0  3.999014  0  -0.025691  0  -0.086855  -0.119399  0  3.962366  0
C  C38  1  0.94948222  0.62779527  0.35966111  1  0  -0.076982  0  3.750294  0  0  -0.103067  0  4.00745  0  0  -0.103494  0  4.026504  0  -0.070265  0  -0.089704  -0.102734  0  3.994579  0
C  C39  1  0.05051752  0.37220499  0.64033849  1  0  -0.077067  0  3.750309  0  0  -0.10314  0  4.007462  0  0  -0.10357  0  4.026519  0  -0.070233  0  -0.089718  -0.102808  0  3.99459  0
C  C40  1  0.10346960  0.63528846  0.36434167  1  0  -0.119103  0  3.75575  0  0  -0.094014  0  4.007707  0  0  -0.099236  0  4.027246  0  -0.142741  0  -0.020093  -0.090709  0  3.994224  0
C  C41  1  0.89652961  0.36471279  0.63565801  1  0  -0.119069  0  3.755717  0  0  -0.093996  0  4.007703  0  0  -0.099221  0  4.027246  0  -0.142993  0  -0.02008  -0.090692  0  3.994219  0
C  C42  1  0.16758567  0.57577779  0.43389562  1  0  -0.099027  0  3.696118  0  0  -0.132832  0  3.944784  0  0  -0.132279  0  3.963756  0  -0.056153  0  -0.07807  -0.132608  0  3.932159  0
C  C43  1  0.83241461  0.42422346  0.56610420  1  0  -0.09903  0  3.696113  0  0  -0.132835  0  3.944814  0  0  -0.132282  0  3.963786  0  -0.055919  0  -0.078087  -0.132611  0  3.932189  0
C  C44  1  0.92131179  0.49521478  0.49753374  1  0  0.054959  0  3.782231  0  0  0.072685  0  4.009165  0  0  0.071996  0  4.033839  0  0.004661  0  -0.008266  0.073131  0  3.99199  0
C  C45  1  0.07868741  0.50478647  0.50246593  1  0  0.05493  0  3.782166  0  0  0.07269  0  4.009079  0  0  0.071998  0  4.033753  0  -0.043808  0  -0.008278  0.073138  0  3.991903  0
C  C46  1  0.56275047  0.24356807  0.24386978  1  0  -0.101973  0  3.711507  0  0  -0.125515  0  3.955072  0  0  -0.130839  0  3.97833  0  0.036475  0  -0.06998  -0.121975  0  3.939956  0
C  C47  1  0.43724927  0.75643219  0.75613063  1  0  -0.101994  0  3.711546  0  0  -0.125523  0  3.955114  0  0  -0.130849  0  3.978373  0  0.036391  0  -0.069983  -0.121984  0  3.939997  0
C  C48  1  0.58701716  0.16369623  0.31100167  1  0  0.115873  0  3.67082  0  0  0.087326  0  3.914187  0  0  0.093059  0  3.931987  0  0.439833  0  0.045571  0.083366  0  3.903373  0
C  C49  1  0.41298204  0.83630303  0.68899932  1  0  0.115902  0  3.670787  0  0  0.087346  0  3.914159  0  0  0.093079  0  3.931958  0  0.439834  0  0.045561  0.083387  0  3.903343  0
C  C50  1  0.83147868  0.20448938  0.27107319  1  0  0.120902  0  3.672674  0  0  0.091272  0  3.918076  0  0  0.097147  0  3.93656  0  0.433369  0  0.044972  0.087372  0  3.906244  0
C  C51  1  0.16852052  0.79550988  0.72892618  1  0  0.120909  0  3.672702  0  0  0.091261  0  3.918124  0  0  0.097135  0  3.936609  0  0.433357  0  0.044943  0.087359  0  3.906294  0
C  C52  1  0.81480749  0.28630907  0.20359358  1  0  -0.089906  0  3.666796  0  0  -0.113329  0  3.909214  0  0  -0.118536  0  3.930936  0  0.032229  0  -0.064132  -0.109983  0  3.895211  0
C  C53  1  0.18519117  0.71368919  0.79640557  1  0  -0.08991  0  3.666742  0  0  -0.113322  0  3.909159  0  0  -0.118531  0  3.930881  0  0.032231  0  -0.064103  -0.109975  0  3.895155  0
C  C54  1  0.50053100  0.11897147  0.91250844  1  0  -0.095779  0  3.701306  0  0  -0.128923  0  3.95333  0  0  -0.127903  0  3.970827  0  -0.013441  0  -0.076866  -0.129365  0  3.941455  0
C  C55  1  0.49946928  0.88102978  0.08749057  1  0  -0.095814  0  3.701282  0  0  -0.129003  0  3.953269  0  0  -0.12798  0  3.970767  0  -0.013885  0  -0.076881  -0.129438  0  3.941397  0
C  C56  1  0.54871344  0.03639478  0.96731323  1  0  0.057414  0  3.775182  0  0  0.074558  0  4.000569  0  0  0.073691  0  4.025714  0  0.008569  0  -0.0039  0.07501  0  3.983551  0
C  C57  1  0.45128738  0.96360547  0.03268570  1  0  0.057442  0  3.775284  0  0  0.074566  0  4.000694  0  0  0.073696  0  4.02584  0  -0.049383  0  -0.003935  0.075019  0  3.983675  0
C  C58  1  0.69035791  0.02442243  0.95885631  1  0  -0.093683  0  3.695849  0  0  -0.111268  0  3.944535  0  0  -0.113633  0  3.964796  0  -0.000554  0  -0.079757  -0.109233  0  3.930479  0
C  C59  1  0.30964452  0.97557882  0.04114299  1  0  -0.093599  0  3.695904  0  0  -0.111185  0  3.944589  0  0  -0.113548  0  3.964847  0  -0.000352  0  -0.079729  -0.10915  0  3.930535  0
C  C60  1  0.26543115  0.05707112  0.98738586  1  0  -0.061748  0  3.737784  0  0  -0.089521  0  3.994183  0  0  -0.089924  0  4.013829  0  -0.049058  0  -0.080357  -0.089252  0  3.980634  0
C  C61  1  0.73457074  0.94292914  0.01261403  1  0  -0.061759  0  3.737798  0  0  -0.089558  0  3.994131  0  0  -0.089968  0  4.013784  0  -0.048776  0  -0.080359  -0.089282  0  3.980582  0
C  C62  1  0.36275351  0.12865487  0.92327551  1  0  -0.128885  0  3.76843  0  0  -0.103482  0  4.017478  0  0  -0.109686  0  4.038773  0  -0.189161  0  -0.017292  -0.099254  0  4.003139  0
C  C63  1  0.63724784  0.87134439  0.07672416  1  0  -0.129003  0  3.768563  0  0  -0.103444  0  4.017387  0  0  -0.109642  0  4.038681  0  -0.189213  0  -0.017307  -0.09923  0  4.003069  0
C  C64  1  0.34655517  0.21773137  0.53856809  1  0  0.139545  0  3.636457  0  0  0.111741  0  3.872879  0  0  0.11891  0  3.88934  0  0.425405  0  0.051794  0.106979  0  3.862307  0
C  C65  1  0.65344511  0.78226988  0.46143254  1  0  0.139547  0  3.636468  0  0  0.111774  0  3.872862  0  0  0.118942  0  3.889323  0  0.425524  0  0.051817  0.107012  0  3.862288  0
C  C66  1  0.35613662  0.30121467  0.46750965  1  0  -0.122378  0  3.711656  0  0  -0.145508  0  3.957695  0  0  -0.151959  0  3.979141  0  -0.04083  0  -0.075397  -0.141348  0  3.944843  0
C  C67  1  0.64386312  0.69878559  0.53249076  1  0  -0.122331  0  3.711687  0  0  -0.145483  0  3.957717  0  0  -0.151932  0  3.979162  0  -0.040924  0  -0.075392  -0.141322  0  3.944864  0
C  C68  1  0.26239260  0.24778293  0.35459449  1  0  -0.014334  0  3.744222  0  0  0.007817  0  3.969839  0  0  0.005839  0  3.990756  0  -0.005432  0  0.00065  0.009091  0  3.956988  0
C  C69  1  0.73760714  0.75221733  0.64540591  1  0  -0.014429  0  3.744311  0  0  0.007743  0  3.969909  0  0  0.005765  0  3.990825  0  -0.005575  0  0.000611  0.009018  0  3.957057  0
C  C70  1  0.16124486  0.11069036  0.31674738  1  0  -0.111384  0  3.688431  0  0  -0.13338  0  3.933162  0  0  -0.138467  0  3.952086  0  -0.027949  0  -0.073358  -0.130977  0  3.9224  0
C  C71  1  0.83875757  0.88930890  0.68325243  1  0  -0.111308  0  3.688385  0  0  -0.13335  0  3.933126  0  0  -0.138434  0  3.952046  0  -0.027824  0  -0.073343  -0.130947  0  3.922363  0
C  C72  1  0.15885823  0.03203231  0.39159621  1  0  0.124403  0  3.673325  0  0  0.092931  0  3.920491  0  0  0.101266  0  3.934499  0  0.463963  0  0.048349  0.087137  0  3.912305  0
C  C73  1  0.84114204  0.96796694  0.60840412  1  0  0.124418  0  3.673243  0  0  0.092968  0  3.920387  0  0  0.101302  0  3.934396  0  0.463976  0  0.04835  0.087174  0  3.912202  0
C  C74  1  0.67694924  0.30617954  0.18829411  1  0  -0.015741  0  3.696979  0  0  0.007242  0  3.91918  0  0  0.004776  0  3.939602  0  -0.034007  0  0.006996  0.008677  0  3.90554  0
C  C75  1  0.32305104  0.69381972  0.81170541  1  0  -0.015709  0  3.696982  0  0  0.007249  0  3.919212  0  0  0.004786  0  3.939632  0  -0.033927  0  0.00702  0.008686  0  3.905569  0
C  C76  1  0.64686053  0.38666376  0.11027258  1  0  0.71324  0  3.863875  0  0  0.66565  0  4.158956  0  0  0.700144  0  4.14736  0  1.595444  0  0.234504  0.642201  0  4.166386  0
C  C77  1  0.35313867  0.61333550  0.88972841  1  0  0.713217  0  3.863954  0  0  0.665625  0  4.159049  0  0  0.700121  0  4.147448  0  1.595462  0  0.234485  0.642177  0  4.166478  0
C  C78  1  0.27420330  0.33307843  0.27318066  1  0  0.609369  0  3.988361  0  0  0.565892  0  4.285751  0  0  0.599434  0  4.275807  0  1.548052  0  0.185819  0.543026  0  4.292047  0
C  C79  1  0.72579483  0.66692083  0.72681938  1  0  0.609311  0  3.988446  0  0  0.565846  0  4.285806  0  0  0.599387  0  4.275865  0  1.548048  0  0.185795  0.54298  0  4.2921  0
S  S80  1  0.30358530  0.22959601  0.84983525  1  0  1.384249  0  5.569945  0  0  1.290716  0  6.084534  0  0  1.339543  0  6.057479  0  3.201489  0  0.546747  1.256839  0  6.102228  0
S  S81  1  0.69641552  0.77040425  0.15016530  1  0  1.384328  0  5.569827  0  0  1.290736  0  6.084395  0  0  1.339582  0  6.057334  0  3.201482  0  0.546783  1.256864  0  6.102087  0
S  S82  1  0.21498901  0.71749313  0.27436676  1  0  1.341184  0  5.605386  0  0  1.248063  0  6.118887  0  0  1.295818  0  6.094359  0  3.19349  0  0.527801  1.215295  0  6.134746  0
S  S83  1  0.78501073  0.28250712  0.72563284  1  0  1.341103  0  5.605391  0  0  1.247992  0  6.118888  0  0  1.295741  0  6.094365  0  3.193474  0  0.527722  1.215224  0  6.134751  0
N  N84  1  0.25085360  0.08452454  0.50055599  1  0  -0.285902  0  3.443884  0  0  -0.195368  0  3.72839  0  0  -0.208759  0  3.736554  0  -1.223935  0  -0.380597  -0.187183  0  3.722908  0
N  N85  1  0.74914614  0.91547572  0.49944442  1  0  -0.285924  0  3.44397  0  0  -0.195418  0  3.728464  0  0  -0.208811  0  3.736644  0  -1.223959  0  -0.380611  -0.187233  0  3.722982  0
N  N86  1  0.71944503  0.14293212  0.32376759  1  0  -0.296211  0  3.47813  0  0  -0.209013  0  3.773275  0  0  -0.221704  0  3.781869  0  -1.232061  0  -0.384595  -0.201308  0  3.767362  0
N  N87  1  0.28055471  0.85706813  0.67623201  1  0  -0.296187  0  3.478152  0  0  -0.208984  0  3.773314  0  0  -0.221671  0  3.781889  0  -1.232075  0  -0.384587  -0.20128  0  3.767401  0
O  O88  1  0.18046768  0.27711239  0.17210869  1  0  -0.695051  0  1.958156  0  0  -0.657092  0  2.199642  0  0  -0.680018  0  2.189302  0  -1.174405  0  -0.392285  -0.640889  0  2.206388  0
O  O89  1  0.81953206  0.72288787  0.82789172  1  0  -0.695035  0  1.95817  0  0  -0.657081  0  2.199641  0  0  -0.680008  0  2.189307  0  -1.174401  0  -0.392269  -0.640877  0  2.206384  0
O  O90  1  0.37901167  0.45465401  0.30358562  1  0  -0.670692  0  1.944598  0  0  -0.633203  0  2.182954  0  0  -0.655852  0  2.173477  0  -1.183481  0  -0.355386  -0.617191  0  2.189388  0
O  O91  1  0.62098807  0.54534624  0.69641398  1  0  -0.670612  0  1.944626  0  0  -0.633133  0  2.182975  0  0  -0.655779  0  2.173498  0  -1.183488  0  -0.355357  -0.617121  0  2.189409  0
O  O92  1  0.22293240  0.60749793  0.19550458  1  0  -0.808502  0  2.060577  0  0  -0.757982  0  2.339994  0  0  -0.78022  0  2.32367  0  -1.355148  0  -0.440843  -0.742155  0  2.350783  0
O  O93  1  0.77706626  0.39250232  0.80449568  1  0  -0.808479  0  2.060497  0  0  -0.757953  0  2.339896  0  0  -0.78019  0  2.323573  0  -1.355151  0  -0.440844  -0.742126  0  2.350686  0
O  O94  1  0.23388041  0.29312306  0.92418309  1  0  -0.761977  0  2.036398  0  0  -0.715138  0  2.311042  0  0  -0.736184  0  2.293938  0  -1.341313  0  -0.404221  -0.699768  0  2.322136  0
O  O95  1  0.76611933  0.70687520  0.07581620  1  0  -0.762004  0  2.036418  0  0  -0.715132  0  2.31102  0  0  -0.736192  0  2.293915  0  -1.341318  0  -0.404232  -0.699764  0  2.322114  0
O  O96  1  0.11932637  0.77134077  0.21128110  1  0  -0.657073  0  1.964484  0  0  -0.598474  0  2.197558  0  0  -0.619911  0  2.184052  0  -1.334657  0  -0.323365  -0.583452  0  2.206621  0
O  O97  1  0.88067391  0.22866048  0.78871872  1  0  -0.657031  0  1.964475  0  0  -0.598439  0  2.197556  0  0  -0.619867  0  2.184049  0  -1.334631  0  -0.323334  -0.583414  0  2.206619  0
O  O98  1  0.37192690  0.81834152  0.34620319  1  0  -0.661392  0  1.922529  0  0  -0.623674  0  2.184296  0  0  -0.642908  0  2.168463  0  -1.337979  0  -0.337258  -0.610148  0  2.194517  0
O  O99  1  0.62807284  0.18165874  0.65379480  1  0  -0.661377  0  1.922594  0  0  -0.623657  0  2.184358  0  0  -0.642897  0  2.168528  0  -1.337963  0  -0.337202  -0.610135  0  2.194582  0
O  O100  1  0.52498066  0.40867656  0.10615847  1  0  -0.780195  0  2.109242  0  0  -0.743206  0  2.381938  0  0  -0.766822  0  2.36919  0  -1.204346  0  -0.390749  -0.727119  0  2.390444  0
O  O101  1  0.47501854  0.59132269  0.89384091  1  0  -0.780161  0  2.109279  0  0  -0.743158  0  2.381948  0  0  -0.766774  0  2.369196  0  -1.204333  0  -0.39073  -0.727071  0  2.390451  0
O  O102  1  0.45204250  0.32797991  0.83212372  1  0  -0.78694  0  2.088992  0  0  -0.743973  0  2.373085  0  0  -0.76412  0  2.354738  0  -1.357909  0  -0.408003  -0.729602  0  2.38537  0
O  O103  1  0.54795724  0.67202035  0.16787668  1  0  -0.786968  0  2.088861  0  0  -0.743981  0  2.372937  0  0  -0.764131  0  2.354587  0  -1.357903  0  -0.408005  -0.729611  0  2.385219  0
O  O104  1  0.18678384  0.14118774  0.74295710  1  0  -0.653403  0  1.954353  0  0  -0.603197  0  2.216395  0  0  -0.625022  0  2.201692  0  -1.335227  0  -0.323519  -0.587645  0  2.225932  0
O  O105  1  0.81321590  0.85881252  0.25704331  1  0  -0.653412  0  1.954336  0  0  -0.603202  0  2.216384  0  0  -0.625033  0  2.201679  0  -1.335242  0  -0.323528  -0.587649  0  2.225918  0
O  O106  1  0.74387571  0.42630695  0.04997389  1  0  -0.723315  0  2.039895  0  0  -0.675451  0  2.286741  0  0  -0.699919  0  2.275815  0  -1.200669  0  -0.371547  -0.658626  0  2.293944  0
O  O107  1  0.25612134  0.57369230  0.95002600  1  0  -0.723357  0  2.039931  0  0  -0.675489  0  2.286775  0  0  -0.699959  0  2.275845  0  -1.200706  0  -0.371567  -0.658665  0  2.293977  0
O  O108  1  0.01391770  0.36838508  0.01015884  1  0  -0.907261  0  1.863966  0  0  -0.866948  0  2.060069  0  0  -0.883926  0  2.027658  0  -1.283898  0  -0.637237  -0.855034  0  2.083157  0
O  O109  1  0.98608204  0.63161517  0.98984238  1  0  -0.907271  0  1.863936  0  0  -0.866976  0  2.060062  0  0  -0.883953  0  2.027648  0  -1.283907  0  -0.63722  -0.855062  0  2.083149  0
