# generated using pymatgen
data_Mg2H4C5(NO3)2
_symmetry_space_group_name_H-M   'P 1'
_cell_length_a   8.34188002
_cell_length_b   15.30107803
_cell_length_c   15.30109847
_cell_angle_alpha   89.99985801
_cell_angle_beta   90.00011805
_cell_angle_gamma   89.99988680
_symmetry_Int_Tables_number   1
_chemical_formula_structural   Mg2H4C5(NO3)2
_chemical_formula_sum   'Mg16 H32 C40 N16 O48'
_cell_volume   1953.02849273
_cell_formula_units_Z   8
loop_
 _symmetry_equiv_pos_site_id
 _symmetry_equiv_pos_as_xyz
  1  'x, y, z'
loop_
 _atom_site_type_symbol
 _atom_site_label
 _atom_site_symmetry_multiplicity
 _atom_site_fract_x
 _atom_site_fract_y
 _atom_site_fract_z
 _atom_site_occupancy
 _atom_site_pbe_bader_charge
 _atom_site_pbe_bader_spin_density
 _atom_site_pbe_cm5_charge
 _atom_site_pbe_ddec_charge
 _atom_site_pbe_ddec_spin_density
 _atom_site_pbe_ddec_sum_bond_order
 _atom_site_pbe_magmom
Mg  Mg0  1  0.36980562  0.11044764  0.99906886  1  1.674071  0  0.83062  1.345784  0  1.460062  0
Mg  Mg1  1  0.86980711  0.88955254  0.00093004  1  1.674072  0  0.830602  1.345755  0  1.46014  0
Mg  Mg2  1  0.61980537  0.50092963  0.61044871  1  1.674107  0  0.830586  1.345751  0  1.459959  0
Mg  Mg3  1  0.11980736  0.49907082  0.38955122  1  1.674083  0  0.830543  1.345667  0  1.46014  0
Mg  Mg4  1  0.88019271  0.38955185  0.49907072  1  1.674076  0  0.830569  1.345736  0  1.460079  0
Mg  Mg5  1  0.38019232  0.61044963  0.50092885  1  1.67409  0  0.830578  1.345717  0  1.460026  0
Mg  Mg6  1  0.63019447  0.99906965  0.11044739  1  1.674044  0  0.83064  1.345831  0  1.459944  0
Mg  Mg7  1  0.13019416  0.00092948  0.88955189  1  1.674102  0  0.830644  1.345819  0  1.459987  0
Mg  Mg8  1  0.00000001  0.09990722  0.09990643  1  1.688403  0  0.803725  1.419658  0  1.344532  0
Mg  Mg9  1  0.00000122  0.24732933  0.24732900  1  1.665427  0  0.877187  1.226643  0  1.605786  0
Mg  Mg10  1  0.50000007  0.90009337  0.90009402  1  1.688421  0  0.803704  1.419626  0  1.344581  0
Mg  Mg11  1  0.50000006  0.75266995  0.75267080  1  1.665448  0  0.877152  1.226636  0  1.605833  0
Mg  Mg12  1  0.24999921  0.40009446  0.59990625  1  1.688371  0  0.803726  1.419691  0  1.344595  0
Mg  Mg13  1  0.24999976  0.25267003  0.74733114  1  1.665485  0  0.87715  1.226585  0  1.605974  0
Mg  Mg14  1  0.74999847  0.59990585  0.40009448  1  1.688371  0  0.803718  1.419708  0  1.344525  0
Mg  Mg15  1  0.74999912  0.74732898  0.25266959  1  1.665455  0  0.877169  1.22658  0  1.605994  0
H  H16  1  0.93121771  0.37302207  0.12971036  1  0.599956  0  0.33501  0.406645  0  0.868969  0
H  H17  1  0.85505273  0.28444931  0.09864468  1  0.625192  0  0.308799  0.397382  0  0.927598  0
H  H18  1  0.92932862  0.95604699  0.14479809  1  0.605189  0  0.305592  0.387355  0  0.940193  0
H  H19  1  0.55478707  0.37235690  0.17980393  1  0.149067  0  0.108542  0.140658  0  1.019507  0
H  H20  1  0.43122225  0.62697804  0.87029058  1  0.600069  0  0.335027  0.406712  0  0.868979  0
H  H21  1  0.35505586  0.71555089  0.90135944  1  0.625155  0  0.308779  0.397347  0  0.927639  0
H  H22  1  0.42932922  0.04395247  0.85519892  1  0.605143  0  0.305597  0.38734  0  0.940192  0
H  H23  1  0.05478423  0.62764231  0.82019592  1  0.149098  0  0.108505  0.140575  0  1.019465  0
H  H24  1  0.18122032  0.37029103  0.87302455  1  0.599899  0  0.335005  0.406652  0  0.868895  0
H  H25  1  0.10505621  0.40135697  0.78444978  1  0.625239  0  0.308781  0.397346  0  0.927653  0
H  H26  1  0.17933030  0.35519849  0.45604600  1  0.605142  0  0.305587  0.38735  0  0.940186  0
H  H27  1  0.80478368  0.32019488  0.87235376  1  0.149163  0  0.108501  0.140583  0  1.019552  0
H  H28  1  0.68122443  0.62970805  0.12697676  1  0.600045  0  0.33501  0.406678  0  0.868983  0
H  H29  1  0.60505598  0.59864023  0.21555144  1  0.625142  0  0.308767  0.397329  0  0.927661  0
H  H30  1  0.67932754  0.64479993  0.54395203  1  0.605185  0  0.305611  0.387382  0  0.940153  0
H  H31  1  0.30478402  0.67980537  0.12764572  1  0.149199  0  0.108503  0.140593  0  1.019529  0
H  H32  1  0.31877922  0.12697638  0.62970841  1  0.599912  0  0.335017  0.40666  0  0.868888  0
H  H33  1  0.39494648  0.21555183  0.59864063  1  0.625142  0  0.308788  0.39733  0  0.927654  0
H  H34  1  0.32066776  0.54395351  0.64480289  1  0.605103  0  0.30558  0.387317  0  0.940225  0
H  H35  1  0.69521604  0.12764534  0.67980698  1  0.149207  0  0.108495  0.140577  0  1.019569  0
H  H36  1  0.81878217  0.87302125  0.37028979  1  0.599972  0  0.335027  0.40666  0  0.868948  0
H  H37  1  0.89494508  0.78444702  0.40135764  1  0.62516  0  0.308771  0.397299  0  0.927711  0
H  H38  1  0.82067336  0.45604738  0.35520119  1  0.605206  0  0.305601  0.387357  0  0.940189  0
H  H39  1  0.19521641  0.87235372  0.32019303  1  0.149044  0  0.10851  0.140613  0  1.019541  0
H  H40  1  0.06878113  0.12970801  0.37302081  1  0.600098  0  0.334994  0.406672  0  0.868917  0
H  H41  1  0.14494610  0.09863902  0.28444555  1  0.625091  0  0.308779  0.397311  0  0.92767  0
H  H42  1  0.07067147  0.14479773  0.95604691  1  0.605185  0  0.305599  0.387291  0  0.94028  0
H  H43  1  0.44521297  0.17980428  0.37235695  1  0.149178  0  0.108527  0.14063  0  1.019494  0
H  H44  1  0.56878027  0.87029119  0.62697906  1  0.600092  0  0.335009  0.406665  0  0.868974  0
H  H45  1  0.64494546  0.90136140  0.71555245  1  0.625115  0  0.308761  0.39729  0  0.927706  0
H  H46  1  0.57067325  0.85520082  0.04395493  1  0.605174  0  0.305622  0.387321  0  0.940226  0
H  H47  1  0.94521109  0.82019713  0.62764269  1  0.14904  0  0.108568  0.140686  0  1.019509  0
C  C48  1  0.27743128  0.24465042  0.13437190  1  1.567631  0  0.23298  0.623207  0  4.175853  0
C  C49  1  0.45985410  0.49685780  0.33158368  1  1.592402  0  0.245027  0.627424  0  4.144737  0
C  C50  1  0.38525584  0.42665435  0.27989593  1  0.351108  0  0.069584  0.01007  0  4.034041  0
C  C51  1  0.30712720  0.31827325  0.19490212  1  0.363777  0  0.065185  0.012207  0  4.028778  0
C  C52  1  0.43815994  0.37321111  0.21106568  1  0.003169  0  -0.097419  -0.200591  0  3.915263  0
C  C53  1  0.77743053  0.75535313  0.86562689  1  1.567611  0  0.232911  0.623202  0  4.175722  0
C  C54  1  0.95984873  0.50314229  0.66841794  1  1.592225  0  0.244955  0.627357  0  4.14449  0
C  C55  1  0.88525281  0.57334385  0.72010626  1  0.351247  0  0.069518  0.009882  0  4.033944  0
C  C56  1  0.80712530  0.68172831  0.80509998  1  0.363785  0  0.065193  0.012037  0  4.028924  0
C  C57  1  0.93815578  0.62679030  0.78893657  1  0.002949  0  -0.097317  -0.200276  0  3.914998  0
C  C58  1  0.52743221  0.36563251  0.74465030  1  1.567754  0  0.232956  0.623139  0  4.176151  0
C  C59  1  0.70984516  0.16841854  0.99685411  1  1.592186  0  0.244901  0.627408  0  4.145194  0
C  C60  1  0.63524904  0.22010588  0.92665447  1  0.351117  0  0.069604  0.010084  0  4.033859  0
C  C61  1  0.55712721  0.30509745  0.81827060  1  0.363751  0  0.065116  0.01206  0  4.028903  0
C  C62  1  0.68815775  0.28893505  0.87320988  1  0.002917  0  -0.097341  -0.200413  0  3.915125  0
C  C63  1  0.02743919  0.63437327  0.25535018  1  1.567528  0  0.232872  0.623163  0  4.176275  0
C  C64  1  0.20985767  0.83158312  0.00314265  1  1.592618  0  0.244919  0.627326  0  4.144643  0
C  C65  1  0.13525241  0.77989587  0.07334613  1  0.351365  0  0.069577  0.010021  0  4.033926  0
C  C66  1  0.05712410  0.69490176  0.18172795  1  0.363679  0  0.065143  0.01212  0  4.02901  0
C  C67  1  0.18815678  0.71106402  0.12679143  1  0.002766  0  -0.097337  -0.200435  0  3.91513  0
C  C68  1  0.97256807  0.25535129  0.63437233  1  1.567473  0  0.232872  0.623138  0  4.176275  0
C  C69  1  0.79014839  0.00314473  0.83158518  1  1.592415  0  0.244974  0.627526  0  4.144707  0
C  C70  1  0.86474406  0.07334699  0.77989930  1  0.351294  0  0.069533  0.009974  0  4.033985  0
C  C71  1  0.94287237  0.18172896  0.69490270  1  0.363729  0  0.065171  0.012165  0  4.02881  0
C  C72  1  0.81184089  0.12679236  0.71106689  1  0.002542  0  -0.097315  -0.20043  0  3.915193  0
C  C73  1  0.47256308  0.74464552  0.36563126  1  1.567508  0  0.232915  0.623044  0  4.176164  0
C  C74  1  0.29015493  0.99685162  0.16841625  1  1.592139  0  0.244909  0.627475  0  4.144608  0
C  C75  1  0.36474745  0.92665254  0.22010221  1  0.351192  0  0.069482  0.009875  0  4.03397  0
C  C76  1  0.44287528  0.81826918  0.30509563  1  0.363712  0  0.06514  0.012184  0  4.028701  0
C  C77  1  0.31184114  0.87320919  0.28893260  1  0.002752  0  -0.09731  -0.200437  0  3.915081  0
C  C78  1  0.72256755  0.13437154  0.24464869  1  1.567618  0  0.232955  0.623191  0  4.175795  0
C  C79  1  0.54014477  0.33158553  0.49685638  1  1.592386  0  0.244991  0.62744  0  4.144653  0
C  C80  1  0.61474062  0.27989576  0.42665499  1  0.351125  0  0.069547  0.009946  0  4.033879  0
C  C81  1  0.69287164  0.19490119  0.31827076  1  0.363777  0  0.065189  0.012163  0  4.028919  0
C  C82  1  0.56184130  0.21106476  0.37320790  1  0.002768  0  -0.097342  -0.200452  0  3.915179  0
C  C83  1  0.22256720  0.86562946  0.75535136  1  1.567588  0  0.23298  0.623277  0  4.175961  0
C  C84  1  0.04014537  0.66841500  0.50314608  1  1.592277  0  0.244894  0.627379  0  4.144733  0
C  C85  1  0.11474729  0.72010601  0.57334298  1  0.351349  0  0.069548  0.009951  0  4.033979  0
C  C86  1  0.19287122  0.80509853  0.68172860  1  0.363828  0  0.065153  0.012157  0  4.028781  0
C  C87  1  0.06183833  0.78893445  0.62679066  1  0.002651  0  -0.097399  -0.200543  0  3.915224  0
N  N88  1  0.23216693  0.40431807  0.30246550  1  -0.745649  0  -0.268598  -0.261308  0  3.48858  0
N  N89  1  0.18505647  0.33917177  0.25134896  1  -0.78609  0  -0.303076  -0.306241  0  3.521306  0
N  N90  1  0.73216373  0.59568095  0.69753521  1  -0.745616  0  -0.268585  -0.261236  0  3.488548  0
N  N91  1  0.68505922  0.66082600  0.74865300  1  -0.786061  0  -0.303096  -0.306258  0  3.521453  0
N  N92  1  0.48215885  0.19753307  0.90432007  1  -0.745624  0  -0.268678  -0.261404  0  3.488523  0
N  N93  1  0.43505894  0.24864983  0.83917302  1  -0.786063  0  -0.303034  -0.306141  0  3.521467  0
N  N94  1  0.98216462  0.80246699  0.09568288  1  -0.745607  0  -0.268626  -0.261331  0  3.488586  0
N  N95  1  0.93505794  0.75134832  0.16082726  1  -0.786098  0  -0.303077  -0.306216  0  3.521468  0
N  N96  1  0.01783426  0.09568310  0.80246908  1  -0.745585  0  -0.268619  -0.26128  0  3.488418  0
N  N97  1  0.06493973  0.16082626  0.75135112  1  -0.786053  0  -0.303092  -0.306296  0  3.521322  0
N  N98  1  0.51783884  0.90431550  0.19752878  1  -0.745564  0  -0.268509  -0.261175  0  3.488178  0
N  N99  1  0.56494114  0.83917098  0.24864744  1  -0.786009  0  -0.303149  -0.306295  0  3.521412  0
N  N100  1  0.76783313  0.30246601  0.40431613  1  -0.745598  0  -0.268593  -0.26126  0  3.488463  0
N  N101  1  0.81493878  0.25134940  0.33917187  1  -0.786018  0  -0.303079  -0.306247  0  3.521396  0
N  N102  1  0.26783997  0.69753755  0.59567678  1  -0.74571  0  -0.268666  -0.261333  0  3.488563  0
N  N103  1  0.31494329  0.74865214  0.66082435  1  -0.786029  0  -0.302993  -0.306204  0  3.521341  0
O  O104  1  0.37969953  0.22168212  0.07882173  1  -1.224905  0  -0.330137  -0.595589  0  2.239264  0
O  O105  1  0.87312172  0.98581296  0.09757069  1  -1.420887  0  -0.696958  -1.113492  0  2.001  0
O  O106  1  0.13848427  0.20732174  0.14396073  1  -1.285801  0  -0.394313  -0.733767  0  2.392822  0
O  O107  1  0.37627349  0.52446366  0.39664037  1  -1.26842  0  -0.351964  -0.667977  0  2.324558  0
O  O108  1  0.86657414  0.32406410  0.14972855  1  -1.233228  0  -0.572288  -0.773354  0  2.002651  0
O  O109  1  0.59846425  0.52608314  0.31187533  1  -1.243345  0  -0.326958  -0.621456  0  2.230982  0
O  O110  1  0.87970011  0.77832263  0.92117784  1  -1.22493  0  -0.330119  -0.595599  0  2.239125  0
O  O111  1  0.37312740  0.01418984  0.90243083  1  -1.420856  0  -0.696983  -1.113505  0  2.00109  0
O  O112  1  0.63848575  0.79267869  0.85603726  1  -1.285823  0  -0.394283  -0.733711  0  2.392916  0
O  O113  1  0.87627397  0.47553913  0.60335724  1  -1.26742  0  -0.351934  -0.667981  0  2.324438  0
O  O114  1  0.36656763  0.67593413  0.85027492  1  -1.233288  0  -0.572293  -0.77339  0  2.002674  0
O  O115  1  0.09845547  0.47391145  0.68812784  1  -1.243287  0  -0.32693  -0.621363  0  2.230915  0
O  O116  1  0.62967641  0.42117563  0.72169050  1  -1.225096  0  -0.330013  -0.5954  0  2.239801  0
O  O117  1  0.12312112  0.40242457  0.48581502  1  -1.421496  0  -0.696952  -1.113527  0  2.001159  0
O  O118  1  0.38847188  0.35603657  0.70732416  1  -1.285788  0  -0.394368  -0.73384  0  2.392745  0
O  O119  1  0.62625677  0.10336032  0.02446513  1  -1.267849  0  -0.351926  -0.668032  0  2.324424  0
O  O120  1  0.11656578  0.35027554  0.82406596  1  -1.233173  0  -0.572289  -0.773338  0  2.002574  0
O  O121  1  0.84844274  0.18812090  0.02607615  1  -1.243247  0  -0.326931  -0.621492  0  2.231668  0
O  O122  1  0.12968128  0.57883135  0.27831271  1  -1.224797  0  -0.329985  -0.595439  0  2.23987  0
O  O123  1  0.62312321  0.59757326  0.51418557  1  -1.421554  0  -0.696967  -1.113582  0  2.001145  0
O  O124  1  0.88848016  0.64396620  0.29267803  1  -1.285825  0  -0.394348  -0.733837  0  2.392714  0
O  O125  1  0.12626912  0.89664339  0.97553546  1  -1.267531  0  -0.351943  -0.668016  0  2.324263  0
O  O126  1  0.61657240  0.64972426  0.17593528  1  -1.233281  0  -0.572277  -0.773335  0  2.002721  0
O  O127  1  0.34845060  0.81187343  0.97392012  1  -1.24351  0  -0.326861  -0.621344  0  2.231386  0
O  O128  1  0.87032359  0.27831450  0.57882917  1  -1.224733  0  -0.329991  -0.595455  0  2.239881  0
O  O129  1  0.37686968  0.51418505  0.59757432  1  -1.420831  0  -0.69694  -1.113502  0  2.00117  0
O  O130  1  0.11152471  0.29267721  0.64396850  1  -1.286128  0  -0.394326  -0.733752  0  2.392684  0
O  O131  1  0.87373343  0.97553818  0.89664406  1  -1.268504  0  -0.351949  -0.668038  0  2.324205  0
O  O132  1  0.38342887  0.17593627  0.64972525  1  -1.23314  0  -0.572297  -0.77331  0  2.002631  0
O  O133  1  0.65154954  0.97392087  0.81188401  1  -1.243241  0  -0.32693  -0.621514  0  2.231468  0
O  O134  1  0.37031170  0.72168830  0.42117234  1  -1.224928  0  -0.329992  -0.59539  0  2.239782  0
O  O135  1  0.87687775  0.48581643  0.40242459  1  -1.42088  0  -0.696964  -1.113528  0  2.001158  0
O  O136  1  0.61152581  0.70731802  0.35603207  1  -1.286028  0  -0.394349  -0.733739  0  2.392631  0
O  O137  1  0.37373245  0.02445742  0.10335354  1  -1.267579  0  -0.351894  -0.667983  0  2.324191  0
O  O138  1  0.88342952  0.82406260  0.35027367  1  -1.233197  0  -0.572302  -0.773289  0  2.002698  0
O  O139  1  0.15155607  0.02608085  0.18811923  1  -1.243192  0  -0.326927  -0.621517  0  2.231291  0
O  O140  1  0.62030050  0.07881998  0.22167976  1  -1.224959  0  -0.330153  -0.595634  0  2.239182  0
O  O141  1  0.12687956  0.09756896  0.98580957  1  -1.421551  0  -0.697015  -1.113462  0  2.00113  0
O  O142  1  0.86151696  0.14396168  0.20732267  1  -1.286105  0  -0.394291  -0.733738  0  2.392869  0
O  O143  1  0.62373377  0.39664100  0.52446220  1  -1.268178  0  -0.351947  -0.668001  0  2.324437  0
O  O144  1  0.13343189  0.14972492  0.32406420  1  -1.233298  0  -0.572265  -0.77332  0  2.00259  0
O  O145  1  0.40153581  0.31188042  0.52608298  1  -1.243297  0  -0.326953  -0.62148  0  2.231077  0
O  O146  1  0.12031800  0.92118112  0.77831756  1  -1.224875  0  -0.330109  -0.595575  0  2.239495  0
O  O147  1  0.62688466  0.90242952  0.01419299  1  -1.42155  0  -0.69704  -1.1135  0  2.001114  0
O  O148  1  0.36152277  0.85603589  0.79267230  1  -1.286158  0  -0.394309  -0.733812  0  2.392895  0
O  O149  1  0.12372132  0.60335749  0.47554361  1  -1.267746  0  -0.351887  -0.66791  0  2.324487  0
O  O150  1  0.63343369  0.85027617  0.67593443  1  -1.233299  0  -0.572262  -0.773293  0  2.002698  0
O  O151  1  0.90153623  0.68812234  0.47392118  1  -1.243231  0  -0.326918  -0.621469  0  2.231098  0
