# generated using pymatgen
data_Zn4H54C78N18O13
_symmetry_space_group_name_H-M   'P 1'
_cell_length_a   17.80915648
_cell_length_b   19.13879797
_cell_length_c   19.13878248
_cell_angle_alpha   120.00024186
_cell_angle_beta   90.00006050
_cell_angle_gamma   89.99996603
_symmetry_Int_Tables_number   1
_chemical_formula_structural   Zn4H54C78N18O13
_chemical_formula_sum   'Zn8 H108 C156 N36 O26'
_cell_volume   5649.39430719
_cell_formula_units_Z   2
loop_
 _symmetry_equiv_pos_site_id
 _symmetry_equiv_pos_as_xyz
  1  'x, y, z'
loop_
 _atom_site_type_symbol
 _atom_site_label
 _atom_site_symmetry_multiplicity
 _atom_site_fract_x
 _atom_site_fract_y
 _atom_site_fract_z
 _atom_site_occupancy
 _atom_site_pbe_bader_charge
 _atom_site_pbe_bader_spin_density
 _atom_site_pbe_cm5_charge
 _atom_site_pbe_ddec_charge
 _atom_site_pbe_ddec_spin_density
 _atom_site_pbe_ddec_sum_bond_order
 _atom_site_pbe_magmom
Zn  Zn0  1  0.40009978  0.66666661  0.33333433  1  1.303622  0  0.664935  0.935517  0  2.413999  0
Zn  Zn1  1  0.90009905  0.33333418  0.66666646  1  1.303611  0  0.66497  0.935647  0  2.41386  0
Zn  Zn2  1  0.03478458  0.25940083  0.55206642  1  1.296429  0  0.676928  0.869104  0  2.369965  0
Zn  Zn3  1  0.03478580  0.29266683  0.74059804  1  1.296788  0  0.676903  0.869066  0  2.369995  0
Zn  Zn4  1  0.53478494  0.74059871  0.29266774  1  1.296798  0  0.676928  0.869123  0  2.369922  0
Zn  Zn5  1  0.03478630  0.44793191  0.70733364  1  1.294419  0  0.676936  0.869131  0  2.369963  0
Zn  Zn6  1  0.53478555  0.55206601  0.25939994  1  1.296435  0  0.676933  0.869122  0  2.369913  0
Zn  Zn7  1  0.53478448  0.70733182  0.44793040  1  1.294259  0  0.676894  0.869044  0  2.370006  0
H  H8  1  0.25856360  0.84925998  0.42879912  1  0.09877  0  0.106934  0.106611  0  1.042363  0
H  H9  1  0.25856352  0.57953792  0.15073951  1  0.09333  0  0.106908  0.106563  0  1.042358  0
H  H10  1  0.75856288  0.15074063  0.57953875  1  0.093198  0  0.106915  0.106581  0  1.04239  0
H  H11  1  0.25856368  0.57120045  0.42046146  1  0.092341  0  0.106917  0.106595  0  1.042354  0
H  H12  1  0.75856351  0.42879904  0.84925991  1  0.098772  0  0.106893  0.106559  0  1.042354  0
H  H13  1  0.75856335  0.42046094  0.57120038  1  0.092333  0  0.106902  0.106569  0  1.042381  0
H  H14  1  0.18268858  0.97642701  0.50593931  1  0.09547  0  0.109684  0.119607  0  1.003652  0
H  H15  1  0.18268958  0.52951162  0.02357205  1  0.096159  0  0.109702  0.119613  0  1.003653  0
H  H16  1  0.68268956  0.02357332  0.52951243  1  0.096212  0  0.109697  0.119635  0  1.003632  0
H  H17  1  0.18268872  0.49406012  0.47048719  1  0.094762  0  0.109708  0.119634  0  1.00368  0
H  H18  1  0.68268854  0.50593978  0.97642751  1  0.095448  0  0.109685  0.119612  0  1.003633  0
H  H19  1  0.68268884  0.47048744  0.49406012  1  0.094754  0  0.109704  0.119623  0  1.003691  0
H  H20  1  0.35933224  0.11002307  0.47110087  1  0.103673  0  0.105129  0.112217  0  1.034707  0
H  H21  1  0.35933352  0.36107807  0.88997690  1  0.121552  0  0.105137  0.112197  0  1.034716  0
H  H22  1  0.85933259  0.88997840  0.36107907  1  0.121611  0  0.105124  0.112198  0  1.034755  0
H  H23  1  0.35933277  0.52889913  0.63892214  1  0.10231  0  0.105132  0.112204  0  1.034687  0
H  H24  1  0.85933202  0.47110112  0.11002245  1  0.103693  0  0.105128  0.112198  0  1.034738  0
H  H25  1  0.85933277  0.63892071  0.52889955  1  0.10233  0  0.105129  0.112195  0  1.034739  0
H  H26  1  0.43399688  0.98206720  0.39416872  1  0.074287  0  0.111572  0.11634  0  0.984859  0
H  H27  1  0.43399797  0.41209893  0.01793283  1  0.073604  0  0.111576  0.116378  0  0.984888  0
H  H28  1  0.93399786  0.01793339  0.41209922  1  0.073302  0  0.111591  0.116372  0  0.9849  0
H  H29  1  0.43399824  0.60583242  0.58789961  1  0.07923  0  0.111612  0.116422  0  0.984889  0
H  H30  1  0.93399750  0.39416815  0.98206686  1  0.074285  0  0.111539  0.116275  0  0.984836  0
H  H31  1  0.93399779  0.58789883  0.60583239  1  0.079244  0  0.111583  0.116375  0  0.984862  0
H  H32  1  0.09137060  0.11291703  0.39757819  1  0.13378  0  0.110719  0.182035  0  1.002308  0
H  H33  1  0.09137139  0.28466124  0.88708221  1  0.137254  0  0.11072  0.182052  0  1.002298  0
H  H34  1  0.59137152  0.88708276  0.28466097  1  0.137111  0  0.110695  0.182004  0  1.002367  0
H  H35  1  0.09137119  0.60242152  0.71533861  1  0.132926  0  0.11072  0.182061  0  1.002309  0
H  H36  1  0.59137157  0.39757836  0.11291661  1  0.133792  0  0.110696  0.182008  0  1.00236  0
H  H37  1  0.59137119  0.71533922  0.60242199  1  0.133019  0  0.110724  0.182048  0  1.002298  0
H  H38  1  0.12134398  0.02272687  0.39708317  1  0.071875  0  0.103829  0.151589  0  0.980062  0
H  H39  1  0.12134476  0.37435665  0.97727241  1  0.075222  0  0.103802  0.151561  0  0.980084  0
H  H40  1  0.62134488  0.97727229  0.37435704  1  0.075229  0  0.103809  0.151565  0  0.980076  0
H  H41  1  0.12134505  0.60291567  0.62564408  1  0.072207  0  0.103834  0.15163  0  0.98009  0
H  H42  1  0.62134487  0.39708371  0.02272802  1  0.071877  0  0.103824  0.151574  0  0.980101  0
H  H43  1  0.62134512  0.62564334  0.60291658  1  0.072262  0  0.103812  0.151577  0  0.980048  0
H  H44  1  0.18514764  0.07705740  0.37048799  1  0.077394  0  0.10383  0.152123  0  0.979234  0
H  H45  1  0.18514845  0.29343147  0.92294198  1  0.078692  0  0.103826  0.152117  0  0.979258  0
H  H46  1  0.68514855  0.92294163  0.29343102  1  0.078684  0  0.103833  0.152113  0  0.979211  0
H  H47  1  0.18514766  0.62951038  0.70656865  1  0.077669  0  0.10386  0.152203  0  0.979222  0
H  H48  1  0.68514860  0.37048864  0.07705753  1  0.077541  0  0.103837  0.152125  0  0.979191  0
H  H49  1  0.68514825  0.70656945  0.62951175  1  0.077646  0  0.103844  0.152163  0  0.979245  0
H  H50  1  0.59553757  0.97032877  0.71317674  1  0.084729  0  0.104815  0.109003  0  1.001632  0
H  H51  1  0.59553725  0.74284868  0.02967183  1  0.08315  0  0.104807  0.108996  0  1.001682  0
H  H52  1  0.09553722  0.02967095  0.74284736  1  0.08318  0  0.104829  0.109  0  1.001651  0
H  H53  1  0.59553640  0.28682438  0.25715371  1  0.12554  0  0.104834  0.109038  0  1.001623  0
H  H54  1  0.09553713  0.71317599  0.97032867  1  0.084744  0  0.104827  0.109024  0  1.001632  0
H  H55  1  0.09553689  0.25715225  0.28682358  1  0.125509  0  0.104825  0.109057  0  1.001618  0
H  H56  1  0.59320537  0.12200748  0.78149573  1  0.08861  0  0.106072  0.112644  0  0.991456  0
H  H57  1  0.59320469  0.65948833  0.87799317  1  0.051143  0  0.106071  0.112631  0  0.991465  0
H  H58  1  0.09320496  0.87799207  0.65948781  1  0.051126  0  0.106047  0.112589  0  0.99151  0
H  H59  1  0.59320565  0.21850414  0.34051164  1  0.047066  0  0.106037  0.112608  0  0.991478  0
H  H60  1  0.09320525  0.78149579  0.12200717  1  0.088361  0  0.106067  0.112632  0  0.991456  0
H  H61  1  0.09320544  0.34051141  0.21850396  1  0.047063  0  0.106075  0.112641  0  0.991474  0
H  H62  1  0.49082140  0.10661300  0.57069306  1  0.13841  0  0.105418  0.118291  0  1.04848  0
H  H63  1  0.49082147  0.46407962  0.89338578  1  0.134182  0  0.10542  0.118284  0  1.048523  0
H  H64  1  0.99082175  0.89338562  0.46408035  1  0.134204  0  0.105393  0.118267  0  1.048451  0
H  H65  1  0.49082128  0.42930607  0.53591968  1  0.145145  0  0.105425  0.118282  0  1.048498  0
H  H66  1  0.99082165  0.57069314  0.10661239  1  0.138438  0  0.105395  0.118253  0  1.048492  0
H  H67  1  0.99082128  0.53592101  0.42930687  1  0.145117  0  0.105431  0.118321  0  1.04846  0
H  H68  1  0.49285432  0.95429501  0.50315442  1  0.131731  0  0.102368  0.109504  0  1.02947  0
H  H69  1  0.49285475  0.54885966  0.04570341  1  0.100198  0  0.102364  0.109488  0  1.029518  0
H  H70  1  0.99285473  0.04570272  0.54885824  1  0.100193  0  0.102371  0.109514  0  1.029527  0
H  H71  1  0.49285331  0.49684508  0.45114220  1  0.083874  0  0.102362  0.109455  0  1.029524  0
H  H72  1  0.99285426  0.50315451  0.95429483  1  0.131725  0  0.102349  0.109466  0  1.029538  0
H  H73  1  0.99285345  0.45114231  0.49684526  1  0.083876  0  0.102367  0.109501  0  1.029496  0
H  H74  1  0.70716970  0.29504213  0.73919383  1  0.09208  0  0.106763  0.164636  0  0.986722  0
H  H75  1  0.70716907  0.44415126  0.70495848  1  0.081291  0  0.106782  0.164649  0  0.986688  0
H  H76  1  0.20716930  0.70495770  0.44415036  1  0.081269  0  0.106763  0.164639  0  0.986699  0
H  H77  1  0.70716960  0.26080699  0.55585004  1  0.08894  0  0.106777  0.164663  0  0.98666  0
H  H78  1  0.20716921  0.73919367  0.29504240  1  0.092082  0  0.106748  0.1646  0  0.98674  0
H  H79  1  0.20716868  0.55584894  0.26080740  1  0.088852  0  0.106768  0.164654  0  0.986694  0
H  H80  1  0.67979051  0.19727521  0.66089568  1  0.049877  0  0.098812  0.140341  0  1.030541  0
H  H81  1  0.67978938  0.46362109  0.80272538  1  0.061511  0  0.098777  0.140272  0  1.030569  0
H  H82  1  0.17978955  0.80272534  0.46362036  1  0.061527  0  0.098835  0.140378  0  1.030541  0
H  H83  1  0.67979039  0.33910446  0.53637982  1  0.085541  0  0.098804  0.140309  0  1.030579  0
H  H84  1  0.17979056  0.66089535  0.19727458  1  0.04986  0  0.098809  0.14031  0  1.030527  0
H  H85  1  0.17978956  0.53637992  0.33910487  1  0.085545  0  0.098806  0.140317  0  1.030541  0
H  H86  1  0.69674420  0.21462197  0.75975949  1  0.047143  0  0.098846  0.141941  0  0.98365  0
H  H87  1  0.69674355  0.54513740  0.78537838  1  0.045531  0  0.098862  0.141962  0  0.983625  0
H  H88  1  0.19674380  0.78537862  0.54513761  1  0.045524  0  0.098844  0.141965  0  0.983629  0
H  H89  1  0.69674402  0.24024057  0.45486281  1  0.08456  0  0.098857  0.141958  0  0.983655  0
H  H90  1  0.19674418  0.75975906  0.21462131  1  0.047134  0  0.098845  0.141938  0  0.983622  0
H  H91  1  0.19674429  0.45486324  0.24024062  1  0.084577  0  0.098851  0.141963  0  0.983656  0
H  H92  1  0.41410593  0.19008905  0.83128611  1  0.04425  0  0.105636  0.10624  0  0.987317  0
H  H93  1  0.41410690  0.64119956  0.80991032  1  0.073455  0  0.10567  0.10629  0  0.987209  0
H  H94  1  0.91410741  0.80991068  0.64120018  1  0.073432  0  0.105669  0.106287  0  0.987268  0
H  H95  1  0.41410679  0.16871108  0.35879996  1  0.045546  0  0.105668  0.106292  0  0.987224  0
H  H96  1  0.91410546  0.83128703  0.19008939  1  0.044237  0  0.105658  0.10628  0  0.987273  0
H  H97  1  0.91410728  0.35879951  0.16871039  1  0.045546  0  0.105663  0.106273  0  0.987221  0
H  H98  1  0.28518799  0.13562679  0.82244631  1  0.065246  0  0.106384  0.102903  0  0.984271  0
H  H99  1  0.28518840  0.68682201  0.86437392  1  0.061359  0  0.106398  0.102955  0  0.984314  0
H  H100  1  0.78518834  0.86437432  0.68682259  1  0.061342  0  0.106392  0.102951  0  0.984277  0
H  H101  1  0.28518881  0.17755165  0.31317732  1  0.071158  0  0.106413  0.102966  0  0.984292  0
H  H102  1  0.78518804  0.82244736  0.13562588  1  0.0653  0  0.106394  0.10291  0  0.984284  0
H  H103  1  0.78518823  0.31317773  0.17755227  1  0.071223  0  0.106384  0.102919  0  0.984282  0
H  H104  1  0.19393712  0.13372205  0.72368484  1  0.12592  0  0.103933  0.114362  0  1.047439  0
H  H105  1  0.19393762  0.58996530  0.86627971  1  0.144892  0  0.103945  0.114355  0  1.047444  0
H  H106  1  0.69393747  0.86628062  0.58996624  1  0.144888  0  0.103945  0.114382  0  1.047487  0
H  H107  1  0.19393746  0.27631468  0.41003444  1  0.141374  0  0.103924  0.114338  0  1.04744  0
H  H108  1  0.69393614  0.72368522  0.13372094  1  0.125882  0  0.103954  0.114418  0  1.047442  0
H  H109  1  0.69393913  0.41003545  0.27631471  1  0.141414  0  0.103946  0.114382  0  1.047449  0
H  H110  1  0.36372835  0.23312002  0.63609428  1  0.119161  0  0.104413  0.109961  0  1.035262  0
H  H111  1  0.36372893  0.40297772  0.76688047  1  0.136717  0  0.104384  0.109912  0  1.035352  0
H  H112  1  0.86372927  0.76688055  0.40297726  1  0.136714  0  0.104376  0.109913  0  1.035324  0
H  H113  1  0.36372941  0.36390352  0.59702314  1  0.103362  0  0.104391  0.109938  0  1.035368  0
H  H114  1  0.86372809  0.63609524  0.23311966  1  0.119207  0  0.104422  0.109963  0  1.035294  0
H  H115  1  0.86372986  0.59702339  0.36390311  1  0.103364  0  0.104387  0.109914  0  1.035379  0
C  C116  1  0.39245368  0.83101261  0.36143054  1  1.584367  0  0.224834  0.6005  0  4.172286  0
C  C117  1  0.39245086  0.53041550  0.16898851  1  1.579064  0  0.22482  0.600622  0  4.172082  0
C  C118  1  0.89245184  0.16898847  0.53041529  1  1.579077  0  0.224806  0.600655  0  4.172037  0
C  C119  1  0.39245212  0.63857006  0.46958348  1  1.568492  0  0.224802  0.600525  0  4.172231  0
C  C120  1  0.89245251  0.36142964  0.83101240  1  1.58417  0  0.224854  0.600529  0  4.172314  0
C  C121  1  0.89245236  0.46958414  0.63857198  1  1.568519  0  0.22484  0.600574  0  4.172096  0
C  C122  1  0.34958809  0.90845944  0.40652687  1  -0.022584  0  -0.011183  -0.03469  0  3.95726  0
C  C123  1  0.34958636  0.49806485  0.09154075  1  -0.015441  0  -0.011213  -0.034798  0  3.957262  0
C  C124  1  0.84958569  0.09154132  0.49806514  1  -0.015496  0  -0.011227  -0.034872  0  3.95729  0
C  C125  1  0.34958712  0.59347375  0.50193290  1  -0.047645  0  -0.01116  -0.034659  0  3.95724  0
C  C126  1  0.84958751  0.40652598  0.90845927  1  -0.022955  0  -0.011179  -0.034649  0  3.957202  0
C  C127  1  0.84958674  0.50193390  0.59347415  1  -0.04704  0  -0.01122  -0.03475  0  3.957291  0
C  C128  1  0.27929618  0.90678932  0.43837769  1  -0.059159  0  -0.075609  -0.068445  0  3.964756  0
C  C129  1  0.27929554  0.53158696  0.09321007  1  -0.006776  0  -0.07562  -0.06843  0  3.964698  0
C  C130  1  0.77929490  0.09321182  0.53158717  1  -0.00663  0  -0.075604  -0.06838  0  3.964731  0
C  C131  1  0.27929518  0.56162155  0.46841183  1  0.000193  0  -0.07565  -0.068538  0  3.964815  0
C  C132  1  0.77929557  0.43837732  0.90678961  1  -0.059021  0  -0.075641  -0.068527  0  3.964811  0
C  C133  1  0.77929536  0.46841177  0.56162198  1  0.000192  0  -0.075639  -0.068493  0  3.964758  0
C  C134  1  0.23768724  0.97698835  0.48109630  1  -0.005897  0  -0.083515  -0.160958  0  3.978627  0
C  C135  1  0.23768713  0.50410493  0.02301048  1  -0.025866  0  -0.083503  -0.160901  0  3.978649  0
C  C136  1  0.73768710  0.02301171  0.50410574  1  -0.025795  0  -0.083498  -0.160944  0  3.978608  0
C  C137  1  0.23768628  0.51890581  0.49589462  1  -0.014162  0  -0.083515  -0.160892  0  3.978632  0
C  C138  1  0.73768666  0.48109429  0.97698824  1  -0.005654  0  -0.083491  -0.160893  0  3.978637  0
C  C139  1  0.73768639  0.49589296  0.51890459  1  -0.014172  0  -0.083494  -0.160894  0  3.978599  0
C  C140  1  0.26710107  0.04914312  0.49129683  1  0.317155  0  0.093863  0.179224  0  4.030138  0
C  C141  1  0.26710289  0.44215311  0.95085487  1  0.325315  0  0.093902  0.17924  0  4.030191  0
C  C142  1  0.76710197  0.95085678  0.44215268  1  0.325182  0  0.093884  0.179232  0  4.030152  0
C  C143  1  0.26710208  0.50870541  0.55784881  1  0.349662  0  0.093837  0.179142  0  4.030208  0
C  C144  1  0.76710077  0.49129648  0.04914297  1  0.317131  0  0.093865  0.179204  0  4.030156  0
C  C145  1  0.76710157  0.55784706  0.50870416  1  0.349554  0  0.093901  0.179225  0  4.030157  0
C  C146  1  0.33756143  0.05258251  0.46125692  1  -0.064594  0  -0.083678  -0.158163  0  3.966435  0
C  C147  1  0.33756160  0.40867372  0.94741648  1  -0.015289  0  -0.08366  -0.158063  0  3.96637  0
C  C148  1  0.83756122  0.94741826  0.40867442  1  -0.015113  0  -0.083667  -0.158092  0  3.966464  0
C  C149  1  0.33756360  0.53874143  0.59132386  1  -0.094425  0  -0.083636  -0.157991  0  3.966364  0
C  C150  1  0.83756117  0.46125716  0.05258182  1  -0.064594  0  -0.083642  -0.158072  0  3.966455  0
C  C151  1  0.83756197  0.59132519  0.53874337  1  -0.094461  0  -0.083647  -0.158048  0  3.96641  0
C  C152  1  0.37886683  0.98159422  0.41865062  1  0.033978  0  -0.073817  -0.070511  0  3.958109  0
C  C153  1  0.37886734  0.43705470  0.01840608  1  -0.043365  0  -0.073809  -0.070563  0  3.958077  0
C  C154  1  0.87886668  0.01840669  0.43705499  1  -0.04309  0  -0.073774  -0.070485  0  3.958073  0
C  C155  1  0.37886760  0.58134971  0.56294324  1  0.027024  0  -0.073856  -0.070656  0  3.958155  0
C  C156  1  0.87886631  0.41865057  0.98159436  1  0.033976  0  -0.073775  -0.070452  0  3.958022  0
C  C157  1  0.87886716  0.56294334  0.58134986  1  0.02654  0  -0.073787  -0.070526  0  3.95815  0
C  C158  1  0.13789444  0.08348707  0.41020875  1  -0.073024  0  -0.225941  -0.468901  0  3.929982  0
C  C159  1  0.13789521  0.32672221  0.91651192  1  -0.077751  0  -0.225913  -0.468889  0  3.930006  0
C  C160  1  0.63789535  0.91651162  0.32672177  1  -0.077614  0  -0.225912  -0.468865  0  3.929969  0
C  C161  1  0.13789499  0.58979050  0.67327840  1  -0.062883  0  -0.226015  -0.469137  0  3.930032  0
C  C162  1  0.63789481  0.41020908  0.08348747  1  -0.073299  0  -0.22594  -0.468888  0  3.929973  0
C  C163  1  0.63789502  0.67327873  0.58979130  1  -0.063052  0  -0.225975  -0.468992  0  3.930004  0
C  C164  1  0.15985228  0.13352679  0.49587511  1  0.99499  0  0.245007  0.35776  0  3.933911  0
C  C165  1  0.15985242  0.36234808  0.86647228  1  0.994054  0  0.244995  0.357771  0  3.93389  0
C  C166  1  0.65985263  0.86647130  0.36234637  1  0.99406  0  0.245045  0.357899  0  3.933791  0
C  C167  1  0.15985224  0.50412340  0.63765322  1  0.989182  0  0.245061  0.35796  0  3.933806  0
C  C168  1  0.65985262  0.49587559  0.13352803  1  0.994672  0  0.245051  0.357865  0  3.933805  0
C  C169  1  0.65985222  0.63765344  0.50412527  1  0.988492  0  0.245023  0.35786  0  3.933785  0
C  C170  1  0.21888545  0.17734526  0.61192844  1  0.977489  0  0.235237  0.236172  0  3.968275  0
C  C171  1  0.21888549  0.43458435  0.82265581  1  0.972355  0  0.235191  0.236081  0  3.968431  0
C  C172  1  0.71888692  0.82265675  0.43458404  1  0.972245  0  0.235196  0.236166  0  3.968413  0
C  C173  1  0.21888760  0.38807195  0.56541732  1  0.95181  0  0.235236  0.236256  0  3.968243  0
C  C174  1  0.71888572  0.61192827  0.17734599  1  0.977522  0  0.235224  0.236195  0  3.968241  0
C  C175  1  0.71888642  0.56541731  0.38807294  1  0.951885  0  0.235206  0.236164  0  3.968384  0
C  C176  1  0.54438911  0.86359827  0.56693834  1  1.59027  0  0.194181  0.557171  0  4.240722  0
C  C177  1  0.54439004  0.70333955  0.13640185  1  1.541905  0  0.194165  0.55713  0  4.240653  0
C  C178  1  0.04438988  0.13640122  0.70334088  1  1.541578  0  0.194121  0.55696  0  4.240593  0
C  C179  1  0.54438853  0.43306154  0.29666135  1  1.583248  0  0.194128  0.557042  0  4.24084  0
C  C180  1  0.04438984  0.56693862  0.86359721  1  1.590297  0  0.194148  0.557007  0  4.240644  0
C  C181  1  0.04438912  0.29666183  0.43306212  1  1.583341  0  0.194159  0.557119  0  4.240693  0
C  C182  1  0.54370855  0.95395444  0.60482058  1  -0.02475  0  -0.019038  -0.031044  0  3.962444  0
C  C183  1  0.54370946  0.65086534  0.04604516  1  0.017043  0  -0.019052  -0.031006  0  3.962437  0
C  C184  1  0.04370989  0.04604438  0.65086584  1  0.016939  0  -0.019119  -0.031092  0  3.962455  0
C  C185  1  0.54370802  0.39517937  0.34913496  1  -0.025663  0  -0.019058  -0.030996  0  3.96245  0
C  C186  1  0.04370933  0.60482027  0.95395406  1  -0.024729  0  -0.019062  -0.031044  0  3.962409  0
C  C187  1  0.04370741  0.34913567  0.39517957  1  -0.026  0  -0.019007  -0.030921  0  3.962409  0
C  C188  1  0.57320721  0.00103394  0.68265103  1  0.046268  0  -0.086184  -0.088919  0  4.002443  0
C  C189  1  0.57320717  0.68161814  0.99896704  1  -0.040103  0  -0.086171  -0.088946  0  4.002529  0
C  C190  1  0.07320679  0.99896531  0.68161705  1  -0.040049  0  -0.086148  -0.08884  0  4.00239  0
C  C191  1  0.57320578  0.31734944  0.31838401  1  -0.033768  0  -0.086241  -0.089034  0  4.002581  0
C  C192  1  0.07320651  0.68265084  0.00103385  1  0.046233  0  -0.086213  -0.088989  0  4.002531  0
C  C193  1  0.07320680  0.31838335  0.31734885  1  -0.033523  0  -0.086209  -0.089106  0  4.002588  0
C  C194  1  0.57204488  0.08482932  0.72021272  1  -0.110708  0  -0.093933  -0.176507  0  4.015507  0
C  C195  1  0.57204482  0.63538490  0.91517170  1  0.019462  0  -0.09397  -0.176543  0  4.015509  0
C  C196  1  0.07204391  0.91517056  0.63538433  1  0.01944  0  -0.093947  -0.176512  0  4.015536  0
C  C197  1  0.57204349  0.27978580  0.36461496  1  0.023529  0  -0.093884  -0.176468  0  4.015557  0
C  C198  1  0.07204366  0.72021293  0.08482788  1  -0.110491  0  -0.093954  -0.176507  0  4.01554  0
C  C199  1  0.07204444  0.36461527  0.27978619  1  0.023499  0  -0.094011  -0.176916  0  4.015195  0
C  C200  1  0.54150213  0.12179210  0.67948055  1  0.305159  0  0.093368  0.184445  0  4.013335  0
C  C201  1  0.54150211  0.55768880  0.87820811  1  0.248661  0  0.093417  0.184556  0  4.013297  0
C  C202  1  0.04150172  0.87820721  0.55768897  1  0.248459  0  0.09345  0.184514  0  4.013294  0
C  C203  1  0.54150249  0.32051853  0.44231128  1  0.190183  0  0.093388  0.184489  0  4.01339  0
C  C204  1  0.04150210  0.67948106  0.12179152  1  0.305183  0  0.093399  0.184497  0  4.013307  0
C  C205  1  0.04150285  0.44231154  0.32051890  1  0.189974  0  0.093429  0.185681  0  4.011667  0
C  C206  1  0.51335310  0.07579694  0.60107028  1  -0.039225  0  -0.087102  -0.161873  0  3.954354  0
C  C207  1  0.51335314  0.52527358  0.92420215  1  -0.08801  0  -0.087132  -0.161949  0  3.954428  0
C  C208  1  0.01335549  0.92420209  0.52527277  1  -0.087848  0  -0.087113  -0.161873  0  3.954397  0
C  C209  1  0.51335405  0.39892922  0.47472718  1  -0.033577  0  -0.087084  -0.161867  0  3.954379  0
C  C210  1  0.01335478  0.60106995  0.07579725  1  -0.039324  0  -0.087109  -0.161863  0  3.954393  0
C  C211  1  0.01335444  0.47472776  0.39892934  1  -0.03357  0  -0.087105  -0.162308  0  3.95408  0
C  C212  1  0.51468918  0.99182054  0.56404512  1  -0.076878  0  -0.083152  -0.079473  0  3.947406  0
C  C213  1  0.51469012  0.57222404  0.00817921  1  0.005911  0  -0.083101  -0.079387  0  3.947444  0
C  C214  1  0.01469164  0.00817853  0.57222333  1  0.005996  0  -0.083098  -0.079453  0  3.947522  0
C  C215  1  0.51468871  0.43595539  0.42777655  1  -0.028139  0  -0.083149  -0.079386  0  3.947427  0
C  C216  1  0.01469058  0.56404376  0.99182029  1  -0.076784  0  -0.083105  -0.079402  0  3.947454  0
C  C217  1  0.01468975  0.42777804  0.43595580  1  -0.028002  0  -0.083148  -0.079464  0  3.94759  0
C  C218  1  0.67382675  0.24157569  0.72527438  1  -0.03065  0  -0.226716  -0.455049  0  3.950128  0
C  C219  1  0.67382669  0.48369884  0.75842548  1  -0.0227  0  -0.226715  -0.454986  0  3.950023  0
C  C220  1  0.17382747  0.75842520  0.48369846  1  -0.022701  0  -0.22677  -0.455139  0  3.950063  0
C  C221  1  0.67382774  0.27472645  0.51630184  1  -0.093573  0  -0.226753  -0.455072  0  3.95011  0
C  C222  1  0.17382734  0.72527401  0.24157507  1  -0.03064  0  -0.226704  -0.454951  0  3.950012  0
C  C223  1  0.17382630  0.51630171  0.27472598  1  -0.0937  0  -0.226761  -0.455105  0  3.950036  0
C  C224  1  0.59358432  0.26363134  0.74332691  1  1.006895  0  0.218669  0.324213  0  4.006436  0
C  C225  1  0.59358369  0.47969572  0.73636829  1  0.972078  0  0.218646  0.324151  0  4.006393  0
C  C226  1  0.09358336  0.73636859  0.47969583  1  0.972089  0  0.21868  0.324214  0  4.006514  0
C  C227  1  0.59358476  0.25667327  0.52030391  1  0.971749  0  0.218684  0.324262  0  4.006358  0
C  C228  1  0.09358380  0.74332657  0.26363069  1  1.006902  0  0.21863  0.324159  0  4.006511  0
C  C229  1  0.09358330  0.52030411  0.25667243  1  0.971865  0  0.218677  0.324169  0  4.006532  0
C  C230  1  0.47111867  0.25233270  0.74426432  1  0.985206  0  0.220118  0.215851  0  4.029821  0
C  C231  1  0.47111859  0.49193354  0.74766908  1  0.986887  0  0.220098  0.215898  0  4.029887  0
C  C232  1  0.97111791  0.74766858  0.49193384  1  0.986886  0  0.220083  0.215901  0  4.029789  0
C  C233  1  0.47111966  0.25573441  0.50806524  1  0.983465  0  0.220116  0.215915  0  4.029806  0
C  C234  1  0.97111833  0.74426430  0.25233214  1  0.985762  0  0.220149  0.215982  0  4.02984  0
C  C235  1  0.97111785  0.50806464  0.25573376  1  0.983546  0  0.220068  0.2158  0  4.029868  0
C  C236  1  0.39585683  0.21679392  0.73543126  1  -0.022771  0  -0.003867  0.030549  0  4.031405  0
C  C237  1  0.39585676  0.51864054  0.78320759  1  -0.039047  0  -0.003801  0.030626  0  4.031478  0
C  C238  1  0.89585719  0.78320793  0.51864104  1  -0.039022  0  -0.003812  0.030615  0  4.031352  0
C  C239  1  0.39585779  0.26456619  0.48135968  1  -0.039893  0  -0.0038  0.0306  0  4.031468  0
C  C240  1  0.89585591  0.73543313  0.21679456  1  -0.022671  0  -0.00383  0.030542  0  4.031489  0
C  C241  1  0.89585714  0.48135825  0.26456644  1  -0.039916  0  -0.003822  0.030651  0  4.031388  0
C  C242  1  0.37422923  0.18787034  0.78691335  1  -0.031282  0  -0.082671  -0.120034  0  3.986776  0
C  C243  1  0.37422967  0.59904643  0.81213081  1  -0.054746  0  -0.082741  -0.120172  0  3.98668  0
C  C244  1  0.87422958  0.81213087  0.59904728  1  -0.054733  0  -0.082719  -0.120167  0  3.98679  0
C  C245  1  0.37422956  0.21308450  0.40095373  1  -0.006554  0  -0.082728  -0.120155  0  3.986804  0
C  C246  1  0.87422767  0.78691591  0.18787225  1  -0.031478  0  -0.082776  -0.12017  0  3.98674  0
C  C247  1  0.87423006  0.40095320  0.21308494  1  -0.006584  0  -0.082702  -0.120135  0  3.986795  0
C  C248  1  0.30210622  0.15745395  0.78196164  1  -0.015403  0  -0.088208  -0.074173  0  4.027041  0
C  C249  1  0.30210611  0.62450983  0.84254572  1  0.012566  0  -0.088198  -0.074184  0  4.027089  0
C  C250  1  0.80210658  0.84254692  0.62451058  1  0.012554  0  -0.088191  -0.074134  0  4.027155  0
C  C251  1  0.30210710  0.21803644  0.37548939  1  -0.002184  0  -0.08821  -0.074183  0  4.027238  0
C  C252  1  0.80210521  0.78196265  0.15745423  1  -0.015287  0  -0.088118  -0.074017  0  4.026905  0
C  C253  1  0.80210706  0.37548997  0.21803791  1  -0.002178  0  -0.088192  -0.074128  0  4.02711  0
C  C254  1  0.25104875  0.15510333  0.72553397  1  -0.052085  0  -0.080395  -0.103938  0  3.931711  0
C  C255  1  0.25104925  0.57043333  0.84489674  1  -0.047086  0  -0.080422  -0.103935  0  3.93173  0
C  C256  1  0.75104910  0.84489846  0.57043451  1  -0.047032  0  -0.080429  -0.104013  0  3.931834  0
C  C257  1  0.25105023  0.27446418  0.42956536  1  -0.106917  0  -0.080389  -0.103896  0  3.931751  0
C  C258  1  0.75104778  0.72553455  0.15510308  1  -0.052101  0  -0.080439  -0.104083  0  3.931756  0
C  C259  1  0.75105075  0.42956707  0.27446557  1  -0.107071  0  -0.080378  -0.103942  0  3.931737  0
C  C260  1  0.27292285  0.18202748  0.67255682  1  0.007359  0  -0.003986  0.031167  0  4.009522  0
C  C261  1  0.27292284  0.49053205  0.81797379  1  -0.022947  0  -0.004006  0.031145  0  4.009482  0
C  C262  1  0.77292321  0.81797414  0.49053243  1  -0.022988  0  -0.003993  0.031142  0  4.009573  0
C  C263  1  0.27292440  0.32744197  0.50946796  1  0.013538  0  -0.003989  0.031098  0  4.00957  0
C  C264  1  0.77292252  0.67255724  0.18202648  1  0.007336  0  -0.003999  0.031193  0  4.009437  0
C  C265  1  0.77292490  0.50946878  0.32744316  1  0.013573  0  -0.004011  0.031091  0  4.009501  0
C  C266  1  0.34538388  0.21284612  0.67742814  1  -0.02722  0  -0.076332  -0.142991  0  3.907209  0
C  C267  1  0.34538387  0.46458552  0.78715480  1  -0.053807  0  -0.076325  -0.142942  0  3.907366  0
C  C268  1  0.84538424  0.78715625  0.46458585  1  -0.053812  0  -0.076298  -0.14292  0  3.907232  0
C  C269  1  0.34538489  0.32257044  0.53541514  1  -0.005637  0  -0.076358  -0.142992  0  3.90736  0
C  C270  1  0.84538301  0.67742905  0.21284572  1  -0.027287  0  -0.076312  -0.142978  0  3.907241  0
C  C271  1  0.84538536  0.53541515  0.32257031  1  -0.005594  0  -0.076335  -0.142944  0  3.907287  0
N  N272  1  0.12468218  0.19753879  0.55310631  1  -0.773107  0  -0.239252  -0.236709  0  3.541577  0
N  N273  1  0.12468340  0.35556819  0.80246055  1  -0.77749  0  -0.239328  -0.236794  0  3.541506  0
N  N274  1  0.62468366  0.80245987  0.35556731  1  -0.777517  0  -0.239344  -0.236849  0  3.541519  0
N  N275  1  0.12468328  0.44689220  0.64443281  1  -0.79309  0  -0.239359  -0.236921  0  3.541606  0
N  N276  1  0.62468309  0.55310647  0.19754035  1  -0.772685  0  -0.239291  -0.236802  0  3.541568  0
N  N277  1  0.62468320  0.64443331  0.44689368  1  -0.793069  0  -0.239304  -0.236818  0  3.541596  0
N  N278  1  0.16057330  0.22474180  0.62569058  1  -0.673852  0  -0.207497  -0.220157  0  3.247442  0
N  N279  1  0.16057445  0.40095121  0.77525947  1  -0.674471  0  -0.207381  -0.22  0  3.247256  0
N  N280  1  0.66057534  0.77525913  0.40095011  1  -0.6744  0  -0.207372  -0.220048  0  3.247226  0
N  N281  1  0.16057661  0.37430803  0.59905092  1  -0.659623  0  -0.207423  -0.220031  0  3.247112  0
N  N282  1  0.66057417  0.62569127  0.22474277  1  -0.673881  0  -0.207475  -0.220128  0  3.247369  0
N  N283  1  0.66057426  0.59904977  0.37430903  1  -0.659785  0  -0.207397  -0.220043  0  3.247335  0
N  N284  1  0.22082487  0.11940426  0.53077130  1  -1.250279  0  -0.215328  -0.130591  0  3.703139  0
N  N285  1  0.22082610  0.41136741  0.88059510  1  -1.252633  0  -0.215322  -0.130598  0  3.70314  0
N  N286  1  0.72082578  0.88059575  0.41136622  1  -1.252698  0  -0.215371  -0.130687  0  3.703201  0
N  N287  1  0.22082704  0.46922937  0.58863465  1  -1.22525  0  -0.21534  -0.130731  0  3.703186  0
N  N288  1  0.72082461  0.53077126  0.11940385  1  -1.250254  0  -0.21535  -0.130667  0  3.703111  0
N  N289  1  0.72082591  0.58863331  0.46922969  1  -1.224442  0  -0.215361  -0.130662  0  3.703184  0
N  N290  1  0.56484910  0.33712812  0.77971413  1  -0.746693  0  -0.241273  -0.277397  0  3.195741  0
N  N291  1  0.56484788  0.44258514  0.66287269  1  -0.703672  0  -0.241242  -0.277301  0  3.195818  0
N  N292  1  0.06484870  0.66287276  0.44258553  1  -0.703672  0  -0.241275  -0.277367  0  3.195789  0
N  N293  1  0.56484957  0.22028729  0.55741308  1  -0.709094  0  -0.241265  -0.277413  0  3.195694  0
N  N294  1  0.06485029  0.77971276  0.33712647  1  -0.746684  0  -0.241252  -0.277395  0  3.195841  0
N  N295  1  0.06484693  0.55741428  0.22028743  1  -0.709068  0  -0.241274  -0.27733  0  3.195727  0
N  N296  1  0.48743892  0.33012079  0.78062908  1  -0.741167  0  -0.236353  -0.269199  0  3.241779  0
N  N297  1  0.48743770  0.45050848  0.66988134  1  -0.743896  0  -0.236358  -0.269321  0  3.241826  0
N  N298  1  0.98743816  0.66988120  0.45050848  1  -0.743896  0  -0.236363  -0.269308  0  3.241727  0
N  N299  1  0.48743939  0.21937182  0.54948989  1  -0.739139  0  -0.236326  -0.26921  0  3.241641  0
N  N300  1  0.98743918  0.78062800  0.33011926  1  -0.741662  0  -0.236351  -0.269229  0  3.24176  0
N  N301  1  0.98743695  0.54948922  0.21937112  1  -0.739056  0  -0.236289  -0.269204  0  3.241601  0
N  N302  1  0.53634748  0.20778274  0.72029877  1  -1.271316  0  -0.218944  -0.126294  0  3.71085  0
N  N303  1  0.53634686  0.51251674  0.79221777  1  -1.23318  0  -0.218959  -0.126321  0  3.710807  0
N  N304  1  0.03634707  0.79221754  0.51251630  1  -1.233195  0  -0.218939  -0.126289  0  3.71087  0
N  N305  1  0.53634788  0.27970138  0.48748302  1  -1.228491  0  -0.218984  -0.126381  0  3.710902  0
N  N306  1  0.03634748  0.72029958  0.20778193  1  -1.271349  0  -0.218961  -0.126374  0  3.710913  0
N  N307  1  0.03634760  0.48748247  0.27970034  1  -1.228322  0  -0.21897  -0.12665  0  3.710552  0
O  O308  1  0.50845472  0.66666646  0.33333243  1  -1.217048  0  -0.56404  -0.914055  0  2.363471  0
O  O309  1  0.00845435  0.33333384  0.66666747  1  -1.21717  0  -0.564059  -0.914146  0  2.363508  0
O  O310  1  0.35670691  0.76781212  0.34916729  1  -1.169941  0  -0.319482  -0.551832  0  2.351433  0
O  O311  1  0.35670466  0.58135103  0.23218913  1  -1.18846  0  -0.319511  -0.551873  0  2.35149  0
O  O312  1  0.85670394  0.23218937  0.58135052  1  -1.188459  0  -0.319511  -0.551941  0  2.351497  0
O  O313  1  0.35670306  0.65083591  0.41864936  1  -1.174957  0  -0.319483  -0.551833  0  2.351461  0
O  O314  1  0.85670570  0.34916690  0.76781235  1  -1.169772  0  -0.319482  -0.551854  0  2.351472  0
O  O315  1  0.85670448  0.41865032  0.65083867  1  -1.17493  0  -0.319474  -0.551856  0  2.351545  0
O  O316  1  0.45898854  0.83406350  0.33968040  1  -1.181303  0  -0.30529  -0.534838  0  2.32826  0
O  O317  1  0.45898574  0.50561494  0.16593981  1  -1.179996  0  -0.305265  -0.534887  0  2.328139  0
O  O318  1  0.95898614  0.16594055  0.50561497  1  -1.180025  0  -0.305267  -0.534873  0  2.328148  0
O  O319  1  0.45898700  0.66031912  0.49438302  1  -1.177898  0  -0.305304  -0.53488  0  2.328227  0
O  O320  1  0.95898739  0.33968113  0.83406378  1  -1.181261  0  -0.305303  -0.534853  0  2.328253  0
O  O321  1  0.95898893  0.49438049  0.66031795  1  -1.177926  0  -0.305331  -0.534898  0  2.328106  0
O  O322  1  0.51204280  0.82342649  0.49718528  1  -1.162655  0  -0.333674  -0.55656  0  2.323141  0
O  O323  1  0.51204435  0.67375765  0.17657384  1  -1.156548  0  -0.333689  -0.556621  0  2.32311  0
O  O324  1  0.01204469  0.17657339  0.67375974  1  -1.1565  0  -0.333717  -0.556576  0  2.323067  0
O  O325  1  0.51204393  0.50281493  0.32624267  1  -1.155403  0  -0.333657  -0.556558  0  2.323188  0
O  O326  1  0.01204411  0.49718503  0.82342601  1  -1.162642  0  -0.333691  -0.556553  0  2.323117  0
O  O327  1  0.01204455  0.32624287  0.50281584  1  -1.15549  0  -0.333683  -0.556591  0  2.323119  0
O  O328  1  0.57672138  0.83205191  0.60255400  1  -1.188972  0  -0.32855  -0.564392  0  2.148464  0
O  O329  1  0.57672228  0.77050148  0.16794869  1  -1.188678  0  -0.32853  -0.564335  0  2.148414  0
O  O330  1  0.07672159  0.16794940  0.77050363  1  -1.18838  0  -0.32846  -0.564185  0  2.148294  0
O  O331  1  0.57672019  0.39744657  0.22949828  1  -1.190363  0  -0.328525  -0.564322  0  2.148494  0
O  O332  1  0.07672093  0.60255377  0.83204916  1  -1.189052  0  -0.328469  -0.564216  0  2.148311  0
O  O333  1  0.07672136  0.22949940  0.39744655  1  -1.190344  0  -0.328534  -0.564352  0  2.148466  0
