# generated using pymatgen
data_Al2H14C23N2(ClO5)2
_symmetry_space_group_name_H-M   'P 1'
_cell_length_a   6.64929230
_cell_length_b   11.13492588
_cell_length_c   16.97530506
_cell_angle_alpha   85.29108409
_cell_angle_beta   82.37811004
_cell_angle_gamma   72.61123689
_symmetry_Int_Tables_number   1
_chemical_formula_structural   Al2H14C23N2(ClO5)2
_chemical_formula_sum   'Al2 H14 C23 N2 Cl2 O10'
_cell_volume   1187.60715911
_cell_formula_units_Z   1
loop_
 _symmetry_equiv_pos_site_id
 _symmetry_equiv_pos_as_xyz
  1  'x, y, z'
loop_
 _atom_site_type_symbol
 _atom_site_label
 _atom_site_symmetry_multiplicity
 _atom_site_fract_x
 _atom_site_fract_y
 _atom_site_fract_z
 _atom_site_occupancy
 _atom_site_pbe_bader_charge
 _atom_site_pbe_bader_spin_density
 _atom_site_pbe_cm5_charge
 _atom_site_pbe_ddec_charge
 _atom_site_pbe_ddec_spin_density
 _atom_site_pbe_ddec_sum_bond_order
 _atom_site_pbe_magmom
Al  Al0  1  0.48936049  0.50148828  0.50390692  1  2.501519  0  0.395703  1.64495  0  2.574165  0
Al  Al1  1  0.98755649  0.50289128  0.50703341  1  2.503302  0  0.396764  1.639089  0  2.588672  0
H  H2  1  0.18161781  0.64781589  0.45622370  1  0.651788  0  0.351619  0.428611  0  0.859052  0
H  H3  1  0.72673968  0.44761220  0.60289080  1  0.599889  0  0.347795  0.424444  0  0.868099  0
H  H4  1  0.90346359  0.44210160  0.74711208  1  0.086819  0  0.10815  0.111598  0  0.998838  0
H  H5  1  0.84934876  0.43124535  0.89610550  1  0.077987  0  0.108837  0.11335  0  1.011785  0
H  H6  1  0.33043856  0.61659653  0.89904011  1  0.097554  0  0.112781  0.130183  0  0.990492  0
H  H7  1  0.69576556  0.36332841  0.11323615  1  0.115182  0  0.112135  0.127843  0  0.99348  0
H  H8  1  0.16969165  0.55224408  0.12231146  1  0.105162  0  0.108555  0.113697  0  1.010101  0
H  H9  1  0.09625581  0.54744989  0.27142169  1  0.111789  0  0.11361  0.122331  0  0.988455  0
H  H10  1  0.82505225  0.88384114  0.55281765  1  0.104831  0  0.108661  0.115259  0  0.991749  0
H  H11  1  0.27748128  0.88959976  0.44188847  1  0.074064  0  0.103387  0.10774  0  1.007448  0
H  H12  1  0.70030316  0.12004383  0.55267134  1  0.112337  0  0.111038  0.115518  0  0.994023  0
H  H13  1  0.06003946  0.07283107  0.39015939  1  0.026712  0  0.088468  0.122242  0  1.004927  0
H  H14  1  0.13478237  0.21472025  0.38085703  1  0.06874  0  0.093456  0.136027  0  1.00141  0
H  H15  1  0.96945308  0.18606573  0.46526841  1  0.101454  0  0.101739  0.152047  0  0.999365  0
C  C16  1  0.62382429  0.73277602  0.49993263  1  1.517103  0  0.265366  0.643707  0  4.091594  0
C  C17  1  0.80305164  0.47514348  0.36378812  1  1.606682  0  0.268228  0.645638  0  4.105297  0
C  C18  1  0.35333282  0.27559226  0.50348341  1  1.586747  0  0.270678  0.64782  0  4.086129  0
C  C19  1  0.18176724  0.52203550  0.65008935  1  1.57144  0  0.264991  0.653893  0  4.092505  0
C  C20  1  0.15176540  0.53002123  0.73866310  1  0.032086  0  -0.013212  -0.09573  0  3.909507  0
C  C21  1  0.99793838  0.47847609  0.78139594  1  -0.04958  0  -0.078494  -0.067424  0  3.991942  0
C  C22  1  0.96679798  0.47250071  0.86360815  1  0.058135  0  -0.084215  -0.148133  0  3.956225  0
C  C23  1  0.09066911  0.52102449  0.90608301  1  0.363224  0  0.091071  0.192779  0  4.038581  0
C  C24  1  0.23965977  0.57668877  0.86516315  1  0.076689  0  -0.083266  -0.211648  0  3.928139  0
C  C25  1  0.27133137  0.58073779  0.78217249  1  0.002729  0  0.023553  0.144304  0  4.017257  0
C  C26  1  0.78039903  0.40550509  0.14840551  1  -0.013686  0  -0.082607  -0.210758  0  3.931355  0
C  C27  1  0.93144555  0.46128999  0.10924308  1  0.368592  0  0.090912  0.189427  0  4.043916  0
C  C28  1  0.04917932  0.51196347  0.15329697  1  -0.049431  0  -0.084606  -0.148355  0  3.95794  0
C  C29  1  0.00719038  0.50988634  0.23533166  1  0.013591  0  -0.076142  -0.070395  0  3.981897  0
C  C30  1  0.84806773  0.46038626  0.27588024  1  0.032432  0  -0.009323  -0.093075  0  3.913778  0
C  C31  1  0.73805154  0.40502232  0.23111456  1  0.058196  0  0.024779  0.144269  0  4.021654  0
C  C32  1  0.42054851  0.13595552  0.49750529  1  -0.093611  0  -0.009639  -0.099989  0  3.913196  0
C  C33  1  0.55513934  0.87313258  0.49871192  1  -0.002564  0  -0.0154  -0.03471  0  4.004256  0
C  C34  1  0.29864370  0.07292678  0.46376354  1  -0.059863  0  0.006449  0.169435  0  3.926104  0
C  C35  1  0.67863912  0.93713233  0.52875044  1  -0.049582  0  -0.086954  -0.106797  0  3.99404  0
C  C36  1  0.36868527  0.94120163  0.46659213  1  0.040073  0  -0.083886  -0.158696  0  3.934827  0
C  C37  1  0.60947283  0.06778277  0.52849247  1  0.005922  0  -0.080747  -0.089618  0  3.998714  0
C  C38  1  0.10517756  0.13990122  0.42297072  1  -0.087422  0  -0.239483  -0.419263  0  3.956241  0
N  N39  1  0.07527842  0.52037083  0.99000216  1  -0.496804  0  -0.146141  -0.132181  0  3.255962  0
N  N40  1  0.95158230  0.46084156  0.02540905  1  -0.493151  0  -0.145295  -0.129233  0  3.270504  0
Cl  Cl41  1  0.45468945  0.65458206  0.73720835  1  -0.190862  0  0.00935  -0.056899  0  1.510699  0
Cl  Cl42  1  0.55516788  0.32997724  0.27440827  1  -0.176927  0  0.013624  -0.04857  0  1.51085  0
O  O43  1  0.48107597  0.67808926  0.49835491  1  -1.261347  0  -0.240225  -0.606154  0  2.346023  0
O  O44  1  0.95666827  0.48124975  0.39909836  1  -1.256174  0  -0.229706  -0.581349  0  2.363643  0
O  O45  1  0.15527083  0.33182847  0.51069079  1  -1.256818  0  -0.228814  -0.579399  0  2.36689  0
O  O46  1  0.36658442  0.51166839  0.61469842  1  -1.255111  0  -0.237626  -0.606465  0  2.397038  0
O  O47  1  0.49834209  0.32872486  0.50361018  1  -1.25822  0  -0.232208  -0.588058  0  2.353104  0
O  O48  1  0.02029352  0.52082892  0.61749711  1  -1.252142  0  -0.237402  -0.59675  0  2.341083  0
O  O49  1  0.82152765  0.67797547  0.50190585  1  -1.256291  0  -0.240127  -0.606895  0  2.345847  0
O  O50  1  0.61570180  0.48598669  0.39613448  1  -1.252866  0  -0.230487  -0.582546  0  2.389013  0
O  O51  1  0.22144713  0.55833008  0.47034999  1  -1.454802  0  -0.447572  -0.98436  0  2.197579  0
O  O52  1  0.74866986  0.45324481  0.54518344  1  -1.405519  0  -0.448124  -0.982752  0  2.187665  0
