# generated using pymatgen
data_LaCuH13C15N2O13
_symmetry_space_group_name_H-M   'P 1'
_cell_length_a   8.13133337
_cell_length_b   10.94994145
_cell_length_c   12.11671481
_cell_angle_alpha   101.06349481
_cell_angle_beta   106.48829904
_cell_angle_gamma   103.21486768
_symmetry_Int_Tables_number   1
_chemical_formula_structural   LaCuH13C15N2O13
_chemical_formula_sum   'La2 Cu2 H26 C30 N4 O26'
_cell_volume   968.23498453
_cell_formula_units_Z   2
loop_
 _symmetry_equiv_pos_site_id
 _symmetry_equiv_pos_as_xyz
  1  'x, y, z'
loop_
 _atom_site_type_symbol
 _atom_site_label
 _atom_site_symmetry_multiplicity
 _atom_site_fract_x
 _atom_site_fract_y
 _atom_site_fract_z
 _atom_site_occupancy
 _atom_site_hle17_ddec_charge
 _atom_site_hle17_ddec_spin_density
 _atom_site_hle17_ddec_sum_bond_order
 _atom_site_hle17_magmom
 _atom_site_hse06_10hf_ddec_charge
 _atom_site_hse06_10hf_ddec_spin_density
 _atom_site_hse06_10hf_ddec_sum_bond_order
 _atom_site_hse06_10hf_magmom
 _atom_site_hse06_ddec_charge
 _atom_site_hse06_ddec_spin_density
 _atom_site_hse06_ddec_sum_bond_order
 _atom_site_hse06_magmom
 _atom_site_pbe_cm5_charge
 _atom_site_pbe_ddec_charge
 _atom_site_pbe_ddec_spin_density
 _atom_site_pbe_ddec_sum_bond_order
 _atom_site_pbe_magmom
La  La0  1  0.98094652  0.16228790  0.91851733  1  2.154488  0.000568  1.709372  0.0  2.038918  0.000287  2.213287  0.0  2.134943  0.000117  2.116527  0.0  1.397169  1.966085  0.000627  2.281766  0.0
La  La1  1  0.01905461  0.83771203  0.08148244  1  2.154547  -0.000575  1.709349  0.0  2.038981  -0.000285  2.21326  0.0  2.135016  -7.8e-05  2.116482  0.0  1.397177  1.966162  -0.000627  2.281748  0.0
Cu  Cu2  1  0.97419546  0.26759864  0.44895870  1  0.825296  0.735403  1.896122  0.512  0.794143  0.811573  2.303262  0.622  0.881039  0.886024  2.236617  0.706  0.752411  0.740971  0.756825  2.350196  0.566
Cu  Cu3  1  0.02580605  0.73240227  0.55104213  1  0.825438  -0.735397  1.895909  -0.512  0.794186  -0.811575  2.303203  -0.622  0.881151  -0.886047  2.236438  -0.706  0.752413  0.740999  -0.75682  2.350164  -0.566
H  H4  1  0.76460429  0.27616881  0.07349412  1  0.423559  7e-06  0.850531  0.0  0.398237  9e-06  0.915443  0.0  0.407958  4e-06  0.90132  0.0  0.309314  0.391202  1.2e-05  0.925656  0.0
H  H5  1  0.23539428  0.72383108  0.92650350  1  0.423552  -7e-06  0.85056  0.0  0.39823  -9e-06  0.915459  0.0  0.407951  -4e-06  0.901336  0.0  0.3093  0.391199  -1.2e-05  0.925667  0.0
H  H6  1  0.83058095  0.17441325  0.14280682  1  0.439186  2e-06  0.857535  0.0  0.408204  3e-06  0.920666  0.0  0.420896  1e-05  0.90225  0.0  0.296478  0.39916  -1.6e-05  0.933731  0.0
H  H7  1  0.16941631  0.82558664  0.85719219  1  0.439188  -2e-06  0.857536  0.0  0.408202  -3e-06  0.920674  0.0  0.420894  -1e-05  0.902257  0.0  0.29648  0.399156  1.6e-05  0.933741  0.0
H  H8  1  0.23959185  0.43151499  0.03820510  1  0.406478  -1e-06  0.909097  0.0  0.374338  -2e-06  0.976354  0.0  0.385939  -2e-06  0.959459  0.0  0.292399  0.366071  -5e-06  0.988352  0.0
H  H9  1  0.76040414  0.56848488  0.96179283  1  0.406501  1e-06  0.909066  0.0  0.374362  3e-06  0.97632  0.0  0.385963  2e-06  0.959424  0.0  0.292425  0.366096  5e-06  0.988318  0.0
H  H10  1  0.18093205  0.40078584  0.14698408  1  0.424712  -0.000114  0.87823  0.0  0.396509  -5.9e-05  0.938346  0.0  0.407216  -4.6e-05  0.922844  0.0  0.298481  0.388859  -6.4e-05  0.949412  0.0
H  H11  1  0.81906561  0.59921503  0.85301434  1  0.424732  0.000114  0.878197  0.0  0.396499  5.9e-05  0.938355  0.0  0.407205  4.6e-05  0.922855  0.0  0.298485  0.388852  6.4e-05  0.949419  0.0
H  H12  1  0.77672496  0.37209670  0.92845680  1  0.433511  2.3e-05  0.866346  0.0  0.405163  1.5e-05  0.925845  0.0  0.415683  8e-06  0.910363  0.0  0.3046  0.397564  2.3e-05  0.937031  0.0
H  H13  1  0.22327321  0.62790222  0.07154141  1  0.433618  -2.4e-05  0.866229  0.0  0.405283  -1.5e-05  0.925698  0.0  0.4158  -8e-06  0.91022  0.0  0.304627  0.397688  -2.3e-05  0.936878  0.0
H  H14  1  0.83680415  0.37319294  0.81538953  1  0.443989  -0.000138  0.849017  0.0  0.414286  -0.000127  0.910761  0.0  0.42473  -6.8e-05  0.895558  0.0  0.30646  0.406773  -0.000196  0.921676  0.0
H  H15  1  0.16319492  0.62680502  0.18460869  1  0.444099  0.000138  0.848884  0.0  0.414402  0.000127  0.91062  0.0  0.424846  6.8e-05  0.895417  0.0  0.306487  0.40689  0.000196  0.921537  0.0
H  H16  1  0.59233254  0.81692348  0.85703871  1  0.023214  9e-06  0.899153  0.0  0.033152  8e-06  0.961626  0.0  0.033785  8e-06  0.957016  0.0  0.117834  0.032487  1e-05  0.965098  0.0
H  H17  1  0.40768298  0.18307077  0.14296540  1  0.023193  -9e-06  0.899251  0.0  0.033153  -9e-06  0.961694  0.0  0.033785  -7e-06  0.957087  0.0  0.117832  0.032489  -1e-05  0.965158  0.0
H  H18  1  0.36347395  0.67579020  0.52060690  1  0.091496  -0.000945  0.94216  -0.002  0.100426  -0.000812  1.004648  -0.001  0.102994  -0.000607  1.002238  -0.001  0.125384  0.098385  -0.00097  1.006636  -0.002
H  H19  1  0.63652627  0.32421069  0.47939369  1  0.091493  0.000945  0.942155  0.002  0.100422  0.000812  1.00464  0.001  0.103002  0.000607  1.002216  0.001  0.125384  0.098385  0.00097  1.006629  0.002
H  H20  1  0.57288914  0.56180133  0.62603966  1  0.11799  -0.00057  0.963335  0.0  0.124463  -0.000568  1.02733  0.0  0.129319  -0.000402  1.024486  0.0  0.110896  0.120982  -0.000704  1.029482  -0.001
H  H21  1  0.42710979  0.43819956  0.37396067  1  0.117992  0.000569  0.96331  0.0  0.124464  0.000568  1.027309  0.0  0.12932  0.000402  1.024466  0.0  0.1109  0.120987  0.000704  1.029456  0.001
H  H22  1  0.48906545  0.45211532  0.77386844  1  0.1176  -0.000124  0.915505  0.0  0.130817  3.5e-05  0.966855  0.0  0.134734  3.6e-05  0.963757  0.0  0.120529  0.127795  2.5e-05  0.969471  0.0
H  H23  1  0.51093182  0.54788457  0.22613057  1  0.11761  0.000125  0.915495  0.0  0.130852  -3.5e-05  0.966804  0.0  0.13477  -3.6e-05  0.963704  0.0  0.120537  0.127804  -2.5e-05  0.969461  0.0
H  H24  1  0.32318386  0.23865682  0.43153068  1  0.090807  0.001125  0.942255  0.002  0.099868  0.00092  1.003966  0.002  0.102065  0.00068  1.001568  0.001  0.123908  0.098084  0.001096  1.005905  0.002
H  H25  1  0.67681892  0.76134411  0.56847206  1  0.090783  -0.001126  0.942257  -0.002  0.099843  -0.00092  1.003969  -0.002  0.102039  -0.00068  1.00157  -0.001  0.123892  0.098059  -0.001097  1.005911  -0.002
H  H26  1  0.55585832  0.14422616  0.54537075  1  0.119913  0.000711  0.962752  0.001  0.128512  0.000656  1.0231  0.001  0.133007  0.00046  1.020619  0.0  0.111928  0.125258  0.00081  1.025066  0.001
H  H27  1  0.44414320  0.85577475  0.45463008  1  0.11989  -0.000711  0.962841  -0.001  0.128514  -0.000656  1.02315  -0.001  0.133009  -0.000461  1.020666  0.0  0.111925  0.125245  -0.00081  1.025139  -0.001
H  H28  1  0.48710664  0.03633781  0.69788307  1  0.128752  0.000156  0.973482  0.0  0.136282  -3.4e-05  1.034269  0.0  0.140578  -3.9e-05  1.030676  0.0  0.12005  0.132948  -1.7e-05  1.037253  0.0
H  H29  1  0.51289153  0.96366111  0.30211595  1  0.128676  -0.000156  0.973503  0.0  0.136194  3.4e-05  1.034313  0.0  0.140489  3.9e-05  1.030719  0.0  0.120021  0.132831  1.7e-05  1.03733  0.0
C  C30  1  0.20650103  0.45290392  0.84876007  1  0.695926  -0.000822  3.906764  -0.001  0.639817  -0.000741  4.213083  -0.001  0.67575  -0.000454  4.203376  -0.001  0.228061  0.615369  -0.001047  4.218674  -0.001
C  C31  1  0.79349302  0.54709107  0.15123667  1  0.696007  0.000823  3.906693  0.001  0.639887  0.000741  4.213015  0.001  0.67582  0.000455  4.203309  0.001  0.2282  0.615454  0.001047  4.218601  0.001
C  C32  1  0.24310960  0.50442722  0.74842721  1  -0.072442  -0.004495  3.67522  -0.004  -0.062209  -0.001974  3.923568  -0.002  -0.067592  -0.001967  3.938995  -0.002  0.009658  -0.059478  -0.002039  3.914616  -0.002
C  C33  1  0.75688767  0.49557267  0.25157180  1  -0.072335  0.004497  3.675097  0.004  -0.062116  0.001976  3.923481  0.002  -0.0675  0.001967  3.938912  0.002  0.009656  -0.059399  0.002039  3.914528  0.002
C  C34  1  0.13174275  0.56404770  0.68214083  1  0.054975  0.002214  3.731466  0.003  0.046202  -0.00088  3.990656  0.0  0.049469  4.4e-05  4.008233  0.001  0.106251  0.043439  -0.001616  3.980449  -0.001
C  C35  1  0.86825579  0.43595222  0.31786008  1  0.05495  -0.002217  3.731504  -0.003  0.046172  0.00088  3.990693  0.0  0.049437  -4.5e-05  4.008267  -0.001  0.106257  0.043422  0.001616  3.980468  0.001
C  C36  1  0.69706209  0.90671354  0.86582356  1  0.592277  2e-06  3.902931  0.0  0.527952  1e-06  4.210849  0.0  0.561876  2e-06  4.205936  0.0  0.153394  0.504742  3e-06  4.212977  0.0
C  C37  1  0.30294430  0.09328353  0.13417759  1  0.592169  -3e-06  3.903229  0.0  0.527816  1e-06  4.211164  0.0  0.561739  -2e-06  4.206254  0.0  0.153344  0.504604  -3e-06  4.213288  0.0
C  C38  1  0.33453549  0.62477800  0.58486053  1  0.139014  0.005233  3.666213  0.006  0.107369  0.000544  3.924654  0.001  0.11757  0.001441  3.940529  0.002  0.054681  0.10073  -0.000215  3.914405  0.001
C  C39  1  0.66546590  0.37522582  0.41514076  1  0.139023  -0.005233  3.666287  -0.006  0.107388  -0.000545  3.924718  -0.001  0.117582  -0.001441  3.940583  -0.002  0.054734  0.10073  0.000215  3.914488  -0.001
C  C40  1  0.95060283  0.56697023  0.68862520  1  0.626962  0.003759  3.904332  0.006  0.573718  -0.000285  4.214777  0.001  0.609483  -0.00012  4.207776  0.001  0.217208  0.549252  -0.000435  4.219175  0.002
C  C41  1  0.04939740  0.43303067  0.31137455  1  0.626932  -0.003757  3.904462  -0.006  0.573729  0.000286  4.214831  -0.001  0.6095  0.000117  4.20782  -0.001  0.217209  0.549262  0.000434  4.219212  -0.002
C  C42  1  0.44779838  0.56093810  0.64278943  1  -0.09176  -0.007782  3.681099  -0.008  -0.10662  -0.003461  3.938432  -0.004  -0.112103  -0.003125  3.95441  -0.004  -0.069475  -0.103201  -0.003704  3.92801  -0.004
C  C43  1  0.55219890  0.43906179  0.35720876  1  -0.091807  0.007784  3.68118  0.008  -0.106665  0.003465  3.93851  0.004  -0.112152  0.003125  3.9545  0.004  -0.069522  -0.103241  0.003704  3.928076  0.004
C  C44  1  0.40178516  0.50078907  0.72553449  1  0.00114  0.006033  3.638845  0.006  -0.028294  0.001793  3.892108  0.002  -0.022652  0.002066  3.90459  0.002  -0.051125  -0.032435  0.001488  3.884655  0.001
C  C45  1  0.59821173  0.49920985  0.27446346  1  0.001095  -0.006035  3.638859  -0.006  -0.02835  -0.001797  3.892118  -0.002  -0.022709  -0.002067  3.904598  -0.002  -0.051132  -0.032471  -0.001488  3.884675  -0.001
C  C46  1  0.93775563  0.13841499  0.62016848  1  0.639156  -0.004154  3.894805  -0.006  0.591863  0.000326  4.20047  -0.001  0.630135  0.000171  4.192299  -0.001  0.220441  0.565485  0.000455  4.205299  -0.002
C  C47  1  0.06224422  0.86158492  0.37983022  1  0.63922  0.004153  3.894863  0.006  0.591891  -0.000325  4.200582  0.001  0.630162  -0.000171  4.192422  0.001  0.220442  0.565518  -0.000455  4.205413  0.002
C  C48  1  0.11563982  0.13346640  0.60825523  1  0.063275  -0.004408  3.723399  -0.005  0.05789  -0.000278  3.972239  -0.001  0.06172  -0.001208  3.991643  -0.002  0.109814  0.055367  0.000371  3.960068  0.0
C  C49  1  0.88436466  0.86653550  0.39174553  1  0.06318  0.004404  3.723514  0.005  0.057816  0.000277  3.972352  0.001  0.061645  0.001208  3.991767  0.002  0.10982  0.055286  -0.000372  3.960196  0.0
C  C50  1  0.19957234  0.00833343  0.76510760  1  0.707975  0.001343  3.873547  0.001  0.658692  0.001096  4.175756  0.001  0.69663  0.000742  4.164214  0.001  0.237018  0.632812  0.001439  4.182442  0.001
C  C51  1  0.80043213  0.99166848  0.23489398  1  0.708057  -0.001343  3.873396  -0.001  0.658756  -0.001094  4.175629  -0.001  0.696696  -0.000741  4.164081  -0.001  0.237026  0.632877  -0.001439  4.182307  -0.001
C  C52  1  0.30621959  0.19327708  0.50158862  1  0.139938  -0.0062  3.676541  -0.007  0.107214  -0.000677  3.937898  -0.002  0.117536  -0.001803  3.954952  -0.003  0.052715  0.10058  0.000242  3.926771  -0.001
C  C53  1  0.69378797  0.80672292  0.49841325  1  0.140024  0.0062  3.676562  0.007  0.107302  0.000676  3.937918  0.002  0.117627  0.001806  3.954978  0.003  0.052765  0.10067  -0.000242  3.926796  0.001
C  C54  1  0.43077757  0.13975551  0.56317122  1  -0.08563  0.010083  3.668863  0.011  -0.098987  0.004318  3.920583  0.005  -0.104617  0.003903  3.936086  0.005  -0.068669  -0.095477  0.004611  3.91035  0.005
C  C55  1  0.56922096  0.86024442  0.43683051  1  -0.085683  -0.010081  3.668923  -0.011  -0.099048  -0.004318  3.920603  -0.005  -0.104677  -0.003907  3.936103  -0.005  -0.068677  -0.095525  -0.004612  3.910375  -0.005
C  C56  1  0.39291504  0.07962780  0.64804622  1  0.005939  -0.008104  3.612341  -0.007  -0.023304  -0.002682  3.860122  -0.002  -0.016576  -0.002949  3.871605  -0.003  -0.048137  -0.027888  -0.002433  3.853124  -0.002
C  C57  1  0.60708736  0.92037216  0.35195628  1  0.006111  0.0081  3.612358  0.007  -0.023119  0.002681  3.860105  0.002  -0.016389  0.00295  3.871591  0.003  -0.048086  -0.02768  0.002433  3.853106  0.002
C  C58  1  0.23294349  0.07541627  0.67190575  1  -0.073256  0.006091  3.650181  0.006  -0.062059  0.002413  3.889724  0.002  -0.069973  0.002426  3.907358  0.002  0.01296  -0.057802  0.002475  3.879042  0.002
C  C59  1  0.76705506  0.92458364  0.32809351  1  -0.073256  -0.006088  3.650157  -0.006  -0.062043  -0.002414  3.889671  -0.002  -0.069958  -0.002428  3.907306  -0.002  0.012982  -0.057775  -0.002476  3.878971  -0.002
N  N60  1  0.18067111  0.62508402  0.60423409  1  -0.306372  -0.067388  3.382749  -0.082  -0.265655  -0.047185  3.685872  -0.061  -0.293232  -0.039618  3.705505  -0.053  -0.352645  -0.249323  -0.051248  3.674988  -0.063
N  N61  1  0.81932742  0.37491590  0.39576765  1  -0.306325  0.067389  3.38287  0.082  -0.265634  0.047183  3.68599  0.061  -0.293195  0.039616  3.705629  0.053  -0.352672  -0.249307  0.051246  3.67511  0.063
N  N62  1  0.15435002  0.19014826  0.52506967  1  -0.318487  0.082429  3.409233  0.101  -0.27897  0.055382  3.716036  0.072  -0.309871  0.046299  3.739041  0.063  -0.357937  -0.260726  0.059962  3.702858  0.075
N  N63  1  0.84565279  0.80985265  0.47493059  1  -0.318568  -0.082426  3.409239  -0.101  -0.279066  -0.055382  3.716083  -0.072  -0.309987  -0.046306  3.739094  -0.063  -0.358001  -0.260825  -0.059962  3.702929  -0.075
O  O64  1  0.86241407  0.90832938  0.90384541  1  -0.713317  -1.1e-05  2.070542  0.0  -0.661399  8e-06  2.330934  0.0  -0.699185  8e-06  2.32567  0.0  -0.414788  -0.63383  1.6e-05  2.3332  0.0
O  O65  1  0.13759568  0.09166966  0.09615590  1  -0.713216  1.1e-05  2.070675  0.0  -0.661277  -9e-06  2.331054  0.0  -0.699064  -9e-06  2.325796  0.0  -0.414735  -0.633709  -1.6e-05  2.33332  0.0
O  O66  1  0.84087129  0.21868130  0.07850050  1  -0.880941  -0.000167  1.844599  0.0  -0.828802  -8.4e-05  2.034085  0.0  -0.854606  -5.7e-05  2.001279  0.0  -0.622626  -0.809822  -0.00011  2.057043  0.0
O  O67  1  0.15912855  0.78131862  0.92149985  1  -0.880942  0.000168  1.844629  0.0  -0.8288  8.3e-05  2.034099  0.0  -0.854604  5.7e-05  2.001291  0.0  -0.622614  -0.809819  0.00011  2.057057  0.0
O  O68  1  0.21170647  0.36150587  0.07767442  1  -0.884297  -0.000153  1.878295  0.0  -0.839574  -0.000101  2.06588  0.0  -0.865554  -8.8e-05  2.033368  0.0  -0.636819  -0.820469  -9.8e-05  2.088453  0.0
O  O69  1  0.78829119  0.63849500  0.92232401  1  -0.884329  0.000153  1.878219  0.0  -0.839573  0.000101  2.065843  0.0  -0.865553  8.9e-05  2.03333  0.0  -0.636838  -0.820473  9.8e-05  2.088423  0.0
O  O70  1  0.65274840  0.00283866  0.83936338  1  -0.597493  1.7e-05  2.010144  0.0  -0.554498  -2.1e-05  2.249574  0.0  -0.583828  -2e-05  2.241451  0.0  -0.343311  -0.533471  -2.2e-05  2.254288  0.0
O  O71  1  0.34725280  0.99715839  0.16064170  1  -0.597491  -1.7e-05  2.010245  0.0  -0.55449  2.1e-05  2.249684  0.0  -0.583821  1.9e-05  2.24156  0.0  -0.343318  -0.533455  2.2e-05  2.254394  0.0
O  O72  1  0.87901320  0.08580935  0.69037891  1  -0.632579  0.016595  1.994451  0.02  -0.591814  0.008409  2.238289  0.011  -0.625027  0.004226  2.231786  0.006  -0.346271  -0.567001  0.012999  2.241358  0.016
O  O73  1  0.12098614  0.91419251  0.30962083  1  -0.632553  -0.016595  1.994407  -0.02  -0.591759  -0.008409  2.238244  -0.011  -0.624968  -0.004225  2.231741  -0.006  -0.346222  -0.566943  -0.012999  2.241308  -0.016
O  O74  1  0.79756413  0.31613648  0.86283852  1  -0.878543  -0.000288  1.789631  0.0  -0.831285  -0.000201  1.965005  0.0  -0.856399  -0.000116  1.933656  0.0  -0.630386  -0.812821  -0.000284  1.986938  0.0
O  O75  1  0.20243237  0.68386145  0.13715837  1  -0.878751  0.000288  1.789457  0.0  -0.831515  0.000199  1.96484  0.0  -0.856629  0.000116  1.933489  0.0  -0.630436  -0.813052  0.000283  1.986776  0.0
O  O76  1  0.20971814  0.07846843  0.86446864  1  -0.683956  0.001327  1.981367  0.002  -0.638838  0.000782  2.224854  0.001  -0.6716  0.000487  2.213283  0.001  -0.384114  -0.614362  0.00109  2.23139  0.001
O  O77  1  0.79028467  0.92153249  0.13553162  1  -0.684011  -0.001327  1.981332  -0.002  -0.638884  -0.000781  2.224826  -0.001  -0.671649  -0.000487  2.213254  -0.001  -0.384105  -0.614414  -0.00109  2.231363  -0.001
O  O78  1  0.13955678  0.33179330  0.82807769  1  -0.672271  -0.001211  2.037269  -0.001  -0.620491  -0.000638  2.282825  -0.001  -0.653876  -0.000385  2.277006  0.0  -0.342666  -0.596151  -0.000979  2.285706  -0.001
O  O79  1  0.86043973  0.66820463  0.17191837  1  -0.67245  0.001212  2.037144  0.001  -0.620682  0.000641  2.282741  0.001  -0.654071  0.000385  2.276922  0.0  -0.342791  -0.596337  0.000979  2.285614  0.001
O  O80  1  0.25969992  0.53859945  0.94926566  1  -0.650166  -0.001202  1.956924  -0.002  -0.586593  -0.000678  2.166404  -0.001  -0.613294  -0.000404  2.153703  -0.001  -0.305255  -0.567531  -0.000988  2.174638  -0.001
O  O81  1  0.74029696  0.46139946  0.05073311  1  -0.650101  0.001198  1.957039  0.002  -0.586511  0.000675  2.166528  0.001  -0.61321  0.000403  2.153825  0.001  -0.305258  -0.567444  0.000987  2.174755  0.001
O  O82  1  0.88013703  0.50313612  0.74797987  1  -0.601114  -0.013236  2.019636  -0.016  -0.54448  -0.00725  2.239051  -0.01  -0.569985  -0.00364  2.229175  -0.005  -0.290389  -0.526032  -0.011087  2.245124  -0.014
O  O83  1  0.11986319  0.49686478  0.25202071  1  -0.601105  0.013236  2.019682  0.016  -0.544497  0.007252  2.239079  0.01  -0.570006  0.003642  2.229199  0.005  -0.290391  -0.526054  0.011086  2.245152  0.014
O  O84  1  0.87437639  0.63562358  0.62821596  1  -0.571465  -0.087899  2.062834  -0.115  -0.542466  -0.060514  2.345375  -0.086  -0.583366  -0.047257  2.337862  -0.071  -0.313196  -0.515238  -0.068813  2.350625  -0.094
O  O85  1  0.12562308  0.36437535  0.37178167  1  -0.571434  0.0879  2.062924  0.115  -0.542472  0.060513  2.345433  0.086  -0.583348  0.047254  2.337894  0.071  -0.31321  -0.515261  0.068814  2.350705  0.094
O  O86  1  0.85088104  0.19688882  0.55228514  1  -0.567636  0.095738  2.040091  0.125  -0.546441  0.064104  2.330185  0.091  -0.588722  0.049708  2.321112  0.075  -0.311466  -0.518619  0.072957  2.336881  0.1
O  O87  1  0.14911918  0.80311207  0.44771544  1  -0.567698  -0.095735  2.04002  -0.125  -0.546475  -0.064103  2.330147  -0.091  -0.588771  -0.049711  2.321066  -0.075  -0.311489  -0.518648  -0.072956  2.336845  -0.1
O  O88  1  0.17361312  0.88600739  0.73961965  1  -0.625924  0.002588  2.010626  0.002  -0.581281  0.001311  2.254598  0.001  -0.613067  0.001158  2.241723  0.001  -0.300776  -0.558749  0.001533  2.263048  0.001
O  O89  1  0.82638491  0.11399447  0.26038231  1  -0.625945  -0.002588  2.010588  -0.002  -0.581341  -0.00131  2.254613  -0.001  -0.613117  -0.001158  2.24174  -0.001  -0.300814  -0.558809  -0.001533  2.263055  -0.001
