# generated using pymatgen
data_ErH7(C3O4)2
_symmetry_space_group_name_H-M   'P 1'
_cell_length_a   7.97731631
_cell_length_b   9.50352323
_cell_length_c   12.25774420
_cell_angle_alpha   91.36241629
_cell_angle_beta   90.00038846
_cell_angle_gamma   89.99911351
_symmetry_Int_Tables_number   1
_chemical_formula_structural   ErH7(C3O4)2
_chemical_formula_sum   'Er4 H28 C24 O32'
_cell_volume   929.02888137
_cell_formula_units_Z   4
loop_
 _symmetry_equiv_pos_site_id
 _symmetry_equiv_pos_as_xyz
  1  'x, y, z'
loop_
 _atom_site_type_symbol
 _atom_site_label
 _atom_site_symmetry_multiplicity
 _atom_site_fract_x
 _atom_site_fract_y
 _atom_site_fract_z
 _atom_site_occupancy
 _atom_site_hle17_bader_spin_density
 _atom_site_hle17_ddec_charge
 _atom_site_hle17_ddec_spin_density
 _atom_site_hle17_ddec_sum_bond_order
 _atom_site_hle17_magmom
 _atom_site_hse06_10hf_bader_spin_density
 _atom_site_hse06_10hf_ddec_charge
 _atom_site_hse06_10hf_ddec_spin_density
 _atom_site_hse06_10hf_ddec_sum_bond_order
 _atom_site_hse06_10hf_magmom
 _atom_site_hse06_bader_spin_density
 _atom_site_hse06_ddec_charge
 _atom_site_hse06_ddec_spin_density
 _atom_site_hse06_ddec_sum_bond_order
 _atom_site_hse06_magmom
 _atom_site_pbe_bader_spin_density
 _atom_site_pbe_cm5_charge
 _atom_site_pbe_ddec_charge
 _atom_site_pbe_ddec_spin_density
 _atom_site_pbe_ddec_sum_bond_order
 _atom_site_pbe_magmom
Er  Er0  1  0.55487539  0.69185711  0.41706540  1  0  2.277506  0  1.59873  0  0  2.126028  0  2.078774  0  0  2.259095  0  1.877727  0  0  1.509736  2.091313  0  2.108446  0
Er  Er1  1  0.05487611  0.80814007  0.08293089  1  0  2.27745  0  1.598634  0  0  2.126037  0  2.07861  0  0  2.259058  0  1.877627  0  0  1.509746  2.091319  0  2.108282  0
Er  Er2  1  0.44512233  0.30815560  0.58292932  1  0  2.277522  0  1.598649  0  0  2.126086  0  2.078645  0  0  2.259116  0  1.877653  0  0  1.50975  2.091363  0  2.108308  0
Er  Er3  1  0.94512412  0.19184106  0.91706486  1  0  2.277515  0  1.598715  0  0  2.126082  0  2.078731  0  0  2.259119  0  1.877716  0  0  1.509739  2.091364  0  2.108395  0
H  H4  1  0.10910652  0.86486434  0.49947998  1  0  0.137787  0  0.944076  0  0  0.143936  0  1.005826  0  0  0.148451  0  1.003131  0  0  0.119499  0.140848  0  1.007344  0
H  H5  1  0.60909749  0.63514583  0.00051924  1  0  0.13767  0  0.944101  0  0  0.143846  0  1.00586  0  0  0.148365  0  1.00316  0  0  0.119495  0.140763  0  1.00737  0
H  H6  1  0.89088117  0.13514100  0.50052275  1  0  0.137716  0  0.944073  0  0  0.143873  0  1.005834  0  0  0.148397  0  1.003126  0  0  0.119477  0.140751  0  1.007392  0
H  H7  1  0.39091653  0.36484267  0.99947176  1  0  0.137794  0  0.944109  0  0  0.143976  0  1.005826  0  0  0.148495  0  1.003126  0  0  0.119531  0.140863  0  1.007361  0
H  H8  1  0.81324647  0.33104342  0.20754806  1  0  0.129399  0  0.94101  0  0  0.135391  0  1.003842  0  0  0.139743  0  1.001095  0  0  0.114425  0.132385  0  1.00539  0
H  H9  1  0.31322436  0.16896890  0.29246058  1  0  0.129544  0  0.941126  0  0  0.135532  0  1.00391  0  0  0.139888  0  1.001161  0  0  0.114473  0.132511  0  1.00549  0
H  H10  1  0.18675752  0.66897664  0.79246311  1  0  0.129517  0  0.941002  0  0  0.135508  0  1.003774  0  0  0.139861  0  1.001029  0  0  0.114465  0.132489  0  1.005352  0
H  H11  1  0.68677211  0.83103328  0.70754046  1  0  0.129449  0  0.94114  0  0  0.135445  0  1.003906  0  0  0.139797  0  1.001161  0  0  0.114465  0.132424  0  1.005486  0
H  H12  1  0.66610222  0.07028436  0.31950158  1  0  0.13498  0  0.943777  0  0  0.140297  0  1.008822  0  0  0.145127  0  1.005543  0  0  0.115953  0.137078  0  1.010738  0
H  H13  1  0.16608041  0.42972564  0.18050230  1  0  0.134898  0  0.943943  0  0  0.140231  0  1.008975  0  0  0.145061  0  1.005699  0  0  0.115877  0.13699  0  1.010925  0
H  H14  1  0.33390678  0.92972939  0.68050377  1  0  0.134976  0  0.943881  0  0  0.140295  0  1.008925  0  0  0.145123  0  1.005651  0  0  0.115922  0.137094  0  1.010815  0
H  H15  1  0.83392233  0.57027444  0.81949055  1  0  0.134888  0  0.943919  0  0  0.140184  0  1.009017  0  0  0.145018  0  1.005733  0  0  0.115848  0.13695  0  1.010959  0
H  H16  1  0.35828551  0.96264927  0.42322981  1  0  0.44269  0  0.852104  0  0  0.413674  0  0.912158  0  0  0.425165  0  0.895517  0  0  0.300805  0.405755  0  0.92379  0
H  H17  1  0.85832045  0.53734505  0.07677919  1  0  0.442801  0  0.851951  0  0  0.413767  0  0.912029  0  0  0.425257  0  0.895392  0  0  0.300871  0.40585  0  0.92366  0
H  H18  1  0.64169716  0.03736659  0.57677068  1  0  0.442846  0  0.851941  0  0  0.413787  0  0.912043  0  0  0.425277  0  0.895404  0  0  0.300857  0.405872  0  0.923668  0
H  H19  1  0.14169482  0.46264764  0.92322739  1  0  0.442726  0  0.852077  0  0  0.413671  0  0.912201  0  0  0.425163  0  0.895555  0  0  0.300796  0.405755  0  0.923828  0
H  H20  1  0.28948824  0.87294341  0.32255894  1  0  0.439702  0  0.850903  0  0  0.412671  0  0.908559  0  0  0.4235  0  0.892788  0  0  0.306072  0.405111  0  0.919768  0
H  H21  1  0.78951631  0.62704548  0.17745210  1  0  0.439711  0  0.850936  0  0  0.412687  0  0.908524  0  0  0.423514  0  0.892756  0  0  0.30611  0.405132  0  0.919727  0
H  H22  1  0.71048817  0.12707035  0.67744396  1  0  0.439804  0  0.850833  0  0  0.412768  0  0.908443  0  0  0.423596  0  0.892672  0  0  0.306154  0.405211  0  0.919645  0
H  H23  1  0.21049646  0.37294616  0.82255527  1  0  0.439719  0  0.850946  0  0  0.41268  0  0.908569  0  0  0.423508  0  0.892799  0  0  0.306106  0.405117  0  0.919777  0
H  H24  1  0.69106687  0.81850337  0.21996530  1  0  0.434946  0  0.87175  0  0  0.404367  0  0.934578  0  0  0.41531  0  0.919166  0  0  0.304428  0.396653  0  0.945707  0
H  H25  1  0.19106947  0.68149522  0.28003325  1  0  0.43509  0  0.871549  0  0  0.404445  0  0.934466  0  0  0.415387  0  0.919056  0  0  0.304455  0.396729  0  0.945596  0
H  H26  1  0.30891832  0.18149776  0.78003246  1  0  0.435199  0  0.8714  0  0  0.404454  0  0.93445  0  0  0.415398  0  0.919036  0  0  0.304458  0.396744  0  0.945567  0
H  H27  1  0.80892324  0.31849854  0.71997172  1  0  0.435096  0  0.871553  0  0  0.404447  0  0.934478  0  0  0.415389  0  0.919066  0  0  0.304431  0.39673  0  0.945609  0
H  H28  1  0.51640204  0.75121922  0.18221977  1  0  0.442766  0  0.853664  0  0  0.414943  0  0.910677  0  0  0.426163  0  0.894644  0  0  0.303498  0.407295  0  0.921677  0
H  H29  1  0.01641131  0.74877425  0.31778036  1  0  0.442801  0  0.853593  0  0  0.414959  0  0.910639  0  0  0.42618  0  0.894606  0  0  0.303509  0.407315  0  0.921636  0
H  H30  1  0.48357814  0.24878297  0.81776660  1  0  0.442807  0  0.853608  0  0  0.414971  0  0.910639  0  0  0.426193  0  0.894606  0  0  0.303541  0.407325  0  0.921637  0
H  H31  1  0.98357889  0.25122056  0.68222054  1  0  0.442812  0  0.853586  0  0  0.414986  0  0.910605  0  0  0.426207  0  0.894573  0  0  0.303518  0.40734  0  0.921604  0
C  C32  1  0.84075972  0.85615579  0.46035698  1  0  0.690186  0  3.893618  0  0  0.640869  0  4.187696  0  0  0.674555  0  4.186179  0  0  0.208877  0.617214  0  4.193943  0
C  C33  1  0.34076427  0.64383771  0.03965519  1  0  0.689944  0  3.893523  0  0  0.640669  0  4.187618  0  0  0.674345  0  4.186101  0  0  0.208701  0.617018  0  4.193866  0
C  C34  1  0.15921543  0.14386639  0.53964445  1  0  0.689998  0  3.893195  0  0  0.640697  0  4.187317  0  0  0.674386  0  4.185781  0  0  0.208597  0.61704  0  4.193572  0
C  C35  1  0.65924474  0.35615817  0.96033105  1  0  0.690018  0  3.893186  0  0  0.640761  0  4.187285  0  0  0.674438  0  4.185767  0  0  0.208735  0.617099  0  4.193536  0
C  C36  1  0.99681295  0.93001333  0.49258204  1  0  -0.148839  0  3.612973  0  0  -0.164661  0  3.861346  0  0  -0.169478  0  3.873607  0  0  -0.069679  -0.160755  0  3.85157  0
C  C37  1  0.49681475  0.56999605  0.00742949  1  0  -0.148552  0  3.612972  0  0  -0.164463  0  3.861434  0  0  -0.169282  0  3.873684  0  0  -0.069635  -0.16056  0  3.851657  0
C  C38  1  0.00317475  0.07000462  0.50742828  1  0  -0.14873  0  3.61322  0  0  -0.164619  0  3.861626  0  0  -0.169449  0  3.87388  0  0  -0.069668  -0.160692  0  3.851884  0
C  C39  1  0.50319174  0.43000825  0.99256181  1  0  -0.148796  0  3.612945  0  0  -0.164692  0  3.86138  0  0  -0.16951  0  3.873629  0  0  -0.069652  -0.160758  0  3.851622  0
C  C40  1  0.75095949  0.27046460  0.27020567  1  0  -0.147599  0  3.594377  0  0  -0.165779  0  3.841454  0  0  -0.170485  0  3.853748  0  0  -0.072708  -0.161828  0  3.830965  0
C  C41  1  0.25093937  0.22952852  0.22979663  1  0  -0.147716  0  3.594699  0  0  -0.165981  0  3.84174  0  0  -0.170673  0  3.854053  0  0  -0.072751  -0.16203  0  3.831242  0
C  C42  1  0.24905829  0.72953862  0.72980274  1  0  -0.147783  0  3.594519  0  0  -0.165971  0  3.841501  0  0  -0.170674  0  3.853796  0  0  -0.07275  -0.162024  0  3.831014  0
C  C43  1  0.74905710  0.77046419  0.77020097  1  0  -0.147747  0  3.594618  0  0  -0.165818  0  3.841741  0  0  -0.170527  0  3.854032  0  0  -0.072745  -0.16187  0  3.831241  0
C  C44  1  0.68497089  0.35159413  0.36640897  1  0  0.761349  0  3.848271  0  0  0.723009  0  4.128663  0  0  0.759601  0  4.119441  0  0  0.232541  0.698717  0  4.136907  0
C  C45  1  0.18495627  0.14839563  0.13359950  1  0  0.760962  0  3.848666  0  0  0.72284  0  4.128701  0  0  0.759373  0  4.119586  0  0  0.232424  0.698553  0  4.136932  0
C  C46  1  0.31505818  0.64839961  0.63360905  1  0  0.761405  0  3.84841  0  0  0.723218  0  4.128512  0  0  0.759804  0  4.119299  0  0  0.232558  0.698928  0  4.136746  0
C  C47  1  0.81504020  0.85157602  0.86640178  1  0  0.761645  0  3.847733  0  0  0.723076  0  4.128499  0  0  0.75967  0  4.119272  0  0  0.2326  0.69879  0  4.136727  0
C  C48  1  0.79962391  0.05252300  0.16162700  1  0  0.768916  0  3.824401  0  0  0.727125  0  4.10371  0  0  0.764141  0  4.094484  0  0  0.240684  0.702312  0  4.112657  0
C  C49  1  0.29962472  0.44747476  0.33837560  1  0  0.768814  0  3.824453  0  0  0.727131  0  4.103588  0  0  0.764171  0  4.094335  0  0  0.240699  0.702322  0  4.112526  0
C  C50  1  0.20037005  0.94747813  0.83837484  1  0  0.768965  0  3.824577  0  0  0.727206  0  4.103835  0  0  0.764256  0  4.094569  0  0  0.240784  0.702392  0  4.112782  0
C  C51  1  0.70038929  0.55252111  0.66161309  1  0  0.768675  0  3.824735  0  0  0.72711  0  4.103734  0  0  0.764146  0  4.09449  0  0  0.240678  0.702299  0  4.112667  0
C  C52  1  0.72801689  0.13114435  0.25669513  1  0  -0.167159  0  3.604185  0  0  -0.186178  0  3.853949  0  0  -0.191859  0  3.865411  0  0  -0.077194  -0.181983  0  3.844216  0
C  C53  1  0.22800939  0.36885223  0.24330060  1  0  -0.166958  0  3.604169  0  0  -0.186001  0  3.853876  0  0  -0.191691  0  3.865337  0  0  -0.07711  -0.181801  0  3.844168  0
C  C54  1  0.27198960  0.86886098  0.74330679  1  0  -0.167088  0  3.604291  0  0  -0.186135  0  3.854023  0  0  -0.191835  0  3.865485  0  0  -0.077194  -0.181957  0  3.844276  0
C  C55  1  0.77199961  0.63114470  0.75668729  1  0  -0.166914  0  3.60421  0  0  -0.186028  0  3.853878  0  0  -0.191718  0  3.865333  0  0  -0.07706  -0.181824  0  3.844158  0
O  O56  1  0.69529072  0.90235607  0.48720310  1  0  -0.696031  0  1.996394  0  0  -0.63374  0  2.229435  0  0  -0.669175  0  2.218042  0  0  -0.348669  -0.615647  0  2.236678  0
O  O57  1  0.19530085  0.59763930  0.01280193  1  0  -0.695986  0  1.996422  0  0  -0.633676  0  2.229436  0  0  -0.669104  0  2.218045  0  0  -0.348592  -0.615573  0  2.236662  0
O  O58  1  0.30468319  0.09766821  0.51280000  1  0  -0.695959  0  1.996065  0  0  -0.63363  0  2.229043  0  0  -0.669063  0  2.217655  0  0  -0.34844  -0.615515  0  2.236251  0
O  O59  1  0.80470816  0.40236605  0.98718694  1  0  -0.695953  0  1.996088  0  0  -0.633713  0  2.229166  0  0  -0.669137  0  2.217766  0  0  -0.348644  -0.615632  0  2.236449  0
O  O60  1  0.66652356  0.48294678  0.35366443  1  0  -0.734344  0  2.034714  0  0  -0.684509  0  2.285085  0  0  -0.722308  0  2.269372  0  0  -0.389596  -0.66713  0  2.292958  0
O  O61  1  0.16652027  0.01704532  0.14634319  1  0  -0.734098  0  2.034863  0  0  -0.68434  0  2.285097  0  0  -0.72212  0  2.269425  0  0  -0.389482  -0.666963  0  2.292964  0
O  O62  1  0.33350801  0.51704905  0.64636179  1  0  -0.734345  0  2.034898  0  0  -0.684564  0  2.285174  0  0  -0.722365  0  2.269476  0  0  -0.389558  -0.667181  0  2.293032  0
O  O63  1  0.83348999  0.98293054  0.85366389  1  0  -0.734517  0  2.034453  0  0  -0.684594  0  2.284934  0  0  -0.722396  0  2.269226  0  0  -0.389664  -0.66722  0  2.292802  0
O  O64  1  0.61312167  0.73764314  0.23317440  1  0  -0.925007  0  1.918734  0  0  -0.871881  0  2.117566  0  0  -0.904065  0  2.079781  0  0  -0.63801  -0.856779  0  2.139515  0
O  O65  1  0.11312264  0.76235013  0.26682533  1  0  -0.925087  0  1.918552  0  0  -0.871951  0  2.11758  0  0  -0.90413  0  2.079803  0  0  -0.63802  -0.856854  0  2.139527  0
O  O66  1  0.38685850  0.26235484  0.76681188  1  0  -0.925253  0  1.918388  0  0  -0.87205  0  2.117637  0  0  -0.904232  0  2.079849  0  0  -0.638118  -0.856959  0  2.139585  0
O  O67  1  0.88687257  0.23764467  0.73318047  1  0  -0.925211  0  1.918598  0  0  -0.872067  0  2.117608  0  0  -0.904246  0  2.079829  0  0  -0.638057  -0.856968  0  2.139557  0
O  O68  1  0.85377236  0.74250011  0.40280260  1  0  -0.667605  0  1.986502  0  0  -0.608022  0  2.207502  0  0  -0.641125  0  2.196264  0  0  -0.346362  -0.590753  0  2.21435  0
O  O69  1  0.35376163  0.75749217  0.09720797  1  0  -0.667475  0  1.986384  0  0  -0.607952  0  2.207398  0  0  -0.641044  0  2.196152  0  0  -0.346329  -0.590682  0  2.214239  0
O  O70  1  0.14621031  0.25752523  0.59719481  1  0  -0.667528  0  1.986174  0  0  -0.608016  0  2.207192  0  0  -0.641107  0  2.195936  0  0  -0.346342  -0.590736  0  2.21403  0
O  O71  1  0.64624111  0.24251004  0.90276697  1  0  -0.667485  0  1.986369  0  0  -0.607934  0  2.207391  0  0  -0.641027  0  2.19614  0  0  -0.346271  -0.590655  0  2.21423  0
O  O72  1  0.64721614  0.28513118  0.45221434  1  0  -0.758991  0  2.036701  0  0  -0.710557  0  2.294327  0  0  -0.748622  0  2.277558  0  0  -0.405901  -0.692757  0  2.302941  0
O  O73  1  0.14720191  0.21484643  0.04778801  1  0  -0.758904  0  2.036823  0  0  -0.710528  0  2.294285  0  0  -0.748563  0  2.277523  0  0  -0.405916  -0.692725  0  2.302891  0
O  O74  1  0.35280039  0.71485625  0.54779784  1  0  -0.759023  0  2.0368  0  0  -0.710636  0  2.294312  0  0  -0.748678  0  2.277491  0  0  -0.405924  -0.69284  0  2.302934  0
O  O75  1  0.85279456  0.78511470  0.95220817  1  0  -0.759012  0  2.036572  0  0  -0.710494  0  2.294255  0  0  -0.748551  0  2.277465  0  0  -0.405921  -0.692697  0  2.302863  0
O  O76  1  0.39193126  0.89242407  0.36570658  1  0  -0.910579  0  1.847915  0  0  -0.867957  0  2.043816  0  0  -0.896351  0  2.003524  0  0  -0.640119  -0.855166  0  2.067243  0
O  O77  1  0.89196049  0.60756350  0.13430733  1  0  -0.910612  0  1.847752  0  0  -0.868032  0  2.043792  0  0  -0.896424  0  2.003504  0  0  -0.640206  -0.855222  0  2.067163  0
O  O78  1  0.60804390  0.10758126  0.63429942  1  0  -0.910781  0  1.847687  0  0  -0.868159  0  2.043742  0  0  -0.896546  0  2.003458  0  0  -0.640264  -0.855351  0  2.067134  0
O  O79  1  0.10805353  0.39242709  0.86570003  1  0  -0.910601  0  1.847795  0  0  -0.867968  0  2.043708  0  0  -0.89636  0  2.003425  0  0  -0.640163  -0.855168  0  2.067131  0
O  O80  1  0.83129645  0.11435300  0.07433278  1  0  -0.759811  0  2.13727  0  0  -0.709679  0  2.396168  0  0  -0.750167  0  2.384047  0  0  -0.38758  -0.691597  0  2.403518  0
O  O81  1  0.33128552  0.38563804  0.42566656  1  0  -0.759694  0  2.137384  0  0  -0.709632  0  2.396269  0  0  -0.75014  0  2.384168  0  0  -0.387546  -0.691549  0  2.403613  0
O  O82  1  0.16868749  0.88563445  0.92566227  1  0  -0.759805  0  2.13738  0  0  -0.709741  0  2.396337  0  0  -0.750241  0  2.384215  0  0  -0.387603  -0.691659  0  2.403685  0
O  O83  1  0.66870719  0.61437362  0.57433058  1  0  -0.759703  0  2.137283  0  0  -0.709672  0  2.396156  0  0  -0.750169  0  2.384027  0  0  -0.387572  -0.691589  0  2.403497  0
O  O84  1  0.83436200  0.92154279  0.17602301  1  0  -0.744403  0  2.053581  0  0  -0.679431  0  2.291152  0  0  -0.717284  0  2.276269  0  0  -0.380679  -0.660369  0  2.298885  0
O  O85  1  0.33436821  0.57845395  0.32398592  1  0  -0.744514  0  2.05372  0  0  -0.679508  0  2.29122  0  0  -0.717382  0  2.276334  0  0  -0.380763  -0.660447  0  2.298952  0
O  O86  1  0.16564575  0.07846464  0.82399200  1  0  -0.744466  0  2.053718  0  0  -0.679399  0  2.291274  0  0  -0.717267  0  2.276378  0  0  -0.380725  -0.660342  0  2.299004  0
O  O87  1  0.66566210  0.42153772  0.67600106  1  0  -0.74434  0  2.053756  0  0  -0.679372  0  2.291198  0  0  -0.717231  0  2.276305  0  0  -0.380711  -0.660312  0  2.298926  0
