# generated using pymatgen
data_CdH12C13(NCl)2
_symmetry_space_group_name_H-M   'P 1'
_cell_length_a   6.99148152
_cell_length_b   9.65654458
_cell_length_c   10.53145872
_cell_angle_alpha   98.29647507
_cell_angle_beta   105.75497065
_cell_angle_gamma   94.47437418
_symmetry_Int_Tables_number   1
_chemical_formula_structural   CdH12C13(NCl)2
_chemical_formula_sum   'Cd2 H24 C26 N4 Cl4'
_cell_volume   671.99663283
_cell_formula_units_Z   2
loop_
 _symmetry_equiv_pos_site_id
 _symmetry_equiv_pos_as_xyz
  1  'x, y, z'
loop_
 _atom_site_type_symbol
 _atom_site_label
 _atom_site_symmetry_multiplicity
 _atom_site_fract_x
 _atom_site_fract_y
 _atom_site_fract_z
 _atom_site_occupancy
 _atom_site_hle17_bader_spin_density
 _atom_site_hle17_ddec_charge
 _atom_site_hle17_ddec_spin_density
 _atom_site_hle17_ddec_sum_bond_order
 _atom_site_hle17_magmom
 _atom_site_hse06_10hf_bader_spin_density
 _atom_site_hse06_10hf_ddec_charge
 _atom_site_hse06_10hf_ddec_spin_density
 _atom_site_hse06_10hf_ddec_sum_bond_order
 _atom_site_hse06_10hf_magmom
 _atom_site_hse06_bader_spin_density
 _atom_site_hse06_ddec_charge
 _atom_site_hse06_ddec_spin_density
 _atom_site_hse06_ddec_sum_bond_order
 _atom_site_hse06_magmom
 _atom_site_pbe_bader_spin_density
 _atom_site_pbe_cm5_charge
 _atom_site_pbe_ddec_charge
 _atom_site_pbe_ddec_spin_density
 _atom_site_pbe_ddec_sum_bond_order
 _atom_site_pbe_magmom
Cd  Cd0  1  0.76916889  0.58389546  0.53249138  1  0  0.928992  0  2.014165  0  0  0.758134  0  2.483932  0  0  0.804235  0  2.443919  0  0  0.589074  0.726125  0  2.510947  0
Cd  Cd1  1  0.23082432  0.41610869  0.46750292  1  0  0.928985  0  2.014185  0  0  0.758139  0  2.483942  0  0  0.804235  0  2.443933  0  0  0.589059  0.726132  0  2.510953  0
H  H2  1  0.56894900  0.72135147  0.26706187  1  0  0.082235  0  0.9503  0  0  0.088548  0  1.01909  0  0  0.091025  0  1.016925  0  0  0.113113  0.08624  0  1.021394  0
H  H3  1  0.43105024  0.27866113  0.73294123  1  0  0.082249  0  0.950206  0  0  0.08852  0  1.019028  0  0  0.090991  0  1.016862  0  0  0.113097  0.086213  0  1.021332  0
H  H4  1  0.54344084  0.95843158  0.19661045  1  0  0.101914  0  0.958372  0  0  0.11557  0  1.013128  0  0  0.118309  0  1.013168  0  0  0.108421  0.113648  0  1.013149  0
H  H5  1  0.45654842  0.04158314  0.80339593  1  0  0.101979  0  0.958289  0  0  0.115677  0  1.012988  0  0  0.118419  0  1.01302  0  0  0.108476  0.113756  0  1.01301  0
H  H6  1  0.67396393  0.17754926  0.37440440  1  0  0.105451  0  0.942225  0  0  0.111263  0  1.011195  0  0  0.114316  0  1.008761  0  0  0.103489  0.108171  0  1.014448  0
H  H7  1  0.32603485  0.82246020  0.62560676  1  0  0.10545  0  0.94226  0  0  0.111261  0  1.011218  0  0  0.114312  0  1.008788  0  0  0.103526  0.108169  0  1.014466  0
H  H8  1  0.82528179  0.14724751  0.60942140  1  0  0.115969  0  0.977449  0  0  0.123337  0  1.042958  0  0  0.126724  0  1.041762  0  0  0.097845  0.121045  0  1.043857  0
H  H9  1  0.17472307  0.85275456  0.39058511  1  0  0.115849  0  0.977466  0  0  0.123294  0  1.042905  0  0  0.126692  0  1.04169  0  0  0.0978  0.120982  0  1.043828  0
H  H10  1  0.90924553  0.99251568  0.77665589  1  0  0.078534  0  0.937892  0  0  0.090874  0  1.001478  0  0  0.093099  0  0.999212  0  0  0.117638  0.088651  0  1.00359  0
H  H11  1  0.09075188  0.00747795  0.22334536  1  0  0.078508  0  0.937825  0  0  0.090823  0  1.001447  0  0  0.093049  0  0.999181  0  0  0.117617  0.088608  0  1.003551  0
H  H12  1  0.23138231  0.64660905  0.79025809  1  0  0.10204  0  0.983671  0  0  0.108331  0  1.054648  0  0  0.111394  0  1.052636  0  0  0.087784  0.105951  0  1.056654  0
H  H13  1  0.76862156  0.35338773  0.20974185  1  0  0.102123  0  0.983558  0  0  0.108382  0  1.054562  0  0  0.111443  0  1.052548  0  0  0.087801  0.106003  0  1.056569  0
H  H14  1  0.38117399  0.57781785  0.01110915  1  0  0.087319  0  0.94986  0  0  0.100472  0  1.00646  0  0  0.103197  0  1.005162  0  0  0.09796  0.098315  0  1.007622  0
H  H15  1  0.61882990  0.42217893  0.98889175  1  0  0.087206  0  0.949878  0  0  0.100408  0  1.006434  0  0  0.103132  0  1.005136  0  0  0.09794  0.098264  0  1.007583  0
H  H16  1  0.21690283  0.62747644  0.19368813  1  0  0.089732  0  0.988818  0  0  0.094593  0  1.061969  0  0  0.097395  0  1.060635  0  0  0.084004  0.092446  0  1.063314  0
H  H17  1  0.78309842  0.37252244  0.80630974  1  0  0.089668  0  0.988903  0  0  0.094554  0  1.062047  0  0  0.097356  0  1.06071  0  0  0.084017  0.09241  0  1.063379  0
H  H18  1  0.92086204  0.75484836  0.15778243  1  0  0.085019  0  0.974054  0  0  0.094399  0  1.040878  0  0  0.097017  0  1.03995  0  0  0.088636  0.093084  0  1.040623  0
H  H19  1  0.07913994  0.24514630  0.84221406  1  0  0.085054  0  0.974041  0  0  0.094423  0  1.040866  0  0  0.097043  0  1.039937  0  0  0.088647  0.093106  0  1.040612  0
H  H20  1  0.65122470  0.83710345  0.01439426  1  0  0.10376  0  0.956148  0  0  0.127138  0  1.015726  0  0  0.128286  0  1.015738  0  0  0.088134  0.126426  0  1.015357  0
H  H21  1  0.34877377  0.16288805  0.98560310  1  0  0.103704  0  0.956152  0  0  0.127095  0  1.015728  0  0  0.128242  0  1.01574  0  0  0.08812  0.126383  0  1.015359  0
H  H22  1  0.62243891  0.82366524  0.84067443  1  0  0.109618  0  0.973777  0  0  0.129537  0  1.038684  0  0  0.130542  0  1.039011  0  0  0.084544  0.128589  0  1.038628  0
H  H23  1  0.37755825  0.17632731  0.15932189  1  0  0.109548  0  0.973836  0  0  0.1295  0  1.038723  0  0  0.130504  0  1.03905  0  0  0.084538  0.128552  0  1.038666  0
H  H24  1  0.76493293  0.97489557  0.95454297  1  0  0.096509  0  0.967997  0  0  0.114718  0  1.03785  0  0  0.115138  0  1.039353  0  0  0.083525  0.114392  0  1.036709  0
H  H25  1  0.23506441  0.02509804  0.04545352  1  0  0.096571  0  0.968039  0  0  0.114767  0  1.037903  0  0  0.115188  0  1.039405  0  0  0.083547  0.11444  0  1.036762  0
C  C26  1  0.62468666  0.81881596  0.33921868  1  0  0.139366  0  3.703115  0  0  0.106834  0  3.958048  0  0  0.113708  0  3.975674  0  0  0.05228  0.102845  0  3.945685  0
C  C27  1  0.37531075  0.18119454  0.66078573  1  0  0.139387  0  3.70265  0  0  0.106937  0  3.957653  0  0  0.113815  0  3.975262  0  0  0.05232  0.102945  0  3.945301  0
C  C28  1  0.61118256  0.95134739  0.30118281  1  0  -0.117594  0  3.710654  0  0  -0.130222  0  3.960396  0  0  -0.13666  0  3.981482  0  0  -0.079408  -0.126658  0  3.945959  0
C  C29  1  0.38882281  0.04866627  0.69882150  1  0  -0.117647  0  3.710448  0  0  -0.130308  0  3.960157  0  0  -0.136746  0  3.98124  0  0  -0.079467  -0.126745  0  3.945723  0
C  C30  1  0.68262402  0.07177467  0.39899808  1  0  0.002838  0  3.695367  0  0  -0.016872  0  3.949666  0  0  -0.013914  0  3.968082  0  0  -0.066599  -0.018053  0  3.937807  0
C  C31  1  0.31737472  0.92823478  0.60100928  1  0  0.002869  0  3.695203  0  0  -0.016847  0  3.949554  0  0  -0.013888  0  3.967973  0  0  -0.06657  -0.018034  0  3.937715  0
C  C32  1  0.76602687  0.05516976  0.53121697  1  0  -0.129522  0  3.676745  0  0  -0.149579  0  3.922119  0  0  -0.15591  0  3.944112  0  0  -0.075308  -0.145576  0  3.907787  0
C  C33  1  0.23397834  0.94483441  0.46878797  1  0  -0.129388  0  3.676652  0  0  -0.149536  0  3.921982  0  0  -0.155865  0  3.943982  0  0  -0.075314  -0.145541  0  3.90765  0
C  C34  1  0.77734563  0.91917500  0.56104119  1  0  0.185383  0  3.80742  0  0  0.186485  0  4.047726  0  0  0.190548  0  4.069384  0  0  0.111475  0.183497  0  4.033258  0
C  C35  1  0.22265935  0.08082810  0.43895978  1  0  0.185155  0  3.807535  0  0  0.186363  0  4.047766  0  0  0.190385  0  4.06947  0  0  0.111449  0.183442  0  4.033205  0
C  C36  1  0.87368459  0.89848545  0.69814666  1  0  0.104894  0  3.647171  0  0  0.067707  0  3.89766  0  0  0.079037  0  3.908287  0  0  0.084683  0.060573  0  3.890109  0
C  C37  1  0.12632149  0.10151554  0.30185328  1  0  0.105033  0  3.647416  0  0  0.067816  0  3.897869  0  0  0.079155  0  3.908503  0  0  0.08467  0.060658  0  3.890301  0
C  C38  1  0.00243905  0.75054968  0.85349075  1  0  0.136886  0  3.786863  0  0  0.134425  0  4.030698  0  0  0.136435  0  4.056491  0  0  0.080174  0.133408  0  4.012704  0
C  C39  1  0.99755643  0.24944182  0.14650419  1  0  0.137019  0  3.786676  0  0  0.13452  0  4.030472  0  0  0.136527  0  4.056266  0  0  0.080152  0.133504  0  4.012478  0
C  C40  1  0.16935895  0.67555120  0.87339774  1  0  -0.131281  0  3.73801  0  0  -0.152032  0  3.989583  0  0  -0.154839  0  4.01114  0  0  -0.095463  -0.150267  0  3.974994  0
C  C41  1  0.83064343  0.32444557  0.12660099  1  0  -0.131411  0  3.737911  0  0  -0.152143  0  3.989521  0  0  -0.154946  0  4.011077  0  0  -0.09547  -0.15038  0  3.974938  0
C  C42  1  0.25191222  0.63637879  0.99687157  1  0  -0.067487  0  3.789629  0  0  -0.080835  0  4.040157  0  0  -0.083703  0  4.063156  0  0  -0.095842  -0.078289  0  4.024154  0
C  C43  1  0.74809106  0.36361482  0.00312501  1  0  -0.067342  0  3.789601  0  0  -0.080729  0  4.040134  0  0  -0.083597  0  4.063134  0  0  -0.095788  -0.078195  0  4.024129  0
C  C44  1  0.16242019  0.66570166  0.09953651  1  0  -0.062354  0  3.78445  0  0  -0.079255  0  4.038953  0  0  -0.081555  0  4.063205  0  0  -0.09587  -0.077962  0  4.02324  0
C  C45  1  0.83758050  0.33429406  0.90046084  1  0  -0.062192  0  3.784501  0  0  -0.079117  0  4.038989  0  0  -0.081417  0  4.063242  0  0  -0.095891  -0.077823  0  4.023284  0
C  C46  1  0.99487455  0.73838007  0.07881584  1  0  -0.141269  0  3.772847  0  0  -0.157179  0  4.016288  0  0  -0.161268  0  4.039677  0  0  -0.104157  -0.155283  0  4.001393  0
C  C47  1  0.00513097  0.26161775  0.92118263  1  0  -0.141425  0  3.77284  0  0  -0.15734  0  4.016274  0  0  -0.161433  0  4.03966  0  0  -0.104184  -0.155442  0  4.00138  0
C  C48  1  0.91266495  0.78486308  0.95774854  1  0  0.068998  0  3.719588  0  0  0.094108  0  3.952227  0  0  0.093082  0  3.977875  0  0  -0.010603  0.095158  0  3.934768  0
C  C49  1  0.08733371  0.21512948  0.04224899  1  0  0.068938  0  3.719569  0  0  0.094101  0  3.952135  0  0  0.093076  0  3.977782  0  0  -0.010611  0.09515  0  3.934677  0
C  C50  1  0.72852213  0.85958269  0.94047665  1  0  -0.332952  0  3.741366  0  0  -0.414899  0  3.976174  0  0  -0.416513  0  3.985955  0  0  -0.247815  -0.4134  0  3.969102  0
C  C51  1  0.27147318  0.14040775  0.05951907  1  0  -0.332806  0  3.741431  0  0  -0.414818  0  3.976229  0  0  -0.416431  0  3.986009  0  0  -0.247769  -0.413318  0  3.969157  0
N  N52  1  0.70507363  0.80343855  0.46605774  1  0  -0.336549  0  3.259043  0  0  -0.263602  0  3.508562  0  0  -0.281824  0  3.52894  0  0  -0.32112  -0.250651  0  3.494157  0
N  N53  1  0.29492411  0.19656562  0.53394305  1  0  -0.336482  0  3.258768  0  0  -0.263657  0  3.508339  0  0  -0.281849  0  3.528705  0  0  -0.32116  -0.250727  0  3.493917  0
N  N54  1  0.91944600  0.77689482  0.72277945  1  0  -0.303906  0  3.257636  0  0  -0.234443  0  3.516533  0  0  -0.252502  0  3.535207  0  0  -0.30268  -0.222092  0  3.503167  0
N  N55  1  0.08054838  0.22309879  0.27721747  1  0  -0.304096  0  3.257781  0  0  -0.234558  0  3.516604  0  0  -0.252618  0  3.535277  0  0  -0.302652  -0.222208  0  3.503245  0
Cl  Cl56  1  0.49210887  0.44248979  0.32571436  1  0  -0.55294  0  0.987642  0  0  -0.485518  0  1.265631  0  0  -0.503713  0  1.245402  0  0  -0.294134  -0.471837  0  1.280414  0
Cl  Cl57  1  0.50789184  0.55750593  0.67428490  1  0  -0.552937  0  0.987635  0  0  -0.485524  0  1.265627  0  0  -0.503721  0  1.245404  0  0  -0.294117  -0.471837  0  1.280396  0
Cl  Cl58  1  0.97364229  0.39280480  0.61699907  1  0  -0.54957  0  1.076528  0  0  -0.482029  0  1.373191  0  0  -0.501077  0  1.353778  0  0  -0.283781  -0.468491  0  1.386431  0
Cl  Cl59  1  0.02636191  0.60720251  0.38299946  1  0  -0.5496  0  1.076579  0  0  -0.482014  0  1.373159  0  0  -0.501062  0  1.35374  0  0  -0.28378  -0.468474  0  1.386397  0
