# generated using pymatgen
data_HgH9C12Br2N2F
_symmetry_space_group_name_H-M   'P 1'
_cell_length_a   4.03603608
_cell_length_b   18.83355831
_cell_length_c   18.82580204
_cell_angle_alpha   105.16197367
_cell_angle_beta   90.79675922
_cell_angle_gamma   94.87589699
_symmetry_Int_Tables_number   1
_chemical_formula_structural   HgH9C12Br2N2F
_chemical_formula_sum   'Hg4 H36 C48 Br8 N8 F4'
_cell_volume   1375.22112504
_cell_formula_units_Z   4
loop_
 _symmetry_equiv_pos_site_id
 _symmetry_equiv_pos_as_xyz
  1  'x, y, z'
loop_
 _atom_site_type_symbol
 _atom_site_label
 _atom_site_symmetry_multiplicity
 _atom_site_fract_x
 _atom_site_fract_y
 _atom_site_fract_z
 _atom_site_occupancy
 _atom_site_hle17_bader_spin_density
 _atom_site_hle17_ddec_charge
 _atom_site_hle17_ddec_spin_density
 _atom_site_hle17_ddec_sum_bond_order
 _atom_site_hle17_magmom
 _atom_site_hse06_10hf_bader_spin_density
 _atom_site_hse06_10hf_ddec_charge
 _atom_site_hse06_10hf_ddec_spin_density
 _atom_site_hse06_10hf_ddec_sum_bond_order
 _atom_site_hse06_10hf_magmom
 _atom_site_hse06_bader_spin_density
 _atom_site_hse06_ddec_charge
 _atom_site_hse06_ddec_spin_density
 _atom_site_hse06_ddec_sum_bond_order
 _atom_site_hse06_magmom
 _atom_site_pbe_bader_spin_density
 _atom_site_pbe_cm5_charge
 _atom_site_pbe_ddec_charge
 _atom_site_pbe_ddec_spin_density
 _atom_site_pbe_ddec_sum_bond_order
 _atom_site_pbe_magmom
Hg  Hg0  1  0.18931180  0.42297914  0.55737063  1  0  0.6265  0  2.163158  0  0  0.490561  0  2.662807  0  0  0.538159  0  2.631764  0  0  0.408936  0.458152  0  2.684111  0
Hg  Hg1  1  0.81055914  0.57703089  0.44263057  1  0  0.626507  0  2.16329  0  0  0.490519  0  2.662959  0  0  0.538113  0  2.631929  0  0  0.408876  0.458107  0  2.684243  0
Hg  Hg2  1  0.16727671  0.96991740  0.60535042  1  0  0.64189  0  2.143786  0  0  0.505549  0  2.641281  0  0  0.555233  0  2.609135  0  0  0.409823  0.471727  0  2.663337  0
Hg  Hg3  1  0.83275192  0.03008518  0.39466759  1  0  0.641619  0  2.144243  0  0  0.505269  0  2.64179  0  0  0.554957  0  2.609624  0  0  0.409761  0.471448  0  2.663853  0
H  H4  1  0.33973434  0.26254732  0.57624639  1  0  0.073784  0  0.969282  0  0  0.076909  0  1.044756  0  0  0.08007  0  1.041208  0  0  0.094192  0.0746  0  1.047376  0
H  H5  1  0.66025424  0.73746553  0.42375334  1  0  0.073609  0  0.969368  0  0  0.076793  0  1.044791  0  0  0.079954  0  1.041239  0  0  0.094133  0.07448  0  1.047412  0
H  H6  1  0.29747814  0.18169055  0.66302668  1  0  0.107222  0  0.981489  0  0  0.113204  0  1.052012  0  0  0.116672  0  1.050597  0  0  0.089568  0.110745  0  1.05307  0
H  H7  1  0.70255571  0.81832400  0.33697472  1  0  0.107216  0  0.981541  0  0  0.113307  0  1.051982  0  0  0.116757  0  1.050644  0  0  0.08957  0.110848  0  1.053036  0
H  H8  1  0.80298425  0.35139519  0.81238288  1  0  0.116183  0  0.953171  0  0  0.11789  0  1.024972  0  0  0.123154  0  1.020742  0  0  0.106693  0.114123  0  1.028078  0
H  H9  1  0.19700589  0.64860338  0.18762175  1  0  0.116172  0  0.953217  0  0  0.117909  0  1.024957  0  0  0.123179  0  1.020723  0  0  0.10671  0.114144  0  1.028062  0
H  H10  1  0.86592739  0.42595507  0.71860151  1  0  0.069938  0  0.963066  0  0  0.076024  0  1.03626  0  0  0.078287  0  1.034669  0  0  0.10006  0.074375  0  1.037397  0
H  H11  1  0.13401278  0.57404234  0.28139996  1  0  0.069926  0  0.963056  0  0  0.075987  0  1.036286  0  0  0.078249  0  1.034699  0  0  0.100046  0.074339  0  1.037425  0
H  H12  1  0.17537768  0.16742748  0.78444043  1  0  0.061049  0  0.957153  0  0  0.068364  0  1.030755  0  0  0.071933  0  1.026496  0  0  0.096086  0.06571  0  1.034054  0
H  H13  1  0.82467211  0.83258381  0.21556446  1  0  0.061119  0  0.95694  0  0  0.068423  0  1.030583  0  0  0.071954  0  1.02636  0  0  0.096089  0.065796  0  1.033857  0
H  H14  1  0.57490654  0.27156013  0.97736329  1  0  0.104366  0  0.945269  0  0  0.113942  0  1.006359  0  0  0.116855  0  1.005032  0  0  0.105553  0.111842  0  1.007407  0
H  H15  1  0.42507137  0.72845044  0.02262944  1  0  0.104387  0  0.94519  0  0  0.113916  0  1.006397  0  0  0.116831  0  1.005082  0  0  0.105511  0.111816  0  1.007448  0
H  H16  1  0.50421752  0.20187073  0.07403712  1  0  0.120448  0  0.97535  0  0  0.122974  0  1.048947  0  0  0.126848  0  1.046431  0  0  0.103505  0.120164  0  1.050875  0
H  H17  1  0.49566481  0.79812978  0.92594737  1  0  0.120446  0  0.975554  0  0  0.123014  0  1.049081  0  0  0.12699  0  1.046257  0  0  0.103566  0.120209  0  1.050999  0
H  H18  1  0.92667380  0.01708440  0.92983260  1  0  0.125414  0  0.950951  0  0  0.130075  0  1.016378  0  0  0.135048  0  1.012268  0  0  0.10308  0.126849  0  1.018822  0
H  H19  1  0.07325927  0.98291954  0.07016146  1  0  0.125739  0  0.950293  0  0  0.129879  0  1.016275  0  0  0.134406  0  1.012746  0  0  0.103038  0.12666  0  1.018721  0
H  H20  1  0.00581302  0.08685117  0.83502264  1  0  0.098117  0  0.962321  0  0  0.107878  0  1.024609  0  0  0.110381  0  1.023332  0  0  0.097107  0.106036  0  1.025705  0
H  H21  1  0.99419298  0.91315561  0.16497509  1  0  0.09819  0  0.962303  0  0  0.107945  0  1.024581  0  0  0.110445  0  1.023287  0  0  0.097142  0.106103  0  1.025677  0
H  H22  1  0.50740437  0.94171017  0.75763436  1  0  0.076353  0  0.949131  0  0  0.08279  0  1.016803  0  0  0.08576  0  1.014095  0  0  0.102178  0.080621  0  1.018785  0
H  H23  1  0.49266345  0.05827926  0.24238793  1  0  0.076467  0  0.94898  0  0  0.08279  0  1.016746  0  0  0.085742  0  1.014091  0  0  0.102179  0.080611  0  1.018735  0
H  H24  1  0.59654729  0.84025026  0.81805232  1  0  0.114334  0  0.942705  0  0  0.120873  0  1.007412  0  0  0.125597  0  1.003866  0  0  0.109231  0.1176  0  1.00979  0
H  H25  1  0.40354187  0.15972360  0.18195283  1  0  0.114512  0  0.942586  0  0  0.121059  0  1.007333  0  0  0.125607  0  1.004234  0  0  0.109292  0.117778  0  1.00972  0
H  H26  1  0.92332804  0.69595692  0.65096304  1  0  0.107361  0  0.970632  0  0  0.113747  0  1.039944  0  0  0.117078  0  1.038379  0  0  0.09062  0.111322  0  1.041284  0
H  H27  1  0.07666086  0.30404500  0.34904614  1  0  0.107343  0  0.970654  0  0  0.113746  0  1.039985  0  0  0.117075  0  1.038423  0  0  0.090596  0.111316  0  1.041337  0
H  H28  1  0.87404961  0.80178607  0.59600763  1  0  0.073919  0  0.963642  0  0  0.076738  0  1.041368  0  0  0.079615  0  1.038166  0  0  0.09454  0.074611  0  1.043759  0
H  H29  1  0.12594724  0.19822364  0.40400886  1  0  0.073777  0  0.96387  0  0  0.076637  0  1.04153  0  0  0.079515  0  1.038323  0  0  0.094459  0.074514  0  1.043919  0
H  H30  1  0.14060081  0.64625450  0.74317889  1  0  0.059202  0  0.962334  0  0  0.068578  0  1.033425  0  0  0.071846  0  1.029612  0  0  0.09836  0.066162  0  1.036352  0
H  H31  1  0.85943639  0.35373071  0.25680661  1  0  0.059017  0  0.962464  0  0  0.0684  0  1.033631  0  0  0.071672  0  1.029811  0  0  0.098274  0.06599  0  1.036555  0
H  H32  1  0.87855055  0.70339182  0.93476134  1  0  0.101967  0  0.962105  0  0  0.111677  0  1.025324  0  0  0.11411  0  1.02498  0  0  0.10442  0.109965  0  1.025618  0
H  H33  1  0.12146274  0.29660228  0.06523482  1  0  0.102004  0  0.962152  0  0  0.111791  0  1.025294  0  0  0.114203  0  1.02496  0  0  0.104494  0.110084  0  1.02557  0
H  H34  1  0.96132668  0.59975547  0.99264222  1  0  0.131973  0  0.940227  0  0  0.137412  0  1.004207  0  0  0.141356  0  1.00148  0  0  0.108426  0.134572  0  1.006257  0
H  H35  1  0.03872923  0.40023975  0.00735226  1  0  0.131835  0  0.940477  0  0  0.137376  0  1.004321  0  0  0.141323  0  1.001589  0  0  0.108383  0.134535  0  1.00637  0
H  H36  1  0.39762592  0.44836733  0.81194731  1  0  0.110384  0  0.969895  0  0  0.120855  0  1.031032  0  0  0.123116  0  1.031379  0  0  0.101936  0.119246  0  1.030864  0
H  H37  1  0.60239873  0.55162399  0.18804499  1  0  0.110305  0  0.969793  0  0  0.120722  0  1.031009  0  0  0.122999  0  1.031342  0  0  0.101885  0.119111  0  1.030842  0
H  H38  1  0.30933306  0.55042610  0.75458444  1  0  0.095046  0  0.978294  0  0  0.101749  0  1.048767  0  0  0.104274  0  1.047219  0  0  0.091125  0.099892  0  1.050013  0
H  H39  1  0.69066788  0.44956797  0.24540952  1  0  0.095064  0  0.978275  0  0  0.101784  0  1.048713  0  0  0.104306  0  1.047173  0  0  0.091131  0.099925  0  1.049967  0
C  C40  1  0.22258576  0.28007121  0.62916555  1  0  0.129081  0  3.710832  0  0  0.101358  0  3.958765  0  0  0.108414  0  3.977619  0  0  0.038402  0.096796  0  3.945859  0
C  C41  1  0.77739133  0.71993779  0.37083528  1  0  0.12936  0  3.710613  0  0  0.101597  0  3.958513  0  0  0.108662  0  3.977364  0  0  0.038553  0.097034  0  3.945607  0
C  C42  1  0.19883673  0.23555071  0.67759956  1  0  -0.141518  0  3.682537  0  0  -0.158147  0  3.922367  0  0  -0.165727  0  3.944437  0  0  -0.081022  -0.153164  0  3.907469  0
C  C43  1  0.80121125  0.76446223  0.32240520  1  0  -0.141415  0  3.6824  0  0  -0.158165  0  3.922312  0  0  -0.165765  0  3.944368  0  0  -0.080993  -0.15318  0  3.907414  0
C  C44  1  0.04809644  0.26087577  0.74512389  1  0  0.097053  0  3.767769  0  0  0.113153  0  3.998361  0  0  0.116024  0  4.019807  0  0  0.009508  0.111388  0  3.983729  0
C  C45  1  0.95193405  0.73913052  0.25487806  1  0  0.096908  0  3.767726  0  0  0.112864  0  3.998578  0  0  0.115743  0  4.020001  0  0  0.009422  0.111094  0  3.983955  0
C  C46  1  0.92284837  0.33050219  0.76049248  1  0  -0.143919  0  3.692107  0  0  -0.162556  0  3.939361  0  0  -0.168759  0  3.958303  0  0  -0.078681  -0.15858  0  3.926779  0
C  C47  1  0.07717033  0.66950577  0.23951250  1  0  -0.143949  0  3.692346  0  0  -0.162517  0  3.939581  0  0  -0.168727  0  3.958529  0  0  -0.078774  -0.158541  0  3.927001  0
C  C48  1  0.95819229  0.37150570  0.70920402  1  0  0.107549  0  3.737826  0  0  0.079974  0  3.989841  0  0  0.086276  0  4.009502  0  0  0.032569  0.075877  0  3.976469  0
C  C49  1  0.04177041  0.62849832  0.29079603  1  0  0.107489  0  3.738129  0  0  0.079898  0  3.990109  0  0  0.086202  0  4.009779  0  0  0.03253  0.075796  0  3.976743  0
C  C50  1  0.02444407  0.21491782  0.79690841  1  0  0.123864  0  3.682976  0  0  0.089417  0  3.946063  0  0  0.097433  0  3.955807  0  0  0.068456  0.084046  0  3.939484  0
C  C51  1  0.97561842  0.78508795  0.20309354  1  0  0.123781  0  3.683115  0  0  0.089371  0  3.946253  0  0  0.097418  0  3.956002  0  0  0.068503  0.083982  0  3.939665  0
C  C52  1  0.80274161  0.18545755  0.90108177  1  0  0.183456  0  3.83821  0  0  0.185778  0  4.087362  0  0  0.187235  0  4.113367  0  0  0.081454  0.18486  0  4.069634  0
C  C53  1  0.19726010  0.81455088  0.09891583  1  0  0.183314  0  3.838326  0  0  0.185685  0  4.087435  0  0  0.187139  0  4.113478  0  0  0.08132  0.18477  0  4.069703  0
C  C54  1  0.65487086  0.21611811  0.96803748  1  0  -0.100577  0  3.712694  0  0  -0.117726  0  3.959586  0  0  -0.120135  0  3.981367  0  0  -0.080762  -0.116049  0  3.944772  0
C  C55  1  0.34511806  0.78388919  0.03195766  1  0  -0.10051  0  3.712153  0  0  -0.117856  0  3.959202  0  0  -0.120259  0  3.980974  0  0  -0.080791  -0.116179  0  3.944387  0
C  C56  1  0.61329160  0.17750536  0.02152910  1  0  -0.190741  0  3.77491  0  0  -0.214312  0  4.031684  0  0  -0.219931  0  4.05302  0  0  -0.104809  -0.210344  0  4.017337  0
C  C57  1  0.38665235  0.82250076  0.97846077  1  0  -0.190829  0  3.775562  0  0  -0.214269  0  4.031786  0  0  -0.219443  0  4.052021  0  0  -0.104809  -0.210297  0  4.017439  0
C  C58  1  0.71538310  0.10671284  0.00588599  1  0  0.31289  0  3.773242  0  0  0.298433  0  4.056387  0  0  0.308308  0  4.068577  0  0  0.095302  0.291461  0  4.048113  0
C  C59  1  0.28451946  0.89328881  0.99410100  1  0  0.311763  0  3.77521  0  0  0.298363  0  4.056736  0  0  0.309213  0  4.067668  0  0  0.095358  0.29139  0  4.048466  0
C  C60  1  0.85391087  0.07305638  0.93954540  1  0  -0.17466  0  3.769129  0  0  -0.202585  0  4.031793  0  0  -0.207166  0  4.051135  0  0  -0.101868  -0.199081  0  4.018015  0
C  C61  1  0.14604812  0.92695033  0.06044787  1  0  -0.174416  0  3.768733  0  0  -0.202255  0  4.031535  0  0  -0.206743  0  4.050888  0  0  -0.101793  -0.198763  0  4.017763  0
C  C62  1  0.89803332  0.11279890  0.88713123  1  0  -0.112629  0  3.721119  0  0  -0.127325  0  3.963667  0  0  -0.130719  0  3.988422  0  0  -0.08529  -0.124888  0  3.946772  0
C  C63  1  0.10199298  0.88720899  0.11286527  1  0  -0.112571  0  3.721218  0  0  -0.127405  0  3.963759  0  0  -0.130809  0  3.988508  0  0  -0.085251  -0.124968  0  3.946862  0
C  C64  1  0.38301289  0.88616017  0.73631368  1  0  0.115839  0  3.720256  0  0  0.087281  0  3.972964  0  0  0.093558  0  3.992038  0  0  0.03601  0.083228  0  3.959883  0
C  C65  1  0.61704716  0.11383414  0.26370077  1  0  0.115191  0  3.720154  0  0  0.086779  0  3.972957  0  0  0.092979  0  3.992201  0  0  0.035734  0.082736  0  3.959867  0
C  C66  1  0.43084946  0.83002781  0.76963294  1  0  -0.131072  0  3.685416  0  0  -0.153742  0  3.935472  0  0  -0.158704  0  3.953717  0  0  -0.076259  -0.150472  0  3.923014  0
C  C67  1  0.56922975  0.16995815  0.23037151  1  0  -0.130729  0  3.685456  0  0  -0.153802  0  3.93594  0  0  -0.158983  0  3.954724  0  0  -0.076279  -0.150525  0  3.923472  0
C  C68  1  0.26756242  0.75936284  0.73901652  1  0  0.088443  0  3.774415  0  0  0.105333  0  4.007597  0  0  0.107604  0  4.028803  0  0  0.008614  0.103959  0  3.993134  0
C  C69  1  0.73244068  0.24062469  0.26098431  1  0  0.088213  0  3.774713  0  0  0.105292  0  4.007824  0  0  0.107559  0  4.028995  0  0  0.008602  0.103915  0  3.993358  0
C  C70  1  0.05862397  0.74942425  0.67640347  1  0  -0.135982  0  3.69116  0  0  -0.153212  0  3.933183  0  0  -0.159915  0  3.954399  0  0  -0.08324  -0.148845  0  3.918976  0
C  C71  1  0.94141444  0.25057104  0.32359945  1  0  -0.135822  0  3.691023  0  0  -0.153071  0  3.932913  0  0  -0.159778  0  3.954092  0  0  -0.083195  -0.148704  0  3.918708  0
C  C72  1  0.02947633  0.80824978  0.64561862  1  0  0.126799  0  3.71426  0  0  0.098057  0  3.965541  0  0  0.104883  0  3.984858  0  0  0.035681  0.093636  0  3.95238  0
C  C73  1  0.97053767  0.19175333  0.35439841  1  0  0.126584  0  3.714413  0  0  0.097916  0  3.965689  0  0  0.104753  0  3.984947  0  0  0.035677  0.093496  0  3.952527  0
C  C74  1  0.31100065  0.69572035  0.76783315  1  0  0.130288  0  3.664398  0  0  0.093326  0  3.925988  0  0  0.101915  0  3.936126  0  0  0.074771  0.087593  0  3.91904  0
C  C75  1  0.68901629  0.30426439  0.23216331  1  0  0.130498  0  3.664848  0  0  0.093439  0  3.926444  0  0  0.102027  0  3.936539  0  0  0.074914  0.087708  0  3.91949  0
C  C76  1  0.57949698  0.63508897  0.84279532  1  0  0.180533  0  3.831662  0  0  0.182011  0  4.079858  0  0  0.183225  0  4.105986  0  0  0.080278  0.181219  0  4.062062  0
C  C77  1  0.42050367  0.36490458  0.15720224  1  0  0.180404  0  3.831594  0  0  0.181935  0  4.079746  0  0  0.183146  0  4.105863  0  0  0.080142  0.18115  0  4.061938  0
C  C78  1  0.76929083  0.64746676  0.90888402  1  0  -0.100127  0  3.701774  0  0  -0.11672  0  3.949691  0  0  -0.119003  0  3.971559  0  0  -0.079315  -0.115103  0  3.934804  0
C  C79  1  0.23071502  0.35252735  0.09111317  1  0  -0.100189  0  3.701887  0  0  -0.11688  0  3.949868  0  0  -0.119142  0  3.971721  0  0  -0.079403  -0.115261  0  3.934979  0
C  C80  1  0.81754838  0.59037041  0.94118805  1  0  -0.176395  0  3.755376  0  0  -0.20572  0  4.020401  0  0  -0.210024  0  4.039531  0  0  -0.099275  -0.202706  0  4.007493  0
C  C81  1  0.18245137  0.40962096  0.05881055  1  0  -0.17624  0  3.75551  0  0  -0.205647  0  4.020522  0  0  -0.209951  0  4.039647  0  0  -0.099262  -0.20263  0  4.007612  0
C  C82  1  0.67953155  0.51990887  0.90482814  1  0  0.316273  0  3.775871  0  0  0.299334  0  4.063434  0  0  0.309673  0  4.074816  0  0  0.097205  0.291994  0  4.05586  0
C  C83  1  0.32047796  0.48008191  0.09516663  1  0  0.315995  0  3.7761  0  0  0.29912  0  4.063609  0  0  0.309455  0  4.074996  0  0  0.097177  0.291781  0  4.056035  0
C  C84  1  0.49904764  0.50476744  0.83820049  1  0  -0.186523  0  3.787333  0  0  -0.207814  0  4.037217  0  0  -0.214078  0  4.060433  0  0  -0.104592  -0.203432  0  4.021453  0
C  C85  1  0.50096841  0.49522114  0.16179428  1  0  -0.186299  0  3.786751  0  0  -0.207598  0  4.036717  0  0  -0.213878  0  4.059926  0  0  -0.104546  -0.203214  0  4.020957  0
C  C86  1  0.44933145  0.56240328  0.80696073  1  0  -0.117551  0  3.731644  0  0  -0.131166  0  3.974424  0  0  -0.13474  0  3.999692  0  0  -0.088722  -0.128609  0  3.957225  0
C  C87  1  0.55067712  0.43758533  0.19303667  1  0  -0.117452  0  3.731442  0  0  -0.131081  0  3.974174  0  0  -0.134652  0  3.999435  0  0  -0.088618  -0.128531  0  3.956984  0
Br  Br88  1  0.55915097  0.33861123  0.47217353  1  0  -0.361003  0  1.231263  0  0  -0.302086  0  1.568056  0  0  -0.323713  0  1.550702  0  0  -0.181566  -0.287337  0  1.580379  0
Br  Br89  1  0.44074843  0.66140758  0.52782203  1  0  -0.36102  0  1.231232  0  0  -0.302094  0  1.568031  0  0  -0.323721  0  1.550681  0  0  -0.181587  -0.287325  0  1.580293  0
Br  Br90  1  0.84326148  0.52692187  0.62081622  1  0  -0.386849  0  1.190303  0  0  -0.331263  0  1.531977  0  0  -0.351353  0  1.510875  0  0  -0.198211  -0.317445  0  1.546946  0
Br  Br91  1  0.15665066  0.47308601  0.37918725  1  0  -0.386791  0  1.190378  0  0  -0.331156  0  1.531992  0  0  -0.351256  0  1.510917  0  0  -0.198151  -0.317328  0  1.54695  0
Br  Br92  1  0.72640823  0.90380942  0.50614349  1  0  -0.369767  0  1.182596  0  0  -0.309827  0  1.51217  0  0  -0.332643  0  1.4925  0  0  -0.195142  -0.294205  0  1.526154  0
Br  Br93  1  0.27363496  0.09618596  0.49386850  1  0  -0.369656  0  1.182763  0  0  -0.309723  0  1.512376  0  0  -0.332559  0  1.492728  0  0  -0.195077  -0.2941  0  1.526367  0
Br  Br94  1  0.60417376  0.06215817  0.68864100  1  0  -0.391596  0  1.166953  0  0  -0.338017  0  1.498143  0  0  -0.358683  0  1.47794  0  0  -0.191811  -0.323888  0  1.512451  0
Br  Br95  1  0.39594872  0.93784871  0.31135829  1  0  -0.391598  0  1.167242  0  0  -0.337941  0  1.498385  0  0  -0.358609  0  1.478204  0  0  -0.1918  -0.323813  0  1.512702  0
N  N96  1  0.10788554  0.34705241  0.64502562  1  0  -0.298972  0  3.272029  0  0  -0.223024  0  3.532906  0  0  -0.244133  0  3.556429  0  0  -0.317652  -0.208602  0  3.516533  0
N  N97  1  0.89207779  0.65295329  0.35497698  1  0  -0.299086  0  3.27212  0  0  -0.223074  0  3.532958  0  0  -0.244171  0  3.556446  0  0  -0.317669  -0.208654  0  3.516585  0
N  N98  1  0.83711186  0.23055766  0.85260418  1  0  -0.324089  0  3.088011  0  0  -0.290844  0  3.360768  0  0  -0.300672  0  3.374262  0  0  -0.307746  -0.28407  0  3.351447  0
N  N99  1  0.16293130  0.76944916  0.14739477  1  0  -0.323917  0  3.088422  0  0  -0.290678  0  3.361112  0  0  -0.300504  0  3.374594  0  0  -0.307693  -0.283909  0  3.351802  0
N  N100  1  0.18896735  0.87529817  0.67486329  1  0  -0.301449  0  3.262294  0  0  -0.226494  0  3.524567  0  0  -0.247979  0  3.548939  0  0  -0.315738  -0.211775  0  3.507565  0
N  N101  1  0.81108723  0.12470111  0.32515346  1  0  -0.300839  0  3.262143  0  0  -0.225904  0  3.524324  0  0  -0.247388  0  3.548673  0  0  -0.31549  -0.21118  0  3.507296  0
N  N102  1  0.53686426  0.69770890  0.81751280  1  0  -0.331377  0  3.100261  0  0  -0.291705  0  3.372776  0  0  -0.302754  0  3.387788  0  0  -0.304404  -0.284043  0  3.362393  0
N  N103  1  0.46314062  0.30228304  0.18248809  1  0  -0.331429  0  3.100317  0  0  -0.291652  0  3.372756  0  0  -0.302701  0  3.38776  0  0  -0.304357  -0.283992  0  3.362367  0
F  F104  1  0.67578968  0.06803094  0.05813419  1  0  -0.229147  0  1.196891  0  0  -0.166186  0  1.348812  0  0  -0.176863  0  1.339979  0  0  -0.099854  -0.158227  0  1.354591  0
F  F105  1  0.32397835  0.93196226  0.94184268  1  0  -0.228543  0  1.197296  0  0  -0.166151  0  1.348925  0  0  -0.180746  0  1.344675  0  0  -0.09992  -0.15819  0  1.354706  0
F  F106  1  0.72551591  0.46227499  0.93443956  1  0  -0.221573  0  1.19447  0  0  -0.160732  0  1.348266  0  0  -0.170563  0  1.338306  0  0  -0.097699  -0.153488  0  1.355008  0
F  F107  1  0.27454017  0.53771410  0.06554753  1  0  -0.221462  0  1.194843  0  0  -0.160644  0  1.348611  0  0  -0.170473  0  1.338654  0  0  -0.097644  -0.1534  0  1.355352  0
