# generated using pymatgen
data_Zr6H32C57(NO21)2
_symmetry_space_group_name_H-M   'P 1'
_cell_length_a   14.76042014
_cell_length_b   14.80005904
_cell_length_c   14.80478469
_cell_angle_alpha   59.94002714
_cell_angle_beta   59.79897041
_cell_angle_gamma   59.87811011
_symmetry_Int_Tables_number   1
_chemical_formula_structural   Zr6H32C57(NO21)2
_chemical_formula_sum   'Zr6 H32 C57 N2 O42'
_cell_volume   2280.28109040
_cell_formula_units_Z   1
loop_
 _symmetry_equiv_pos_site_id
 _symmetry_equiv_pos_as_xyz
  1  'x, y, z'
loop_
 _atom_site_type_symbol
 _atom_site_label
 _atom_site_symmetry_multiplicity
 _atom_site_fract_x
 _atom_site_fract_y
 _atom_site_fract_z
 _atom_site_occupancy
 _atom_site_pbe_bader_charge
 _atom_site_pbe_bader_spin_density
 _atom_site_pbe_cm5_charge
 _atom_site_pbe_ddec_charge
 _atom_site_pbe_ddec_spin_density
 _atom_site_pbe_ddec_sum_bond_order
 _atom_site_pbe_magmom
Zr  Zr0  1  0.87477195  0.88397490  0.62280954  1  2.636567  0  1.630001  2.373001  0  2.752406  0
Zr  Zr1  1  0.11748828  0.12027810  0.38220445  1  2.637551  0  1.631164  2.377706  0  2.745683  0
Zr  Zr2  1  0.11431233  0.88298740  0.62249105  1  2.632852  0  1.627379  2.375517  0  2.747703  0
Zr  Zr3  1  0.87689237  0.12233620  0.38143432  1  2.63554  0  1.629776  2.374588  0  2.748407  0
Zr  Zr4  1  0.11551391  0.88202984  0.38286476  1  2.638529  0  1.632273  2.377194  0  2.746184  0
Zr  Zr5  1  0.87510127  0.12444126  0.62007644  1  2.63748  0  1.631404  2.377864  0  2.743612  0
H  H6  1  0.09013907  0.72029473  0.59680612  1  0.617315  0  0.328029  0.416574  0  0.870961  0
H  H7  1  0.09321790  0.09301585  0.21991481  1  0.618746  0  0.328703  0.41642  0  0.870435  0
H  H8  1  0.08971986  0.09678148  0.59617797  1  0.589975  0  0.325882  0.414203  0  0.87083  0
H  H9  1  0.71222985  0.09949482  0.59502486  1  0.624998  0  0.331763  0.423662  0  0.856175  0
H  H10  1  0.82628928  0.60750200  0.62576209  1  0.11303  0  0.119449  0.128175  0  0.972595  0
H  H11  1  0.14453607  0.58587076  0.36659163  1  0.128529  0  0.113477  0.129135  0  1.013952  0
H  H12  1  0.83253290  0.43710546  0.62127572  1  0.088917  0  0.118466  0.130437  0  0.980557  0
H  H13  1  0.58636072  0.85239986  0.92215316  1  0.099659  0  0.115378  0.123602  0  0.980922  0
H  H14  1  0.59125798  0.13887123  0.92540859  1  0.16638  0  0.1151  0.137003  0  1.016063  0
H  H15  1  0.41837214  0.85090835  0.09428717  1  0.147484  0  0.113133  0.12997  0  1.007985  0
H  H16  1  0.13230589  0.84854116  0.09247013  1  0.103204  0  0.118617  0.129982  0  0.974403  0
H  H17  1  0.84333583  0.14135029  0.09888359  1  0.139033  0  0.119592  0.131297  0  0.979032  0
H  H18  1  0.12782507  0.85490191  0.92222949  1  0.106982  0  0.111579  0.122873  0  1.006896  0
H  H19  1  0.59739810  0.43534436  0.62777465  1  0.102843  0  0.118032  0.127023  0  0.976528  0
H  H20  1  0.59082941  0.42556508  0.34587625  1  0.114591  0  0.117285  0.130375  0  0.979698  0
H  H21  1  0.42788093  0.60528691  0.62669766  1  0.155998  0  0.115311  0.132819  0  1.006258  0
H  H22  1  0.99878570  0.57149864  0.73268637  1  0.0705  0  0.092568  0.093673  0  1.056732  0
H  H23  1  0.01730536  0.40120540  0.72464634  1  0.041528  0  0.085194  0.079965  0  1.045635  0
H  H24  1  0.00639247  0.23196138  0.06410853  1  0.061285  0  0.092706  0.094849  0  1.050195  0
H  H25  1  0.02828945  0.22674856  0.89138070  1  0.009442  0  0.085828  0.073076  0  1.051867  0
H  H26  1  0.58976377  0.13544437  0.34634281  1  0.102637  0  0.117328  0.126734  0  0.975515  0
H  H27  1  0.59075995  0.84957984  0.64131732  1  0.094559  0  0.115039  0.127423  0  0.986883  0
H  H28  1  0.42268584  0.12951113  0.34785319  1  0.165855  0  0.115059  0.136315  0  1.021153  0
H  H29  1  0.23211304  0.28782465  0.46666289  1  0.597821  0  0.334679  0.361128  0  0.881274  0
H  H30  1  0.31790147  0.25981353  0.02677783  1  0.609231  0  0.337535  0.368958  0  0.871079  0
H  H31  1  0.87748855  0.27862726  0.87527852  1  0.596955  0  0.312013  0.344235  0  0.949328  0
H  H32  1  0.31792679  0.51458147  0.41905339  1  0.604568  0  0.333563  0.361234  0  0.883045  0
H  H33  1  0.30397402  0.90925604  0.75304478  1  0.618434  0  0.334123  0.363315  0  0.883832  0
H  H34  1  0.05845586  0.41214262  0.22818749  1  0.477076  0  0.297823  0.30379  0  0.985671  0
H  H35  1  0.09154281  0.52737257  0.14781469  1  0.45207  0  0.302503  0.298508  0  0.968098  0
H  H36  1  0.03967960  0.73968053  0.92331973  1  0.481409  0  0.301885  0.307178  0  0.981034  0
H  H37  1  0.00533109  0.68135156  0.06567988  1  0.44111  0  0.310428  0.299565  0  0.949808  0
C  C38  1  0.98738807  0.70472191  0.49949711  1  1.57658  0  0.23694  0.633572  0  4.109642  0
C  C39  1  0.30564026  0.99589495  0.20296466  1  1.528897  0  0.237703  0.639131  0  4.099035  0
C  C40  1  0.99428326  0.31161837  0.49601850  1  1.573399  0  0.23128  0.625498  0  4.12726  0
C  C41  1  0.69544237  0.00011139  0.80918635  1  1.526383  0  0.241044  0.64446  0  4.084604  0
C  C42  1  0.99524385  0.69883641  0.80704085  1  1.519312  0  0.236598  0.664177  0  4.077514  0
C  C43  1  0.69568548  0.99895026  0.49795955  1  1.568835  0  0.238222  0.640539  0  4.097366  0
C  C44  1  0.99894889  0.30478914  0.19567034  1  1.510438  0  0.236996  0.666605  0  4.066726  0
C  C45  1  0.30538606  0.99427187  0.49994700  1  1.550142  0  0.233792  0.630584  0  4.115109  0
C  C46  1  0.30542873  0.70385077  0.49607444  1  1.545247  0  0.236413  0.636001  0  4.106923  0
C  C47  1  0.98772052  0.00340004  0.81042393  1  1.576763  0  0.232484  0.626524  0  4.121598  0
C  C48  1  0.69950285  0.31454855  0.49219440  1  1.547381  0  0.24049  0.642977  0  4.093231  0
C  C49  1  0.99155030  0.99598029  0.20366094  1  1.58027  0  0.23755  0.634285  0  4.109551  0
C  C50  1  0.99357649  0.41356248  0.49509664  1  -0.070065  0  -0.013614  -0.069223  0  3.955651  0
C  C51  1  0.98587151  0.60568518  0.49702743  1  -0.048369  0  -0.008212  -0.022468  0  3.956253  0
C  C52  1  0.08272925  0.45506123  0.42281837  1  -0.004909  0  -0.01151  -0.074958  0  4.003167  0
C  C53  1  0.89711713  0.56472219  0.56890429  1  0.016387  0  -0.067591  -0.076012  0  3.933688  0
C  C54  1  0.07701782  0.55192721  0.42324592  1  -0.040726  0  -0.078141  -0.123588  0  3.941547  0
C  C55  1  0.90096380  0.46991964  0.56680683  1  0.006199  0  -0.070936  -0.07698  0  3.938468  0
C  C56  1  0.40799088  0.99665582  0.10319218  1  0.028337  0  -0.010854  -0.063923  0  3.947836  0
C  C57  1  0.59591818  0.99805698  0.91207918  1  0.018093  0  -0.009993  -0.028611  0  3.963281  0
C  C58  1  0.45703025  0.07809373  0.05672946  1  -0.085153  0  -0.006067  -0.066884  0  3.974666  0
C  C59  1  0.54867616  0.91566572  0.95984323  1  -0.054898  0  -0.074916  -0.08406  0  3.948166  0
C  C60  1  0.55071046  0.07838368  0.96089487  1  -0.023917  0  -0.073386  -0.114239  0  3.918508  0
C  C61  1  0.45518192  0.91524910  0.05481430  1  -0.008709  0  -0.073611  -0.077498  0  3.942743  0
C  C62  1  0.98340980  0.00163603  0.91461529  1  -0.046104  0  -0.011447  -0.060849  0  3.937556  0
C  C63  1  0.98811195  0.99528544  0.10473422  1  -0.038401  0  -0.007759  -0.023365  0  3.957538  0
C  C64  1  0.90169479  0.08330882  0.96446763  1  -0.053203  0  -0.003469  -0.058479  0  3.964692  0
C  C65  1  0.06826560  0.91344710  0.05620781  1  0.022982  0  -0.074174  -0.084344  0  3.950226  0
C  C66  1  0.90525144  0.07905481  0.05913290  1  -0.025986  0  -0.071805  -0.114193  0  3.930114  0
C  C67  1  0.06543904  0.91719182  0.96188573  1  -0.033249  0  -0.082224  -0.097064  0  3.96947  0
C  C68  1  0.41109855  0.60756099  0.48931511  1  -0.074677  0  -0.009273  -0.059927  0  3.939254  0
C  C69  1  0.60201979  0.41931229  0.48848762  1  -0.062095  0  -0.009444  -0.029145  0  3.965719  0
C  C70  1  0.45802720  0.55869412  0.40766105  1  -0.029917  0  -0.008268  -0.072654  0  3.989285  0
C  C71  1  0.55761019  0.47041170  0.56685545  1  0.059738  0  -0.070272  -0.078065  0  3.932784  0
C  C72  1  0.55343770  0.46479694  0.40792684  1  -0.00917  0  -0.074494  -0.115825  0  3.937122  0
C  C73  1  0.46290236  0.56413324  0.56687395  1  -0.003121  0  -0.069208  -0.070777  0  3.925279  0
C  C74  1  0.00489473  0.59384991  0.90170199  1  0.013202  0  -0.033451  -0.215377  0  3.938083  0
C  C75  1  0.00055705  0.49957691  0.90064011  1  -0.000385  0  -0.008574  0.067426  0  3.991408  0
C  C76  1  0.02181139  0.58765515  0.98974118  1  0.441738  0  0.110855  0.215719  0  4.037386  0
C  C77  1  0.00357826  0.49667133  0.80480689  1  -0.035366  0  -0.104257  -0.134501  0  3.992144  0
C  C78  1  0.01260551  0.40108863  0.80064288  1  -0.055887  0  -0.117829  -0.1111  0  4.096199  0
C  C79  1  0.00605553  0.40149646  0.09182039  1  0.007864  0  -0.034998  -0.219343  0  3.937102  0
C  C80  1  0.02440103  0.48843771  0.08620156  1  0.471219  0  0.109536  0.215298  0  4.031739  0
C  C81  1  0.00054352  0.40229547  0.99722195  1  -0.009944  0  -0.010556  0.063327  0  3.997718  0
C  C82  1  0.00682630  0.30638831  0.99138550  1  -0.009717  0  -0.104647  -0.134472  0  3.995511  0
C  C83  1  0.01566171  0.30461672  0.89459356  1  -0.093948  0  -0.120867  -0.128165  0  4.118535  0
C  C84  1  0.40930159  0.98996182  0.49849467  1  -0.060193  0  -0.013409  -0.068944  0  3.947942  0
C  C85  1  0.59781433  0.99461214  0.49574757  1  0.021376  0  -0.011227  -0.030539  0  3.970406  0
C  C86  1  0.45775244  0.90834396  0.58100223  1  -0.027521  0  -0.010599  -0.072814  0  3.991412  0
C  C87  1  0.55184416  0.07291086  0.41190874  1  -0.017673  0  -0.070951  -0.076569  0  3.930224  0
C  C88  1  0.55187101  0.91164601  0.57862118  1  -0.004072  0  -0.076998  -0.119269  0  3.945912  0
C  C89  1  0.45840387  0.07017450  0.41329608  1  -0.015864  0  -0.070547  -0.068577  0  3.92137  0
C  C90  1  0.18796082  0.40422434  0.34205166  1  1.564962  0  0.237573  0.583747  0  4.115466  0
C  C91  1  0.41983827  0.16223936  0.10828222  1  1.557186  0  0.237571  0.592716  0  4.117165  0
C  C92  1  0.80560465  0.17383217  0.92560654  1  1.552613  0  0.235626  0.585268  0  4.124004  0
C  C93  1  0.41318971  0.60255302  0.31637819  1  1.559857  0  0.236443  0.59005  0  4.119371  0
C  C94  1  0.41938986  0.81178818  0.67029142  1  1.54091  0  0.236097  0.591076  0  4.116573  0
N  N95  1  0.03892729  0.48840888  0.17092901  1  -1.219179  0  -0.600947  -0.606559  0  3.324923  0
N  N96  1  0.03718666  0.67076105  0.99157266  1  -1.241438  0  -0.58866  -0.592059  0  3.347662  0
O  O97  1  0.91147598  0.74264003  0.57773125  1  -1.182808  0  -0.348212  -0.610332  0  2.291788  0
O  O98  1  0.26427374  0.07340866  0.24245852  1  -1.174597  0  -0.352089  -0.619887  0  2.34185  0
O  O99  1  0.07313309  0.27109603  0.41988862  1  -1.19139  0  -0.344144  -0.617302  0  2.302338  0
O  O100  1  0.73473976  0.92360689  0.76907527  1  -1.181563  0  -0.359043  -0.622096  0  2.287567  0
O  O101  1  0.06698996  0.74541702  0.76950629  1  -1.182205  0  -0.365078  -0.631064  0  2.287651  0
O  O102  1  0.73356632  0.07728265  0.42219056  1  -1.182549  0  -0.352546  -0.61767  0  2.275346  0
O  O103  1  0.92209958  0.26547527  0.23417116  1  -1.175535  0  -0.348341  -0.607512  0  2.265142  0
O  O104  1  0.26223574  0.92048181  0.57979996  1  -1.18413  0  -0.353745  -0.623787  0  2.330242  0
O  O105  1  0.26216802  0.74020797  0.42283613  1  -1.169747  0  -0.350324  -0.617815  0  2.336242  0
O  O106  1  0.91639804  0.08418373  0.76556447  1  -1.184987  0  -0.341353  -0.599377  0  2.322086  0
O  O107  1  0.73646708  0.27324744  0.57127045  1  -1.181361  0  -0.353877  -0.617072  0  2.282251  0
O  O108  1  0.07018344  0.92024392  0.24089146  1  -1.177296  0  -0.348232  -0.608845  0  2.271892  0
O  O109  1  0.06444846  0.92475303  0.77301606  1  -1.190466  0  -0.350157  -0.621475  0  2.291179  0
O  O110  1  0.73721890  0.27235239  0.41789477  1  -1.177454  0  -0.353774  -0.615059  0  2.272425  0
O  O111  1  0.91627465  0.07440584  0.24173376  1  -1.183641  0  -0.351752  -0.614132  0  2.304641  0
O  O112  1  0.26432340  0.74102440  0.57471249  1  -1.176191  0  -0.34401  -0.598367  0  2.272464  0
O  O113  1  0.91821092  0.73782443  0.76802671  1  -1.172219  0  -0.346311  -0.606251  0  2.26421  0
O  O114  1  0.26501765  0.07237041  0.42459090  1  -1.175237  0  -0.344145  -0.595964  0  2.299625  0
O  O115  1  0.07147476  0.26604136  0.24148412  1  -1.185122  0  -0.361275  -0.631407  0  2.301958  0
O  O116  1  0.73298598  0.92469153  0.57700595  1  -1.191687  0  -0.355264  -0.616451  0  2.291573  0
O  O117  1  0.73373833  0.07846153  0.76717077  1  -1.173851  0  -0.351042  -0.608089  0  2.28057  0
O  O118  1  0.06678091  0.74161626  0.42454947  1  -1.183835  0  -0.352191  -0.612424  0  2.297077  0
O  O119  1  0.26445263  0.92094402  0.24064077  1  -1.171305  0  -0.347359  -0.602026  0  2.27876  0
O  O120  1  0.91759601  0.27221601  0.57295878  1  -1.186791  0  -0.344875  -0.60081  0  2.293055  0
O  O121  1  0.79284556  0.07224299  0.56825935  1  -1.25472  0  -0.693479  -1.07002  0  2.357793  0
O  O122  1  0.06326455  0.07036164  0.56893909  1  -1.220739  0  -0.695005  -1.071776  0  2.374192  0
O  O123  1  0.06478242  0.06734196  0.30021214  1  -1.249036  0  -0.696656  -1.070631  0  2.383907  0
O  O124  1  0.06252143  0.80057223  0.57000460  1  -1.248792  0  -0.695057  -1.071319  0  2.375317  0
O  O125  1  0.14513117  0.95168195  0.45315290  1  -1.198857  0  -0.790281  -1.14689  0  2.125571  0
O  O126  1  0.94571962  0.95316589  0.45316625  1  -1.201787  0  -0.790557  -1.14781  0  2.122381  0
O  O127  1  0.94740127  0.15129970  0.45123226  1  -1.200976  0  -0.790972  -1.149774  0  2.127665  0
O  O128  1  0.94501391  0.95489584  0.65060668  1  -1.195321  0  -0.79191  -1.151072  0  2.131398  0
O  O129  1  0.26532848  0.31397754  0.38609032  1  -1.091002  0  -0.324449  -0.460775  0  2.261903  0
O  O130  1  0.21051630  0.44685652  0.24224319  1  -1.102496  0  -0.257974  -0.420916  0  2.084504  0
O  O131  1  0.34487094  0.26258718  0.07326018  1  -1.099175  0  -0.329894  -0.464194  0  2.216058  0
O  O132  1  0.46096269  0.14636654  0.17045157  1  -1.097688  0  -0.263448  -0.432015  0  2.092956  0
O  O133  1  0.81176913  0.27788774  0.87438625  1  -1.100165  0  -0.3352  -0.466733  0  2.223441  0
O  O134  1  0.72345061  0.15842771  0.94476092  1  -1.101164  0  -0.25784  -0.427886  0  2.124916  0
O  O135  1  0.33691029  0.55980238  0.34075534  1  -1.099764  0  -0.333479  -0.473203  0  2.238944  0
O  O136  1  0.44821776  0.66271505  0.22359296  1  -1.120646  0  -0.265591  -0.434318  0  2.07946  0
O  O137  1  0.33652975  0.82979024  0.76534597  1  -1.114425  0  -0.335769  -0.474551  0  2.232566  0
O  O138  1  0.46627496  0.71905652  0.66449921  1  -1.110417  0  -0.267393  -0.437831  0  2.070775  0
