# generated using pymatgen
data_ZnH28C18(NO)4
_symmetry_space_group_name_H-M   'P 1'
_cell_length_a   8.32471188
_cell_length_b   9.86096001
_cell_length_c   15.11000000
_cell_angle_alpha   94.76690004
_cell_angle_beta   101.31241494
_cell_angle_gamma   113.33287408
_symmetry_Int_Tables_number   1
_chemical_formula_structural   ZnH28C18(NO)4
_chemical_formula_sum   'Zn2 H56 C36 N8 O8'
_cell_volume   1098.85540918
_cell_formula_units_Z   2
loop_
 _symmetry_equiv_pos_site_id
 _symmetry_equiv_pos_as_xyz
  1  'x, y, z'
loop_
 _atom_site_type_symbol
 _atom_site_label
 _atom_site_symmetry_multiplicity
 _atom_site_fract_x
 _atom_site_fract_y
 _atom_site_fract_z
 _atom_site_occupancy
 _atom_site_hle17_bader_spin_density
 _atom_site_hle17_ddec_charge
 _atom_site_hle17_ddec_spin_density
 _atom_site_hle17_ddec_sum_bond_order
 _atom_site_hle17_magmom
 _atom_site_hse06_10hf_bader_spin_density
 _atom_site_hse06_10hf_ddec_charge
 _atom_site_hse06_10hf_ddec_spin_density
 _atom_site_hse06_10hf_ddec_sum_bond_order
 _atom_site_hse06_10hf_magmom
 _atom_site_hse06_bader_spin_density
 _atom_site_hse06_ddec_charge
 _atom_site_hse06_ddec_spin_density
 _atom_site_hse06_ddec_sum_bond_order
 _atom_site_hse06_magmom
 _atom_site_pbe_bader_charge
 _atom_site_pbe_bader_spin_density
 _atom_site_pbe_cm5_charge
 _atom_site_pbe_ddec_charge
 _atom_site_pbe_ddec_spin_density
 _atom_site_pbe_ddec_sum_bond_order
 _atom_site_pbe_magmom
Zn  Zn0  1  0.99999904  0.49999517  0.50000013  1  0  0.901862  0  1.884798  0  0  0.729523  0  2.287293  0  0  0.770044  0  2.248663  0  1.210284  0  0.693433  0.701544  0  2.313469  0
Zn  Zn1  1  0.00000118  0.50000639  0.00000666  1  0  0.908339  0  1.908306  0  0  0.741802  0  2.310596  0  0  0.7806  0  2.273369  0  1.227346  0  0.696481  0.715262  0  2.335832  0
H  H2  1  0.69212963  0.39000822  0.64048654  1  0  0.089866  0  0.92617  0  0  0.109132  0  0.983075  0  0  0.110029  0  0.983651  0  0.065798  0  0.102728  0.108356  0  0.982823  0
H  H3  1  0.30785868  0.60998436  0.35951252  1  0  0.089849  0  0.926106  0  0  0.109057  0  0.983087  0  0  0.109951  0  0.983663  0  0.065903  0  0.102718  0.108281  0  0.982834  0
H  H4  1  0.51331972  0.43466211  0.59325241  1  0  0.074353  0  0.970152  0  0  0.093266  0  1.032788  0  0  0.093665  0  1.033204  0  0.038185  0  0.096222  0.092886  0  1.032629  0
H  H5  1  0.48667332  0.56533496  0.40674211  1  0  0.074304  0  0.970097  0  0  0.093225  0  1.032707  0  0  0.093627  0  1.033116  0  0.038218  0  0.096244  0.092845  0  1.03255  0
H  H6  1  0.47759040  0.23074731  0.48653857  1  0  0.044675  0  0.91268  0  0  0.062722  0  0.972063  0  0  0.063508  0  0.971521  0  0.026967  0  0.093704  0.061986  0  0.972649  0
H  H7  1  0.52240428  0.76923853  0.51346347  1  0  0.044693  0  0.912684  0  0  0.062719  0  0.972047  0  0  0.063508  0  0.971506  0  0.027355  0  0.093749  0.061994  0  0.972619  0
H  H8  1  0.57338648  0.38912372  0.43459189  1  0  0.062138  0  0.943625  0  0  0.080056  0  1.007509  0  0  0.08017  0  1.008329  0  0.05694  0  0.105842  0.079874  0  1.007013  0
H  H9  1  0.42660159  0.61085876  0.56540593  1  0  0.062095  0  0.943632  0  0  0.079976  0  1.007528  0  0  0.080093  0  1.00835  0  0.057264  0  0.105817  0.079792  0  1.007036  0
H  H10  1  0.78660257  0.25048473  0.53716795  1  0  0.257713  0  0.881916  0  0  0.258762  0  0.918051  0  0  0.262774  0  0.916714  0  0.422837  0  0.308075  0.255888  0  0.91915  0
H  H11  1  0.21339243  0.74950897  0.46283256  1  0  0.257724  0  0.881949  0  0  0.258682  0  0.918185  0  0  0.26269  0  0.916856  0  0.422901  0  0.308074  0.255808  0  0.919283  0
H  H12  1  0.67966765  0.26037926  0.34122667  1  0  0.076605  0  0.909208  0  0  0.095385  0  0.965648  0  0  0.096193  0  0.965471  0  0.062079  0  0.111862  0.094543  0  0.966086  0
H  H13  1  0.32032043  0.73960322  0.65877446  1  0  0.076527  0  0.909227  0  0  0.095357  0  0.965625  0  0  0.096167  0  0.965447  0  0.062109  0  0.111845  0.094516  0  0.966063  0
H  H14  1  0.63183252  0.09299732  0.38783706  1  0  0.057346  0  0.928429  0  0  0.074281  0  0.989554  0  0  0.074755  0  0.98932  0  0.048117  0  0.099872  0.073737  0  0.989914  0
H  H15  1  0.36816641  0.90698964  0.61216615  1  0  0.05718  0  0.92837  0  0  0.074161  0  0.989489  0  0  0.074635  0  0.989253  0  0.048283  0  0.09981  0.073623  0  0.989844  0
H  H16  1  0.96911652  0.17088627  0.44451344  1  0  0.07084  0  0.911338  0  0  0.089025  0  0.968476  0  0  0.089845  0  0.968149  0  0.06147  0  0.106841  0.088366  0  0.968541  0
H  H17  1  0.03088142  0.82911080  0.55548889  1  0  0.070927  0  0.91129  0  0  0.08911  0  0.968414  0  0  0.089931  0  0.968086  0  0.061486  0  0.106875  0.088449  0  0.96848  0
H  H18  1  0.89702442  0.14616062  0.32320532  1  0  0.056184  0  0.954305  0  0  0.070898  0  1.021478  0  0  0.070478  0  1.023364  0  0.0528  0  0.095324  0.071314  0  1.019882  0
H  H19  1  0.10297084  0.85382635  0.67679684  1  0  0.056145  0  0.954298  0  0  0.070878  0  1.021446  0  0  0.07046  0  1.02333  0  0.052626  0  0.095302  0.071293  0  1.019851  0
H  H20  1  0.99881581  0.41615828  0.33885296  1  0  0.260412  0  0.960233  0  0  0.248738  0  1.014558  0  0  0.256231  0  1.009607  0  0.474076  0  0.284483  0.243561  0  1.017966  0
H  H21  1  0.00118222  0.58383654  0.66114595  1  0  0.260369  0  0.960287  0  0  0.248734  0  1.014542  0  0  0.256198  0  1.009639  0  0.474275  0  0.284489  0.24355  0  1.017953  0
H  H22  1  0.75512389  0.66849395  0.65135069  1  0  0.040403  0  0.931347  0  0  0.0567  0  0.998168  0  0  0.057421  0  0.997581  0  0.019885  0  0.0929  0.055968  0  0.998825  0
H  H23  1  0.24486875  0.33149750  0.34864349  1  0  0.040476  0  0.93122  0  0  0.056715  0  0.998122  0  0  0.057434  0  0.997537  0  0.019765  0  0.092902  0.055984  0  0.998779  0
H  H24  1  0.73301202  0.64619844  0.53107283  1  0  0.058958  0  0.947902  0  0  0.075123  0  1.016032  0  0  0.075516  0  1.016009  0  0.061197  0  0.101899  0.074626  0  1.016354  0
H  H25  1  0.26698503  0.35378965  0.46892230  1  0  0.058934  0  0.948028  0  0  0.075125  0  1.016121  0  0  0.075517  0  1.016101  0  0.061183  0  0.101906  0.074632  0  1.016435  0
H  H26  1  0.65678699  0.71817312  0.36209455  1  0  0.079912  0  1.000741  0  0  0.088392  0  1.068642  0  0  0.091869  0  1.066174  0  0.062664  0  0.092925  0.085939  0  1.070436  0
H  H27  1  0.34322001  0.28182731  0.63790298  1  0  0.079994  0  1.000829  0  0  0.088522  0  1.068657  0  0  0.091995  0  1.066184  0  0.062571  0  0.093003  0.086065  0  1.070451  0
H  H28  1  0.52277396  0.87434612  0.28011442  1  0  0.099208  0  0.955386  0  0  0.110147  0  1.014483  0  0  0.114185  0  1.011176  0  0.098512  0  0.099138  0.107117  0  1.017199  0
H  H29  1  0.47721403  0.12563860  0.71987690  1  0  0.099255  0  0.955337  0  0  0.110168  0  1.014469  0  0  0.114204  0  1.011167  0  0.098494  0  0.099181  0.10714  0  1.01718  0
H  H30  1  0.64581941  0.98709546  0.15298028  1  0  0.075008  0  0.969868  0  0  0.086414  0  1.030609  0  0  0.089709  0  1.028172  0  0.038285  0  0.095283  0.084137  0  1.032193  0
H  H31  1  0.35416816  0.01290049  0.84701492  1  0  0.075  0  0.969812  0  0  0.086448  0  1.030526  0  0  0.089743  0  1.028088  0  0.038706  0  0.09531  0.084172  0  1.032107  0
H  H32  1  0.88144533  0.92929414  0.10184675  1  0  0.089218  0  0.946557  0  0  0.100509  0  1.00622  0  0  0.104305  0  1.003909  0  0.051391  0  0.098778  0.097848  0  1.007876  0
H  H33  1  0.11857225  0.07073436  0.89815544  1  0  0.089261  0  0.946744  0  0  0.10056  0  1.006374  0  0  0.104362  0  1.004057  0  0.051525  0  0.09884  0.097899  0  1.008028  0
H  H34  1  0.36016419  0.59416771  0.93702753  1  0  0.073853  0  0.923806  0  0  0.092189  0  0.98521  0  0  0.092838  0  0.985412  0  0.073004  0  0.110053  0.091572  0  0.985276  0
H  H35  1  0.63981922  0.40582487  0.06297166  1  0  0.073805  0  0.923838  0  0  0.092167  0  0.985244  0  0  0.092819  0  0.985443  0  0.072922  0  0.110053  0.091558  0  0.985308  0
H  H36  1  0.49716328  0.77074039  0.01021218  1  0  0.050111  0  0.937718  0  0  0.066992  0  1.001636  0  0  0.066926  0  1.002262  0  0.053079  0  0.093501  0.066981  0  1.001284  0
H  H37  1  0.50283540  0.22925331  0.98978409  1  0  0.050082  0  0.937701  0  0  0.067012  0  1.00159  0  0  0.066947  0  1.002217  0  0.052966  0  0.093494  0.067005  0  1.001241  0
H  H38  1  0.29083219  0.69429493  0.11026077  1  0  0.256444  0  0.927054  0  0  0.246542  0  0.983742  0  0  0.25273  0  0.979707  0  0.443465  0  0.285455  0.242072  0  0.986748  0
H  H39  1  0.70918427  0.30571449  0.88974357  1  0  0.256415  0  0.927129  0  0  0.246531  0  0.983767  0  0  0.252722  0  0.979732  0  0.443716  0  0.285432  0.242052  0  0.986798  0
H  H40  1  0.51046474  0.58161406  0.12752112  1  0  0.045782  0  0.95592  0  0  0.058605  0  1.028223  0  0  0.057658  0  1.031089  0  0.035264  0  0.089533  0.05927  0  1.026293  0
H  H41  1  0.48953215  0.41837851  0.87247953  1  0  0.045817  0  0.955949  0  0  0.058626  0  1.028255  0  0  0.057681  0  1.031123  0  0.03519  0  0.089548  0.059292  0  1.026322  0
H  H42  1  0.34387799  0.43020592  0.04096889  1  0  0.064705  0  0.938446  0  0  0.080515  0  1.005055  0  0  0.081436  0  1.004425  0  0.064095  0  0.102294  0.079761  0  1.005602  0
H  H43  1  0.65611317  0.56979227  0.95903012  1  0  0.064704  0  0.938439  0  0  0.080523  0  1.00503  0  0  0.081439  0  1.004411  0  0.063933  0  0.102275  0.079771  0  1.00557  0
H  H44  1  0.36467794  0.40048530  0.21084384  1  0  0.069657  0  0.924266  0  0  0.091652  0  0.97653  0  0  0.091993  0  0.97728  0  0.009561  0  0.093041  0.091328  0  0.976238  0
H  H45  1  0.63531479  0.59950391  0.78915287  1  0  0.069688  0  0.924222  0  0  0.091672  0  0.976507  0  0  0.092014  0  0.977257  0  0.009617  0  0.093056  0.091348  0  0.976215  0
H  H46  1  0.27121901  0.53165990  0.22027258  1  0  0.082645  0  0.941697  0  0  0.100333  0  1.002465  0  0  0.100972  0  1.003648  0  0.043472  0  0.097093  0.099876  0  1.001641  0
H  H47  1  0.72877975  0.46833156  0.77973020  1  0  0.082672  0  0.941668  0  0  0.100379  0  1.002414  0  0  0.101018  0  1.003598  0  0.043295  0  0.097083  0.099922  0  1.001591  0
H  H48  1  0.08300137  0.23833293  0.07967401  1  0  0.061451  0  0.929532  0  0  0.080167  0  0.989728  0  0  0.080704  0  0.989603  0  0.061095  0  0.102399  0.079718  0  0.989853  0
H  H49  1  0.91698742  0.76166301  0.92032331  1  0  0.061455  0  0.929542  0  0  0.080198  0  0.989717  0  0  0.080737  0  0.989591  0  0.061106  0  0.102401  0.079751  0  0.989843  0
H  H50  1  0.05373053  0.25027483  0.19311065  1  0  0.034715  0  0.93534  0  0  0.050273  0  1.004585  0  0  0.050345  0  1.005058  0  0.002949  0  0.086577  0.050132  0  1.004393  0
H  H51  1  0.94626260  0.74971999  0.80688905  1  0  0.034744  0  0.935325  0  0  0.050291  0  1.004582  0  0  0.050354  0  1.005068  0  0.002914  0  0.086588  0.050152  0  1.004387  0
H  H52  1  0.94292446  0.43890502  0.15932759  1  0  0.271934  0  0.939113  0  0  0.261401  0  0.994696  0  0  0.267432  0  0.990858  0  0.474239  0  0.292423  0.257094  0  0.997503  0
H  H53  1  0.05707217  0.56109429  0.84067737  1  0  0.271995  0  0.938929  0  0  0.261457  0  0.994537  0  0  0.267487  0  0.990699  0  0.474242  0  0.292429  0.257155  0  0.99734  0
H  H54  1  0.29618330  0.80300114  0.87919256  1  0  0.046632  0  0.937636  0  0  0.066624  0  0.997013  0  0  0.066978  0  0.996614  0  0.02834  0  0.095916  0.066327  0  0.997382  0
H  H55  1  0.70381031  0.19699704  0.12080870  1  0  0.046608  0  0.937597  0  0  0.066586  0  0.99699  0  0  0.066943  0  0.996585  0  0.028315  0  0.0959  0.066296  0  0.997355  0
H  H56  1  0.22645786  0.83516986  0.98035749  1  0  0.066932  0  0.913662  0  0  0.087275  0  0.969743  0  0  0.087511  0  0.970185  0  0.046695  0  0.107433  0.086954  0  0.969657  0
H  H57  1  0.77354113  0.16483170  0.01964586  1  0  0.066919  0  0.9137  0  0  0.087267  0  0.969768  0  0  0.087501  0  0.970216  0  0.046751  0  0.107456  0.086949  0  0.969681  0
C  C58  1  0.64189272  0.43754347  0.58359498  1  0  -0.166852  0  3.662699  0  0  -0.211056  0  3.931113  0  0  -0.213335  0  3.945292  0  -0.061685  0  -0.163202  -0.209313  0  3.921325  0
C  C59  1  0.35810049  0.56244910  0.41640196  1  0  -0.166688  0  3.662685  0  0  -0.210801  0  3.930927  0  0  -0.213074  0  3.945107  0  -0.062388  0  -0.163219  -0.209058  0  3.921143  0
C  C60  1  0.60088743  0.33475377  0.49274833  1  0  0.041902  0  3.662241  0  0  -0.019594  0  3.934872  0  0  -0.015585  0  3.947652  0  0.280576  0  -0.070819  -0.022145  0  3.926072  0
C  C61  1  0.39910481  0.66523207  0.50725080  1  0  0.041738  0  3.662427  0  0  -0.019634  0  3.934854  0  0  -0.01564  0  3.94765  0  0.280167  0  -0.070884  -0.022192  0  3.926058  0
C  C62  1  0.73113799  0.21032856  0.39617004  1  0  0.01069  0  3.645852  0  0  -0.049563  0  3.915543  0  0  -0.046254  0  3.927776  0  0.259699  0  -0.066317  -0.051623  0  3.907139  0
C  C63  1  0.26885841  0.78966065  0.60383236  1  0  0.011046  0  3.64553  0  0  -0.049292  0  3.915287  0  0  -0.045982  0  3.927518  0  0.259345  0  -0.066247  -0.051357  0  3.90689  0
C  C64  1  0.91401063  0.21634160  0.38802457  1  0  0.010974  0  3.651086  0  0  -0.048319  0  3.915113  0  0  -0.044927  0  3.928397  0  0.27029  0  -0.069782  -0.050433  0  3.905749  0
C  C65  1  0.08598502  0.78365098  0.61197595  1  0  0.010982  0  3.650927  0  0  -0.048318  0  3.914956  0  0  -0.044926  0  3.928234  0  0.270539  0  -0.069738  -0.050442  0  3.905589  0
C  C66  1  0.77014421  0.60291844  0.59295629  1  0  0.04789  0  3.652759  0  0  -0.013888  0  3.921646  0  0  -0.009485  0  3.9345  0  0.301812  0  -0.070177  -0.016718  0  3.912807  0
C  C67  1  0.22984917  0.39706964  0.40704109  1  0  0.047789  0  3.652604  0  0  -0.01399  0  3.921503  0  0  -0.009594  0  3.934368  0  0.302627  0  -0.070192  -0.016813  0  3.912675  0
C  C68  1  0.87609719  0.60865087  0.31669983  1  0  0.644856  0  3.916334  0  0  0.593472  0  4.221068  0  0  0.627223  0  4.211932  0  1.584012  0  0.201226  0.570633  0  4.226541  0
C  C69  1  0.12392865  0.39136977  0.68330084  1  0  0.644476  0  3.916571  0  0  0.59311  0  4.221309  0  0  0.62686  0  4.212173  0  1.584321  0  0.201209  0.570278  0  4.226777  0
C  C70  1  0.82984533  0.72532097  0.27351649  1  0  -0.087983  0  3.737293  0  0  -0.073386  0  3.969767  0  0  -0.079161  0  3.990104  0  -0.012444  0  -0.02162  -0.069765  0  3.956198  0
C  C71  1  0.17016908  0.27469405  0.72648396  1  0  -0.087682  0  3.736938  0  0  -0.073061  0  3.969374  0  0  -0.078838  0  3.989718  0  -0.000295  0  -0.021505  -0.069424  0  3.955845  0
C  C72  1  0.70300082  0.76481265  0.30427556  1  0  -0.085165  0  3.774321  0  0  -0.107581  0  4.022809  0  0  -0.107678  0  4.042471  0  -0.027744  0  -0.096132  -0.107352  0  4.009292  0
C  C73  1  0.29700242  0.23519003  0.69572037  1  0  -0.085288  0  3.774358  0  0  -0.107723  0  4.022825  0  0  -0.107811  0  4.042479  0  -0.040284  0  -0.096187  -0.107482  0  4.0093  0
C  C74  1  0.63234431  0.85501167  0.26054066  1  0  -0.084664  0  3.782461  0  0  -0.098889  0  4.035972  0  0  -0.100668  0  4.055034  0  -0.093587  0  -0.100157  -0.097646  0  4.022988  0
C  C75  1  0.36765591  0.14498989  0.73945753  1  0  -0.084781  0  3.782507  0  0  -0.099007  0  4.036074  0  0  -0.100784  0  4.05513  0  -0.093571  0  -0.100222  -0.097764  0  4.023087  0
C  C76  1  0.69884380  0.91553160  0.18787788  1  0  -0.068894  0  3.804557  0  0  -0.084467  0  4.063275  0  0  -0.08411  0  4.081857  0  -0.115971  0  -0.095961  -0.084551  0  4.050282  0
C  C77  1  0.30114972  0.08446884  0.81211887  1  0  -0.06891  0  3.804594  0  0  -0.084542  0  4.06337  0  0  -0.084185  0  4.081955  0  -0.116237  0  -0.096052  -0.084623  0  4.050368  0
C  C78  1  0.83067977  0.88281961  0.15903453  1  0  -0.107097  0  3.767285  0  0  -0.129878  0  4.02189  0  0  -0.132174  0  4.040808  0  -0.036457  0  -0.096129  -0.128322  0  4.009245  0
C  C79  1  0.16933308  0.11720440  0.84096955  1  0  -0.107178  0  3.767464  0  0  -0.129949  0  4.02209  0  0  -0.13225  0  4.041008  0  -0.036647  0  -0.096163  -0.128359  0  4.009473  0
C  C80  1  0.89551051  0.78525722  0.19975505  1  0  -0.040735  0  3.698255  0  0  -0.027665  0  3.932212  0  0  -0.02931  0  3.950405  0  -0.002918  0  -0.008203  -0.026761  0  3.920303  0
C  C81  1  0.10451434  0.21477352  0.80025135  1  0  -0.040808  0  3.69817  0  0  -0.027764  0  3.932108  0  0  -0.029414  0  3.9503  0  -0.00266  0  -0.008357  -0.026963  0  3.920349  0
C  C82  1  0.02521706  0.74419859  0.15777728  1  0  0.649076  0  3.957546  0  0  0.597066  0  4.268566  0  0  0.631325  0  4.257995  0  1.635766  0  0.191722  0.573544  0  4.275344  0
C  C83  1  0.97479799  0.25583215  0.84222343  1  0  0.649071  0  3.957734  0  0  0.59715  0  4.268662  0  0  0.631415  0  4.258083  0  1.635134  0  0.191818  0.573657  0  4.275443  0
C  C84  1  0.35741672  0.68340702  0.98471000  1  0  0.010435  0  3.653448  0  0  -0.048874  0  3.918404  0  0  -0.045296  0  3.931083  0  0.262681  0  -0.070039  -0.051137  0  3.909637  0
C  C85  1  0.64258122  0.31659005  0.01529167  1  0  0.01053  0  3.653377  0  0  -0.048877  0  3.918408  0  0  -0.045296  0  3.931091  0  0.262888  0  -0.070038  -0.051155  0  3.909664  0
C  C86  1  0.36381433  0.51720928  0.09777046  1  0  0.035307  0  3.641222  0  0  -0.024477  0  3.906577  0  0  -0.020423  0  3.919718  0  0.274515  0  -0.075641  -0.027142  0  3.897492  0
C  C87  1  0.63617814  0.48278666  0.90223122  1  0  0.035261  0  3.641272  0  0  -0.024521  0  3.906659  0  0  -0.020468  0  3.919806  0  0.279622  0  -0.075653  -0.027185  0  3.897578  0
C  C88  1  0.27529350  0.44415255  0.17166332  1  0  -0.151281  0  3.659002  0  0  -0.189203  0  3.919643  0  0  -0.191443  0  3.934239  0  -0.024774  0  -0.160529  -0.187525  0  3.909543  0
C  C89  1  0.72470623  0.55584564  0.82833927  1  0  -0.151333  0  3.659048  0  0  -0.189256  0  3.919676  0  0  -0.19149  0  3.934269  0  -0.02463  0  -0.160524  -0.187581  0  3.909579  0
C  C90  1  0.08599506  0.31534523  0.13764804  1  0  0.049943  0  3.639867  0  0  -0.010117  0  3.908198  0  0  -0.005946  0  3.921112  0  0.308471  0  -0.070172  -0.012834  0  3.899358  0
C  C91  1  0.91399618  0.68465071  0.86235285  1  0  0.049983  0  3.639928  0  0  -0.0101  0  3.908271  0  0  -0.005929  0  3.921196  0  0.308513  0  -0.070146  -0.012819  0  3.899432  0
C  C92  1  0.23600463  0.74897916  0.93309932  1  0  0.016226  0  3.657767  0  0  -0.045543  0  3.929509  0  0  -0.04196  0  3.942152  0  0.268086  0  -0.069621  -0.047907  0  3.920834  0
C  C93  1  0.76399257  0.25102127  0.06690311  1  0  0.016359  0  3.657693  0  0  -0.045383  0  3.929438  0  0  -0.041803  0  3.942085  0  0.267947  0  -0.069571  -0.047757  0  3.920781  0
N  N94  1  0.75420687  0.30085758  0.48418700  1  0  -0.401564  0  3.263211  0  0  -0.324619  0  3.51173  0  0  -0.341121  0  3.522226  0  -1.092738  0  -0.485445  -0.313321  0  3.50429  0
N  N95  1  0.24578822  0.69913387  0.51581274  1  0  -0.401586  0  3.263168  0  0  -0.324602  0  3.51169  0  0  -0.341101  0  3.522184  0  -1.092935  0  -0.485443  -0.313306  0  3.504257  0
N  N96  1  0.04124936  0.37343390  0.39529553  1  0  -0.425511  0  3.277278  0  0  -0.341463  0  3.525131  0  0  -0.360134  0  3.534263  0  -1.136449  0  -0.501144  -0.328756  0  3.518718  0
N  N97  1  0.95874629  0.62655867  0.60470234  1  0  -0.42573  0  3.277615  0  0  -0.341723  0  3.525532  0  0  -0.360393  0  3.534703  0  -1.136538  0  -0.501215  -0.328977  0  3.519073  0
N  N98  1  0.28337810  0.61451912  0.05868924  1  0  -0.410165  0  3.257645  0  0  -0.329288  0  3.50313  0  0  -0.346983  0  3.513033  0  -1.108755  0  -0.490066  -0.316998  0  3.496252  0
N  N99  1  0.71662449  0.38548468  0.94131462  1  0  -0.410297  0  3.258007  0  0  -0.329403  0  3.503506  0  0  -0.347116  0  3.513438  0  -1.113955  0  -0.490065  -0.317115  0  3.496634  0
N  N100  1  0.94729949  0.36966242  0.10555871  1  0  -0.418891  0  3.23248  0  0  -0.341007  0  3.485402  0  0  -0.358379  0  3.494856  0  -1.108351  0  -0.494823  -0.329075  0  3.478934  0
N  N101  1  0.05269649  0.63033801  0.89444558  1  0  -0.418939  0  3.232353  0  0  -0.341045  0  3.48528  0  0  -0.358417  0  3.494742  0  -1.108289  0  -0.494769  -0.329115  0  3.478784  0
O  O102  1  0.90771695  0.51632590  0.26720325  1  0  -0.619813  0  1.97795  0  0  -0.567829  0  2.197847  0  0  -0.591349  0  2.189558  0  -1.205132  0  -0.321867  -0.551635  0  2.203061  0
O  O103  1  0.09233950  0.48371157  0.73279833  1  0  -0.619562  0  1.978125  0  0  -0.567663  0  2.198093  0  0  -0.591163  0  2.1898  0  -1.205199  0  -0.321842  -0.551478  0  2.20332  0
O  O104  1  0.87350166  0.60763392  0.40119211  1  0  -0.663413  0  2.009671  0  0  -0.606657  0  2.272223  0  0  -0.632066  0  2.260824  0  -1.20216  0  -0.336127  -0.58887  0  2.27931  0
O  O105  1  0.12650272  0.39237101  0.59880407  1  0  -0.663291  0  2.00967  0  0  -0.606574  0  2.272301  0  0  -0.631994  0  2.260924  0  -1.202335  0  -0.336151  -0.588785  0  2.279387  0
O  O106  1  0.95348667  0.67548017  0.07440127  1  0  -0.660804  0  2.02402  0  0  -0.601406  0  2.287982  0  0  -0.628641  0  2.277489  0  -1.203128  0  -0.335858  -0.582022  0  2.294375  0
O  O107  1  0.04651323  0.32451352  0.92561036  1  0  -0.660873  0  2.024092  0  0  -0.601542  0  2.288003  0  0  -0.628778  0  2.277508  0  -1.203314  0  -0.335916  -0.582152  0  2.294379  0
O  O108  1  0.18525690  0.78209187  0.20269201  1  0  -0.647184  0  1.871628  0  0  -0.613452  0  2.090521  0  0  -0.635504  0  2.079523  0  -1.209013  0  -0.359691  -0.597879  0  2.097869  0
O  O109  1  0.81478112  0.21797928  0.79729617  1  0  -0.647108  0  1.871881  0  0  -0.613391  0  2.090723  0  0  -0.635443  0  2.079724  0  -1.208152  0  -0.359645  -0.597811  0  2.098057  0
