# generated using pymatgen
data_Cu2H19C17S2N2O7
_symmetry_space_group_name_H-M   'P 1'
_cell_length_a   10.95527060
_cell_length_b   11.01888242
_cell_length_c   11.51436024
_cell_angle_alpha   69.55041149
_cell_angle_beta   84.28977967
_cell_angle_gamma   70.53733578
_symmetry_Int_Tables_number   1
_chemical_formula_structural   Cu2H19C17S2N2O7
_chemical_formula_sum   'Cu4 H38 C34 S4 N4 O14'
_cell_volume   1227.71572321
_cell_formula_units_Z   2
loop_
 _symmetry_equiv_pos_site_id
 _symmetry_equiv_pos_as_xyz
  1  'x, y, z'
loop_
 _atom_site_type_symbol
 _atom_site_label
 _atom_site_symmetry_multiplicity
 _atom_site_fract_x
 _atom_site_fract_y
 _atom_site_fract_z
 _atom_site_occupancy
 _atom_site_pbe_bader_charge
 _atom_site_pbe_bader_spin_density
 _atom_site_pbe_cm5_charge
 _atom_site_pbe_ddec_charge
 _atom_site_pbe_ddec_spin_density
 _atom_site_pbe_ddec_sum_bond_order
 _atom_site_pbe_magmom
Cu  Cu0  1  0.56584314  0.07088132  0.39390313  1  1.102528  0  0.741335  0.907591  0  2.416633  0
Cu  Cu1  1  0.43416185  0.92911382  0.60610319  1  1.102223  0  0.741448  0.907764  0  2.416897  0
Cu  Cu2  1  0.74032796  0.87983093  0.61996123  1  1.146277  0  0.771591  0.932776  0  2.433476  0
Cu  Cu3  1  0.25964494  0.12019465  0.38002360  1  1.146221  0  0.771616  0.9328  0  2.433294  0
H  H4  1  0.38730592  0.25878778  0.18463700  1  0.144685  0  0.121434  0.084637  0  1.034242  0
H  H5  1  0.61272357  0.74121135  0.81536136  1  0.144523  0  0.121415  0.08461  0  1.034313  0
H  H6  1  0.32142695  0.50612722  0.06456477  1  0.08755  0  0.108089  0.119592  0  1.015988  0
H  H7  1  0.67858961  0.49387816  0.93543869  1  0.087481  0  0.108154  0.119718  0  1.015959  0
H  H8  1  0.61241277  0.53445863  0.27541174  1  0.104836  0  0.117212  0.136507  0  0.992744  0
H  H9  1  0.38759318  0.46555732  0.72460901  1  0.105299  0  0.117223  0.13654  0  0.992857  0
H  H10  1  0.65548271  0.28687700  0.39473982  1  0.127881  0  0.129724  0.109457  0  0.973633  0
H  H11  1  0.34452177  0.71313173  0.60527922  1  0.128115  0  0.129635  0.109252  0  0.973614  0
H  H12  1  0.33552523  0.67592693  0.92420052  1  0.094864  0  0.1013  0.115884  0  1.039847  0
H  H13  1  0.66451569  0.32405571  0.07579469  1  0.094599  0  0.101302  0.115864  0  1.039806  0
H  H14  1  0.31641166  0.85262173  0.88938693  1  0.192601  0  0.116985  0.168461  0  0.986357  0
H  H15  1  0.68362345  0.14736195  0.11060932  1  0.19259  0  0.116896  0.16839  0  0.98653  0
H  H16  1  0.19080256  0.76767522  0.77735729  1  0.094367  0  0.103835  0.109256  0  1.054373  0
H  H17  1  0.80921237  0.23230541  0.22264185  1  0.094486  0  0.103798  0.109173  0  1.054298  0
H  H18  1  0.02108706  0.81328002  0.62542130  1  0.141151  0  0.130376  0.115286  0  0.97863  0
H  H19  1  0.97892463  0.18672024  0.37458350  1  0.141279  0  0.130386  0.115319  0  0.978377  0
H  H20  1  0.72746204  0.88873716  0.87155703  1  0.120663  0  0.119888  0.102482  0  1.022507  0
H  H21  1  0.27256374  0.11126509  0.12844319  1  0.120843  0  0.119892  0.102551  0  1.022362  0
H  H22  1  0.88353832  0.84456818  0.03679829  1  0.10521  0  0.112514  0.130592  0  0.99653  0
H  H23  1  0.11648423  0.15539319  0.96321638  1  0.105169  0  0.112446  0.130534  0  0.996522  0
H  H24  1  0.83681319  0.41392312  0.60418016  1  0.044591  0  0.09492  0.149844  0  0.985152  0
H  H25  1  0.16311455  0.58608199  0.39581240  1  0.045569  0  0.094955  0.149939  0  0.985232  0
H  H26  1  0.87858037  0.43671548  0.74035014  1  0.019937  0  0.076873  0.122212  0  1.059337  0
H  H27  1  0.12135678  0.56330090  0.25964026  1  0.01973  0  0.076983  0.122421  0  1.059234  0
H  H28  1  0.98676120  0.43917263  0.61286097  1  0.086047  0  0.099472  0.160776  0  1.019513  0
H  H29  1  0.01319021  0.56080886  0.38713238  1  0.086026  0  0.099634  0.161032  0  1.019645  0
H  H30  1  0.03093129  0.87208222  0.29083031  1  0.068777  0  0.094778  0.155049  0  0.98957  0
H  H31  1  0.96906197  0.12792431  0.70918096  1  0.069016  0  0.094822  0.15509  0  0.989481  0
H  H32  1  0.90914799  0.94926821  0.16969559  1  0.021252  0  0.078469  0.117325  0  1.072303  0
H  H33  1  0.09086688  0.05073387  0.83029527  1  0.020875  0  0.078469  0.117342  0  1.072223  0
H  H34  1  0.92172695  0.78586153  0.28263546  1  0.076369  0  0.103552  0.169699  0  0.998136  0
H  H35  1  0.07827430  0.21414289  0.71737234  1  0.076591  0  0.10354  0.169681  0  0.998099  0
H  H36  1  0.40688663  0.25354424  0.59177639  1  0.142414  0  0.103987  0.185112  0  1.009654  0
H  H37  1  0.59307514  0.74643590  0.40825644  1  0.142787  0  0.10394  0.184948  0  1.009336  0
H  H38  1  0.53527296  0.30639436  0.62198598  1  0.020954  0  0.086633  0.136737  0  1.010332  0
H  H39  1  0.46466770  0.69361669  0.37799292  1  0.021729  0  0.086546  0.136661  0  1.010145  0
H  H40  1  0.43251994  0.24306031  0.74495639  1  0.058317  0  0.087652  0.14062  0  1.017139  0
H  H41  1  0.56745647  0.75696252  0.25504731  1  0.058611  0  0.08753  0.140391  0  1.017199  0
C  C42  1  0.43221079  0.32509295  0.20268730  1  0.536296  0  0.055989  0.119298  0  3.943429  0
C  C43  1  0.56782017  0.67490427  0.79731854  1  0.535866  0  0.056105  0.119338  0  3.943421  0
C  C44  1  0.39838683  0.46364218  0.13413410  1  0.006416  0  -0.090665  -0.185104  0  3.968077  0
C  C45  1  0.60163719  0.53635384  0.86586323  1  0.005926  0  -0.090902  -0.185502  0  3.968594  0
C  C46  1  0.46252957  0.54378612  0.15765330  1  -0.209836  0  0.007857  0.082969  0  4.044064  0
C  C47  1  0.53748614  0.45621610  0.84234612  1  -0.209312  0  0.00796  0.083111  0  4.04449  0
C  C48  1  0.55859290  0.47836183  0.25263783  1  0.11371  0  -0.08929  -0.185801  0  3.951976  0
C  C49  1  0.44142422  0.52164773  0.74736935  1  0.113572  0  -0.089342  -0.185909  0  3.952626  0
C  C50  1  0.58421976  0.34045484  0.31876381  1  0.358828  0  0.047629  0.08993  0  3.949977  0
C  C51  1  0.41579921  0.65954556  0.68124811  1  0.358363  0  0.0477  0.090137  0  3.950011  0
C  C52  1  0.31337294  0.75806734  0.96370573  1  -0.264592  0  -0.137931  -0.25009  0  3.891071  0
C  C53  1  0.68666830  0.24191731  0.03628702  1  -0.264354  0  -0.137736  -0.249875  0  3.89159  0
C  C54  1  0.05213262  0.80147994  0.92167988  1  -0.213171  0  0.008502  0.092796  0  4.039693  0
C  C55  1  0.94788018  0.19849863  0.07831930  1  -0.213445  0  0.008573  0.09274  0  4.039934  0
C  C56  1  0.09021082  0.79021622  0.80484092  1  0.004912  0  -0.092179  -0.179657  0  3.946129  0
C  C57  1  0.90981701  0.20976126  0.19515380  1  0.006626  0  -0.092189  -0.179526  0  3.946262  0
C  C58  1  0.99632306  0.81594436  0.71878036  1  0.508026  0  0.062292  0.124069  0  3.889692  0
C  C59  1  0.00370042  0.18404442  0.28121431  1  0.506254  0  0.062249  0.123983  0  3.889374  0
C  C60  1  0.83166473  0.85890519  0.85686209  1  0.498163  0  0.045748  0.092444  0  3.937766  0
C  C61  1  0.16835137  0.14108060  0.14313863  1  0.498047  0  0.045697  0.092312  0  3.937841  0
C  C62  1  0.91907725  0.83471988  0.94763410  1  -0.02516  0  -0.091005  -0.187437  0  3.968939  0
C  C63  1  0.08094134  0.16525162  0.05237221  1  -0.024904  0  -0.090916  -0.187318  0  3.968623  0
C  C64  1  0.82355000  0.62141220  0.57681167  1  1.559277  0  0.20677  0.679197  0  4.111178  0
C  C65  1  0.17642649  0.37858654  0.42316735  1  1.558925  0  0.206813  0.678999  0  4.110981  0
C  C66  1  0.88442821  0.46789616  0.63924271  1  -0.081648  0  -0.251242  -0.519803  0  3.892355  0
C  C67  1  0.11550101  0.53213745  0.36073376  1  -0.082089  0  -0.251561  -0.52023  0  3.89212  0
C  C68  1  0.83665173  0.94670658  0.35287381  1  1.571388  0  0.208515  0.697423  0  4.134105  0
C  C69  1  0.16334496  0.05330084  0.64712989  1  1.570997  0  0.20844  0.697434  0  4.13431  0
C  C70  1  0.93151920  0.88633067  0.26723124  1  -0.07566  0  -0.251979  -0.527763  0  3.892138  0
C  C71  1  0.06848987  0.11366934  0.73275999  1  -0.075696  0  -0.25197  -0.527823  0  3.89237  0
C  C72  1  0.56844337  0.08808014  0.68370422  1  1.512512  0  0.191668  0.666071  0  4.15996  0
C  C73  1  0.43154593  0.91191519  0.31631389  1  1.512938  0  0.191555  0.666616  0  4.160872  0
C  C74  1  0.48178464  0.23312426  0.65965626  1  -0.085553  0  -0.254968  -0.52539  0  3.8905  0
C  C75  1  0.51815291  0.76691488  0.34034187  1  -0.08701  0  -0.254672  -0.525135  0  3.890815  0
S  S76  1  0.43520412  0.71768713  0.07655877  1  0.175183  0  0.066094  0.099928  0  2.710765  0
S  S77  1  0.56482755  0.28231396  0.92343351  1  0.175264  0  0.06599  0.099781  0  2.710837  0
S  S78  1  0.15613447  0.78325327  0.03664230  1  0.13169  0  0.048087  0.05019  0  2.739753  0
S  S79  1  0.84389302  0.21672528  0.96335468  1  0.131763  0  0.048101  0.050323  0  2.740236  0
N  N80  1  0.52295296  0.26412298  0.29352169  1  -1.247454  0  -0.360785  -0.238117  0  3.633826  0
N  N81  1  0.47706942  0.73587834  0.70648438  1  -1.246874  0  -0.360736  -0.237959  0  3.633921  0
N  N82  1  0.86954079  0.85045199  0.74395589  1  -1.182888  0  -0.348209  -0.221451  0  3.601668  0
N  N83  1  0.13048236  0.14954394  0.25603548  1  -1.183044  0  -0.348219  -0.221407  0  3.601966  0
O  O84  1  0.59723442  0.90563745  0.52765900  1  -0.808151  0  -0.508544  -0.729992  0  2.170838  0
O  O85  1  0.40275443  0.09438050  0.47235914  1  -0.807983  0  -0.508486  -0.730075  0  2.17023  0
O  O86  1  0.79981624  0.68659085  0.65695197  1  -1.061481  0  -0.328903  -0.547203  0  2.306326  0
O  O87  1  0.20016824  0.31341797  0.34301501  1  -1.061221  0  -0.328879  -0.5471  0  2.306735  0
O  O88  1  0.80416743  0.67131446  0.46325505  1  -1.15097  0  -0.312375  -0.5324  0  2.119755  0
O  O89  1  0.19582032  0.32868643  0.53672828  1  -1.150879  0  -0.312413  -0.532363  0  2.119833  0
O  O90  1  0.72120730  0.01626772  0.30505270  1  -1.110317  0  -0.335962  -0.564931  0  2.345611  0
O  O91  1  0.27879738  0.98371668  0.69492783  1  -1.110156  0  -0.336  -0.56498  0  2.345761  0
O  O92  1  0.87238869  0.92641803  0.45980490  1  -1.183157  0  -0.325705  -0.586249  0  2.241068  0
O  O93  1  0.12758796  0.07361610  0.54019834  1  -1.182917  0  -0.325666  -0.586238  0  2.240974  0
O  O94  1  0.66569286  0.07286669  0.60884686  1  -1.078002  0  -0.330558  -0.575262  0  2.283942  0
O  O95  1  0.33431540  0.92713879  0.39116254  1  -1.078405  0  -0.330476  -0.575394  0  2.28431  0
O  O96  1  0.54284761  0.98987717  0.76564752  1  -1.199739  0  -0.339588  -0.607621  0  2.153098  0
O  O97  1  0.45712687  0.01012453  0.23438277  1  -1.199914  0  -0.33953  -0.607899  0  2.153321  0
