# generated using pymatgen
data_CoH4CSeNO3
_symmetry_space_group_name_H-M   'P 1'
_cell_length_a   6.70371174
_cell_length_b   7.87804191
_cell_length_c   9.43235863
_cell_angle_alpha   90.00007389
_cell_angle_beta   89.99987946
_cell_angle_gamma   112.47661216
_symmetry_Int_Tables_number   1
_chemical_formula_structural   CoH4CSeNO3
_chemical_formula_sum   'Co4 H16 C4 Se4 N4 O12'
_cell_volume   460.30178247
_cell_formula_units_Z   4
loop_
 _symmetry_equiv_pos_site_id
 _symmetry_equiv_pos_as_xyz
  1  'x, y, z'
loop_
 _atom_site_type_symbol
 _atom_site_label
 _atom_site_symmetry_multiplicity
 _atom_site_fract_x
 _atom_site_fract_y
 _atom_site_fract_z
 _atom_site_occupancy
 _atom_site_hle17_ddec_charge
 _atom_site_hle17_ddec_spin_density
 _atom_site_hle17_ddec_sum_bond_order
 _atom_site_hle17_magmom
 _atom_site_hse06_10hf_ddec_charge
 _atom_site_hse06_10hf_ddec_spin_density
 _atom_site_hse06_10hf_ddec_sum_bond_order
 _atom_site_hse06_10hf_magmom
 _atom_site_hse06_ddec_charge
 _atom_site_hse06_ddec_spin_density
 _atom_site_hse06_ddec_sum_bond_order
 _atom_site_hse06_magmom
 _atom_site_pbe_cm5_charge
 _atom_site_pbe_ddec_charge
 _atom_site_pbe_ddec_spin_density
 _atom_site_pbe_ddec_sum_bond_order
 _atom_site_pbe_magmom
Co  Co0  1  0.82875482  0.89113350  0.77227436  1  1.026202  2.794355  1.960432  2.525  0.989064  2.813295  2.406011  2.596  1.084359  2.861831  2.311414  2.686  0.60128  0.912732  2.765558  2.476708  2.51
Co  Co1  1  0.67124630  0.60886789  0.27227319  1  1.02617  2.794338  1.960413  2.525  0.989048  2.8133  2.405986  2.596  1.084342  2.861835  2.311399  2.686  0.601282  0.91272  2.765561  2.476691  2.51
Co  Co2  1  0.17124673  0.10886797  0.22772664  1  1.026231  2.79437  1.960397  2.525  0.989046  2.813302  2.405976  2.596  1.084332  2.861835  2.311388  2.686  0.601271  0.912712  2.765569  2.476663  2.51
Co  Co3  1  0.32875524  0.39113359  0.72772569  1  1.026181  2.794335  1.960431  2.525  0.989103  2.813294  2.405987  2.596  1.084379  2.86183  2.311404  2.686  0.601295  0.912764  2.765553  2.4767  2.51
H  H4  1  0.40436025  0.84454472  0.60843970  1  0.062367  3.1e-05  0.932509  0.001  0.077315  0.000106  0.998043  0.001  0.077514  -3.8e-05  0.998036  0.0  0.097639  0.07708  0.000304  0.998496  0.001
H  H5  1  0.09563821  0.65545494  0.10843657  1  0.062377  2.9e-05  0.932504  0.001  0.077318  0.000106  0.998061  0.001  0.077518  -3.8e-05  0.998056  0.0  0.097636  0.077083  0.000304  0.998512  0.001
H  H6  1  0.59563918  0.15545540  0.39156448  1  0.062371  2.9e-05  0.932495  0.001  0.077314  0.000106  0.998048  0.001  0.077514  -3.8e-05  0.998041  0.0  0.09764  0.077078  0.000304  0.998501  0.001
H  H7  1  0.90436269  0.34454516  0.89156124  1  0.062361  3e-05  0.932521  0.001  0.077347  0.000106  0.998024  0.001  0.077546  -3.8e-05  0.998016  0.0  0.097647  0.077112  0.000304  0.998477  0.001
H  H8  1  0.59003023  0.85009903  0.47388043  1  0.05729  7.2e-05  0.96156  0.0  0.06534  0.000513  1.039619  0.001  0.065159  0.000253  1.039292  0.0  0.096314  0.065359  0.000848  1.040204  0.001
H  H9  1  0.90996780  0.64989700  0.97387697  1  0.057356  7.1e-05  0.961605  0.0  0.065385  0.000513  1.039671  0.001  0.065204  0.000253  1.039343  0.0  0.096334  0.065401  0.000848  1.04027  0.001
H  H10  1  0.40996792  0.14989835  0.52612375  1  0.057333  7e-05  0.961588  0.0  0.065357  0.000513  1.039667  0.001  0.065178  0.000253  1.039339  0.0  0.09632  0.065374  0.000848  1.040265  0.001
H  H11  1  0.09003204  0.35009758  0.02612084  1  0.057288  7.1e-05  0.961524  0.0  0.065339  0.000513  1.039598  0.001  0.065157  0.000253  1.03927  0.0  0.096314  0.065357  0.000848  1.040194  0.001
H  H12  1  0.67153701  0.12508796  0.70081473  1  0.283651  2.8e-05  0.942427  0.0  0.271938  0.001337  1.011217  0.002  0.278741  0.000942  1.008098  0.002  0.277544  0.266924  0.001755  1.013305  0.002
H  H13  1  0.82846135  0.37491666  0.20081150  1  0.283809  2.8e-05  0.942646  0.0  0.272091  0.001337  1.011358  0.002  0.278896  0.000941  1.008237  0.002  0.277646  0.267077  0.001754  1.013439  0.002
H  H14  1  0.32846284  0.87491629  0.29918944  1  0.283813  2.8e-05  0.942576  0.0  0.27209  0.001337  1.0113  0.002  0.278895  0.000941  1.008178  0.002  0.277642  0.267076  0.001754  1.013382  0.002
H  H15  1  0.17153618  0.62508901  0.79918526  1  0.283639  2.8e-05  0.942315  0.0  0.27193  0.001337  1.01112  0.002  0.278734  0.000942  1.008  0.002  0.277526  0.266917  0.001755  1.013202  0.002
H  H16  1  0.85154806  0.12520947  0.58242746  1  0.305166  -0.000743  0.917794  -0.001  0.296538  0.000601  0.974772  0.001  0.30377  0.000296  0.971096  0.001  0.283186  0.291111  0.000968  0.97747  0.001
H  H17  1  0.64844700  0.37478406  0.08242449  1  0.305068  -0.000743  0.917851  -0.001  0.296459  0.000601  0.974799  0.001  0.303692  0.000296  0.971126  0.001  0.283157  0.291028  0.000968  0.977513  0.001
H  H18  1  0.14845009  0.87478790  0.41757566  1  0.30511  -0.000744  0.917823  -0.001  0.296407  0.000601  0.974887  0.001  0.303639  0.000296  0.971214  0.001  0.283144  0.29098  0.000968  0.977591  0.001
H  H19  1  0.35154479  0.62520925  0.91757121  1  0.305304  -0.000742  0.917834  -0.001  0.296621  0.000601  0.974856  0.001  0.303853  0.000296  0.971179  0.001  0.283267  0.291194  0.000968  0.977568  0.001
C  C20  1  0.53812773  0.93681445  0.54356086  1  0.047525  0.001615  3.651454  0.002  -0.003887  0.002746  3.917752  0.003  0.001111  0.001239  3.93232  0.001  -0.08444  -0.007486  0.004216  3.907715  0.004
C  C21  1  0.96187040  0.56318544  0.04355603  1  0.047403  0.001624  3.651602  0.002  -0.003969  0.002747  3.917835  0.003  0.001021  0.001242  3.932413  0.001  -0.084478  -0.007555  0.004216  3.907773  0.004
C  C22  1  0.46187170  0.06318567  0.45644332  1  0.047482  0.001628  3.651569  0.002  -0.003901  0.002746  3.917781  0.003  0.00109  0.001241  3.932355  0.001  -0.084457  -0.007497  0.004216  3.907741  0.004
C  C23  1  0.03812606  0.43681472  0.95643755  1  0.047576  0.001617  3.651442  0.002  -0.003883  0.002747  3.91779  0.003  0.001119  0.001242  3.932356  0.001  -0.084432  -0.007472  0.004216  3.907735  0.004
Se  Se24  1  0.80836438  0.56797848  0.59999491  1  1.220877  -0.010972  3.445652  -0.004  1.175146  0.012995  3.919489  0.016  1.221819  0.007925  3.901174  0.011  0.609304  1.136947  0.017561  3.932719  0.019
Se  Se25  1  0.69163719  0.93202279  0.09999512  1  1.220968  -0.010971  3.44561  -0.004  1.175245  0.012994  3.919442  0.016  1.221916  0.007925  3.901126  0.011  0.609336  1.137045  0.017561  3.932681  0.019
Se  Se26  1  0.19163652  0.43202162  0.40000396  1  1.220952  -0.010969  3.445624  -0.004  1.17523  0.012995  3.919461  0.016  1.221901  0.007923  3.901143  0.011  0.609329  1.137032  0.01756  3.932688  0.019
Se  Se27  1  0.30836499  0.06798006  0.90000481  1  1.220898  -0.010972  3.445618  -0.004  1.175165  0.012996  3.91946  0.016  1.221835  0.007924  3.901144  0.011  0.60929  1.136967  0.017562  3.932696  0.019
N  N28  1  0.71903241  0.03913717  0.63865311  1  -0.622406  0.051257  3.141128  0.081  -0.598568  0.037479  3.414713  0.051  -0.632894  0.02813  3.414215  0.039  -0.635733  -0.572254  0.045345  3.414745  0.061
N  N29  1  0.78097606  0.46086314  0.13865745  1  -0.622519  0.051256  3.141452  0.081  -0.598644  0.037479  3.414991  0.051  -0.632973  0.028128  3.414494  0.039  -0.635815  -0.572335  0.045344  3.415048  0.061
N  N30  1  0.28097379  0.96086148  0.36134471  1  -0.622576  0.051254  3.14145  0.081  -0.598581  0.037478  3.414979  0.051  -0.632907  0.028128  3.414483  0.039  -0.635796  -0.572262  0.045344  3.414997  0.061
N  N31  1  0.21903735  0.53913819  0.86135096  1  -0.622511  0.051257  3.141119  0.081  -0.598637  0.037479  3.414765  0.051  -0.632959  0.028128  3.414258  0.039  -0.635804  -0.572328  0.045345  3.414817  0.061
O  O32  1  0.99168610  0.74393710  0.70132371  1  -0.789111  0.057349  1.796202  0.093  -0.750107  0.043937  2.099978  0.064  -0.789711  0.032739  2.079588  0.047  -0.420787  -0.718105  0.055318  2.113836  0.08
O  O33  1  0.50831437  0.75606563  0.20132295  1  -0.789111  0.05735  1.796146  0.093  -0.750129  0.043937  2.099931  0.064  -0.789733  0.032738  2.079539  0.047  -0.420805  -0.718132  0.055317  2.113802  0.08
O  O34  1  0.00831460  0.25606577  0.29867622  1  -0.789119  0.057347  1.796158  0.093  -0.75013  0.043938  2.099948  0.064  -0.78973  0.03274  2.079554  0.047  -0.420809  -0.718132  0.055319  2.113812  0.08
O  O35  1  0.49168633  0.24393723  0.79867699  1  -0.78909  0.057348  1.796145  0.093  -0.750094  0.043937  2.099928  0.064  -0.789694  0.032739  2.079535  0.047  -0.420779  -0.718095  0.055315  2.1138  0.08
O  O36  1  0.86685565  0.67152581  0.43362932  1  -0.799278  0.054653  1.880136  0.09  -0.766886  0.043305  2.208429  0.063  -0.808788  0.031791  2.187239  0.045  -0.420813  -0.732698  0.055366  2.222162  0.08
O  O37  1  0.63314440  0.82847431  0.93363072  1  -0.799346  0.054654  1.880108  0.09  -0.766948  0.043307  2.208393  0.063  -0.808849  0.031793  2.187204  0.045  -0.42081  -0.732756  0.055368  2.222128  0.08
O  O38  1  0.13314525  0.32847429  0.56637061  1  -0.799328  0.054656  1.880116  0.09  -0.766957  0.043307  2.208425  0.063  -0.808856  0.031792  2.187231  0.045  -0.420814  -0.732765  0.055369  2.222154  0.08
O  O39  1  0.36685502  0.17152581  0.06637028  1  -0.799287  0.054652  1.880117  0.09  -0.766909  0.043306  2.208429  0.063  -0.808807  0.031792  2.187236  0.045  -0.420799  -0.73272  0.055366  2.222166  0.08
O  O40  1  0.58253999  0.60493941  0.65628113  1  -0.792258  0.052359  1.904737  0.092  -0.755896  0.043683  2.231138  0.065  -0.801078  0.034892  2.211032  0.052  -0.403497  -0.719616  0.052761  2.244495  0.078
O  O41  1  0.91745783  0.89506056  0.15628202  1  -0.792278  0.052356  1.904721  0.092  -0.755899  0.043681  2.231103  0.065  -0.801083  0.034889  2.210997  0.052  -0.403488  -0.719618  0.052759  2.244454  0.078
O  O42  1  0.41745795  0.39506072  0.34371775  1  -0.792273  0.052356  1.904733  0.092  -0.755897  0.043681  2.231107  0.065  -0.80108  0.03489  2.211002  0.052  -0.403489  -0.719617  0.052759  2.244462  0.078
O  O43  1  0.08254096  0.10493819  0.84371897  1  -0.792273  0.052357  1.904767  0.092  -0.755913  0.043683  2.231188  0.065  -0.801094  0.034891  2.211082  0.052  -0.403495  -0.719629  0.05276  2.24454  0.078
