# generated using pymatgen
data_RbH3C2(N3O)2
_symmetry_space_group_name_H-M   'P 1'
_cell_length_a   8.87245853
_cell_length_b   10.24150378
_cell_length_c   15.21474158
_cell_angle_alpha   89.99999893
_cell_angle_beta   92.83052203
_cell_angle_gamma   90.00001430
_symmetry_Int_Tables_number   1
_chemical_formula_structural   RbH3C2(N3O)2
_chemical_formula_sum   'Rb8 H24 C16 N48 O16'
_cell_volume   1380.83603924
_cell_formula_units_Z   8
loop_
 _symmetry_equiv_pos_site_id
 _symmetry_equiv_pos_as_xyz
  1  'x, y, z'
loop_
 _atom_site_type_symbol
 _atom_site_label
 _atom_site_symmetry_multiplicity
 _atom_site_fract_x
 _atom_site_fract_y
 _atom_site_fract_z
 _atom_site_occupancy
 _atom_site_hle17_bader_spin_density
 _atom_site_hle17_ddec_charge
 _atom_site_hle17_ddec_spin_density
 _atom_site_hle17_ddec_sum_bond_order
 _atom_site_hle17_magmom
 _atom_site_hse06_10hf_bader_spin_density
 _atom_site_hse06_10hf_ddec_charge
 _atom_site_hse06_10hf_ddec_spin_density
 _atom_site_hse06_10hf_ddec_sum_bond_order
 _atom_site_hse06_10hf_magmom
 _atom_site_hse06_bader_spin_density
 _atom_site_hse06_ddec_charge
 _atom_site_hse06_ddec_spin_density
 _atom_site_hse06_ddec_sum_bond_order
 _atom_site_hse06_magmom
 _atom_site_pbe_bader_spin_density
 _atom_site_pbe_cm5_charge
 _atom_site_pbe_ddec_charge
 _atom_site_pbe_ddec_spin_density
 _atom_site_pbe_ddec_sum_bond_order
 _atom_site_pbe_magmom
Rb  Rb0  1  0.32677683  0.93896273  0.07778663  1  0  0.899508  0  0.594746  0  0  0.821098  0  0.850852  0  0  0.838572  0  0.826913  0  0  0.931601  0.80846  0  0.86774  0
Rb  Rb1  1  0.17322268  0.43896387  0.42221341  1  0  0.899509  0  0.594744  0  0  0.821131  0  0.850807  0  0  0.838582  0  0.826891  0  0  0.931611  0.808474  0  0.867718  0
Rb  Rb2  1  0.67322306  0.06103700  0.92221349  1  0  0.899507  0  0.594748  0  0  0.821101  0  0.850849  0  0  0.838576  0  0.826905  0  0  0.931612  0.808467  0  0.867732  0
Rb  Rb3  1  0.82677721  0.56103683  0.57778672  1  0  0.899513  0  0.594747  0  0  0.821129  0  0.850829  0  0  0.83858  0  0.826903  0  0  0.931611  0.808469  0  0.867729  0
Rb  Rb4  1  0.36324004  0.63030786  0.65464195  1  0  0.90106  0  0.499488  0  0  0.827901  0  0.725012  0  0  0.844746  0  0.702528  0  0  0.848034  0.815697  0  0.74071  0
Rb  Rb5  1  0.13676049  0.13030802  0.84535759  1  0  0.901063  0  0.499479  0  0  0.827884  0  0.725004  0  0  0.844754  0  0.702504  0  0  0.848034  0.815706  0  0.740688  0
Rb  Rb6  1  0.63675985  0.36969284  0.34535752  1  0  0.901055  0  0.499498  0  0  0.827887  0  0.725005  0  0  0.844754  0  0.702511  0  0  0.848039  0.815708  0  0.740694  0
Rb  Rb7  1  0.86324053  0.86969269  0.15464257  1  0  0.901063  0  0.499485  0  0  0.82794  0  0.724961  0  0  0.844769  0  0.702487  0  0  0.848039  0.815724  0  0.740671  0
H  H8  1  0.02229228  0.53119250  0.09722351  1  0  0.119129  0  0.925866  0  0  0.135283  0  0.995795  0  0  0.136272  0  0.993467  0  0  0.114459  0.134351  0  0.996771  0
H  H9  1  0.47770824  0.03119273  0.40277657  1  0  0.119132  0  0.925848  0  0  0.135296  0  0.995755  0  0  0.136274  0  0.99345  0  0  0.114461  0.134354  0  0.996754  0
H  H10  1  0.97770761  0.46880722  0.90277662  1  0  0.119136  0  0.925856  0  0  0.135289  0  0.995787  0  0  0.136279  0  0.993459  0  0  0.114455  0.134358  0  0.996764  0
H  H11  1  0.52229166  0.96880699  0.59722356  1  0  0.119139  0  0.925845  0  0  0.135295  0  0.995769  0  0  0.136282  0  0.993446  0  0  0.114466  0.134361  0  0.996749  0
H  H12  1  0.97461854  0.47912115  0.20391167  1  0  0.123315  0  0.94924  0  0  0.137711  0  1.019908  0  0  0.140267  0  1.015836  0  0  0.120581  0.135564  0  1.02234  0
H  H13  1  0.52538187  0.97912189  0.29608842  1  0  0.123321  0  0.949244  0  0  0.137721  0  1.019908  0  0  0.140275  0  1.015838  0  0  0.120588  0.135572  0  1.022342  0
H  H14  1  0.02538248  0.52087858  0.79608849  1  0  0.123273  0  0.949275  0  0  0.137695  0  1.019922  0  0  0.140252  0  1.015852  0  0  0.120568  0.135548  0  1.022355  0
H  H15  1  0.47461689  0.02087784  0.70391168  1  0  0.123334  0  0.949229  0  0  0.137726  0  1.019904  0  0  0.140283  0  1.01583  0  0  0.120587  0.13558  0  1.022333  0
H  H16  1  0.83132395  0.48583695  0.11560950  1  0  0.115016  0  0.959274  0  0  0.126617  0  1.03868  0  0  0.12833  0  1.035723  0  0  0.115776  0.125202  0  1.039939  0
H  H17  1  0.66867647  0.98583674  0.38439059  1  0  0.115004  0  0.959279  0  0  0.126618  0  1.038662  0  0  0.12832  0  1.035727  0  0  0.115772  0.125193  0  1.039938  0
H  H18  1  0.16867595  0.51416376  0.88439063  1  0  0.115014  0  0.959276  0  0  0.126619  0  1.038677  0  0  0.128332  0  1.035722  0  0  0.115773  0.125205  0  1.039933  0
H  H19  1  0.33132230  0.01416396  0.61560950  1  0  0.114999  0  0.959231  0  0  0.126631  0  1.038568  0  0  0.128315  0  1.035673  0  0  0.115776  0.125178  0  1.03991  0
H  H20  1  0.64238807  0.40081229  0.88879106  1  0  0.126526  0  0.927186  0  0  0.144585  0  0.991466  0  0  0.146047  0  0.990672  0  0  0.125888  0.143436  0  0.992805  0
H  H21  1  0.85761231  0.90081213  0.61120849  1  0  0.126591  0  0.927078  0  0  0.144611  0  0.991393  0  0  0.146066  0  0.990612  0  0  0.125895  0.143453  0  0.992743  0
H  H22  1  0.35761070  0.59918841  0.11120904  1  0  0.126542  0  0.927144  0  0  0.144587  0  0.991439  0  0  0.146049  0  0.990647  0  0  0.125881  0.143436  0  0.992777  0
H  H23  1  0.14238758  0.09918857  0.38879098  1  0  0.126541  0  0.92715  0  0  0.1448  0  0.99146  0  0  0.146057  0  0.990644  0  0  0.125882  0.143444  0  0.992774  0
H  H24  1  0.46050911  0.45231643  0.84468354  1  0  0.121778  0  0.938965  0  0  0.140134  0  1.004853  0  0  0.141377  0  1.003813  0  0  0.121635  0.139075  0  1.006451  0
H  H25  1  0.03949151  0.95231620  0.65531600  1  0  0.121766  0  0.938962  0  0  0.140124  0  1.004834  0  0  0.141354  0  1.003818  0  0  0.121633  0.139052  0  1.006454  0
H  H26  1  0.53949078  0.54768330  0.15531659  1  0  0.121774  0  0.93898  0  0  0.140134  0  1.004859  0  0  0.141379  0  1.003819  0  0  0.121633  0.139074  0  1.006457  0
H  H27  1  0.96050838  0.04768353  0.34468347  1  0  0.121784  0  0.938935  0  0  0.140337  0  1.004879  0  0  0.141381  0  1.003787  0  0  0.121635  0.139075  0  1.006428  0
H  H28  1  0.62990991  0.50654188  0.79540462  1  0  0.116771  0  0.940702  0  0  0.132263  0  1.01065  0  0  0.133039  0  1.010782  0  0  0.118816  0.131406  0  1.011833  0
H  H29  1  0.87009035  0.00654209  0.70459493  1  0  0.11675  0  0.940719  0  0  0.132252  0  1.010642  0  0  0.133026  0  1.010773  0  0  0.118819  0.131393  0  1.011821  0
H  H30  1  0.37008998  0.49345785  0.20459485  1  0  0.116779  0  0.940702  0  0  0.132267  0  1.010648  0  0  0.133041  0  1.010781  0  0  0.118822  0.131408  0  1.011827  0
H  H31  1  0.12990954  0.99345763  0.29540454  1  0  0.116787  0  0.940684  0  0  0.132466  0  1.010711  0  0  0.133053  0  1.01077  0  0  0.118824  0.13142  0  1.011816  0
C  C32  1  0.50890278  0.70549117  0.91388392  1  0  0.425577  0  3.814233  0  0  0.38195  0  4.108588  0  0  0.401847  0  4.117946  0  0  0.33216  0.361175  0  4.102389  0
C  C33  1  0.99109754  0.20549043  0.58611629  1  0  0.425536  0  3.814243  0  0  0.381979  0  4.108509  0  0  0.40187  0  4.117882  0  0  0.332214  0.361222  0  4.102331  0
C  C34  1  0.49109825  0.29450954  0.08611624  1  0  0.425548  0  3.814247  0  0  0.381981  0  4.108526  0  0  0.401879  0  4.117881  0  0  0.33221  0.361227  0  4.102311  0
C  C35  1  0.00890235  0.79450930  0.41388384  1  0  0.425612  0  3.814305  0  0  0.38072  0  4.109865  0  0  0.401894  0  4.118001  0  0  0.332177  0.361208  0  4.10245  0
C  C36  1  0.07857378  0.24477070  0.15161508  1  0  0.422589  0  3.805752  0  0  0.368399  0  4.101528  0  0  0.397902  0  4.10999  0  0  0.33257  0.355603  0  4.094953  0
C  C37  1  0.42142567  0.74477055  0.34838431  1  0  0.422507  0  3.805844  0  0  0.368334  0  4.101585  0  0  0.397845  0  4.110041  0  0  0.33256  0.355535  0  4.095017  0
C  C38  1  0.92142611  0.75522902  0.84838439  1  0  0.422591  0  3.805839  0  0  0.368407  0  4.10161  0  0  0.397925  0  4.110041  0  0  0.332574  0.355614  0  4.095025  0
C  C39  1  0.57857422  0.25522917  0.65161516  1  0  0.422526  0  3.80576  0  0  0.368329  0  4.101554  0  0  0.397836  0  4.110003  0  0  0.332554  0.355536  0  4.09497  0
C  C40  1  0.94977126  0.46545811  0.13344463  1  0  -0.181314  0  3.605261  0  0  -0.300208  0  3.852978  0  0  -0.284988  0  3.862769  0  0  -0.119319  -0.302553  0  3.849931  0
C  C41  1  0.55022915  0.96545788  0.36655546  1  0  -0.18129  0  3.605266  0  0  -0.300177  0  3.852957  0  0  -0.284967  0  3.862778  0  0  -0.119307  -0.302535  0  3.849941  0
C  C42  1  0.05022976  0.53454161  0.86655553  1  0  -0.181285  0  3.605281  0  0  -0.300211  0  3.853009  0  0  -0.284992  0  3.862801  0  0  -0.119307  -0.302558  0  3.849969  0
C  C43  1  0.44976962  0.03454184  0.63344464  1  0  -0.181303  0  3.605194  0  0  -0.300182  0  3.852881  0  0  -0.284979  0  3.862706  0  0  -0.119313  -0.302541  0  3.849869  0
C  C44  1  0.57854043  0.48094017  0.85729274  1  0  -0.181719  0  3.600735  0  0  -0.289684  0  3.852127  0  0  -0.285999  0  3.859666  0  0  -0.119751  -0.299936  0  3.842802  0
C  C45  1  0.92146109  0.98094100  0.64270618  1  0  -0.181784  0  3.600682  0  0  -0.289688  0  3.852068  0  0  -0.286026  0  3.859665  0  0  -0.119767  -0.299925  0  3.842782  0
C  C46  1  0.42146058  0.51905956  0.14270676  1  0  -0.18173  0  3.600699  0  0  -0.289671  0  3.852074  0  0  -0.285994  0  3.859623  0  0  -0.119736  -0.299915  0  3.842749  0
C  C47  1  0.07853993  0.01905970  0.35729332  1  0  -0.181727  0  3.60066  0  0  -0.291194  0  3.852684  0  0  -0.286008  0  3.859599  0  0  -0.119759  -0.299949  0  3.842723  0
N  N48  1  0.27700468  0.21740755  0.25346928  1  0  0.61962  0  4.088269  0  0  0.675826  0  4.340508  0  0  0.700009  0  4.351062  0  0  0.089988  0.659521  0  4.333266  0
N  N49  1  0.22299589  0.71740736  0.24653080  1  0  0.619604  0  4.088305  0  0  0.675739  0  4.340641  0  0  0.699932  0  4.351178  0  0  0.089955  0.659443  0  4.33338  0
N  N50  1  0.72299634  0.78259217  0.74653022  1  0  0.619567  0  4.088359  0  0  0.675726  0  4.340667  0  0  0.699927  0  4.351168  0  0  0.089984  0.65944  0  4.333374  0
N  N51  1  0.77700400  0.28259236  0.75346933  1  0  0.619537  0  4.088385  0  0  0.67567  0  4.340739  0  0  0.699872  0  4.351246  0  0  0.08996  0.659384  0  4.333448  0
N  N52  1  0.40291104  0.72041963  0.84681501  1  0  -0.468342  0  2.885505  0  0  -0.47142  0  3.191028  0  0  -0.48705  0  3.195846  0  0  -0.297122  -0.461422  0  3.1907  0
N  N53  1  0.09708952  0.22042076  0.65318519  1  0  -0.468257  0  2.885677  0  0  -0.471348  0  3.191161  0  0  -0.48698  0  3.195984  0  0  -0.297083  -0.461356  0  3.190835  0
N  N54  1  0.59708885  0.27958108  0.15318512  1  0  -0.468324  0  2.885576  0  0  -0.471441  0  3.191115  0  0  -0.487071  0  3.19593  0  0  -0.297137  -0.461442  0  3.190768  0
N  N55  1  0.90291038  0.77957897  0.34681494  1  0  -0.46833  0  2.885684  0  0  -0.471307  0  3.19161  0  0  -0.487038  0  3.196006  0  0  -0.297113  -0.461411  0  3.190874  0
N  N56  1  0.06921480  0.13183416  0.10595238  1  0  -0.412562  0  2.998718  0  0  -0.39495  0  3.314023  0  0  -0.407091  0  3.321184  0  0  -0.311848  -0.386601  0  3.306227  0
N  N57  1  0.43078462  0.63183401  0.39404701  1  0  -0.412569  0  2.998724  0  0  -0.394959  0  3.314008  0  0  -0.407109  0  3.321174  0  0  -0.311872  -0.386615  0  3.306223  0
N  N58  1  0.93078396  0.86816556  0.89404772  1  0  -0.412615  0  2.998785  0  0  -0.395012  0  3.314095  0  0  -0.407152  0  3.321241  0  0  -0.311865  -0.386656  0  3.306287  0
N  N59  1  0.56921527  0.36816474  0.60595246  1  0  -0.41253  0  2.998776  0  0  -0.394923  0  3.314094  0  0  -0.407059  0  3.321243  0  0  -0.311835  -0.386569  0  3.306287  0
N  N60  1  0.15567694  0.28492106  0.22676555  1  0  -0.448393  0  2.847419  0  0  -0.45711  0  3.132981  0  0  -0.471219  0  3.133389  0  0  -0.258878  -0.4471  0  3.129969  0
N  N61  1  0.34432365  0.78492090  0.27323388  1  0  -0.448374  0  2.847492  0  0  -0.45707  0  3.133082  0  0  -0.471174  0  3.13347  0  0  -0.258874  -0.447054  0  3.130055  0
N  N62  1  0.84432295  0.71507866  0.77323393  1  0  -0.448367  0  2.847507  0  0  -0.457085  0  3.133108  0  0  -0.471182  0  3.133478  0  0  -0.258869  -0.447061  0  3.130064  0
N  N63  1  0.65567737  0.21507883  0.72676563  1  0  -0.448379  0  2.847432  0  0  -0.457098  0  3.133061  0  0  -0.471193  0  3.133436  0  0  -0.258888  -0.447074  0  3.130016  0
N  N64  1  0.58781318  0.59100603  0.91725379  1  0  0.00125  0  3.495681  0  0  0.090209  0  3.72818  0  0  0.075931  0  3.752136  0  0  -0.123885  0.124041  0  3.680669  0
N  N65  1  0.91218710  0.09100626  0.58274576  1  0  0.001321  0  3.495648  0  0  0.090266  0  3.728107  0  0  0.075985  0  3.752076  0  0  -0.123909  0.124013  0  3.680683  0
N  N66  1  0.41218671  0.40899369  0.08274568  1  0  0.001278  0  3.495721  0  0  0.090215  0  3.72821  0  0  0.075938  0  3.752166  0  0  -0.123893  0.124019  0  3.680714  0
N  N67  1  0.08781278  0.90899347  0.41725371  1  0  0.001141  0  3.495814  0  0  0.092271  0  3.728305  0  0  0.075831  0  3.752262  0  0  -0.123906  0.123972  0  3.680759  0
N  N68  1  0.68781860  0.59406028  0.98693742  1  0  -0.098664  0  2.884743  0  0  -0.10601  0  3.175289  0  0  -0.103851  0  3.185849  0  0  -0.078624  -0.115144  0  3.16373  0
N  N69  1  0.81218168  0.09405951  0.51306148  1  0  -0.09869  0  2.884635  0  0  -0.106028  0  3.175179  0  0  -0.103873  0  3.18575  0  0  -0.078611  -0.11514  0  3.163641  0
N  N70  1  0.31218129  0.40594042  0.01306205  1  0  -0.098682  0  2.884755  0  0  -0.106029  0  3.175309  0  0  -0.103871  0  3.185869  0  0  -0.078635  -0.115155  0  3.163751  0
N  N71  1  0.18781821  0.90594022  0.48693799  1  0  -0.098613  0  2.884742  0  0  -0.107195  0  3.175918  0  0  -0.103806  0  3.185857  0  0  -0.078627  -0.11511  0  3.163734  0
N  N72  1  0.98011265  0.33060878  0.11111017  1  0  0.014526  0  3.499723  0  0  0.138893  0  3.684784  0  0  0.093332  0  3.748626  0  0  -0.116035  0.147316  0  3.669114  0
N  N73  1  0.51988659  0.83060952  0.38888989  1  0  0.01456  0  3.499654  0  0  0.138942  0  3.684688  0  0  0.093362  0  3.748562  0  0  -0.116027  0.147354  0  3.669046  0
N  N74  1  0.01988724  0.66939095  0.88888996  1  0  0.014547  0  3.499705  0  0  0.138906  0  3.684788  0  0  0.093346  0  3.748622  0  0  -0.116031  0.147329  0  3.669119  0
N  N75  1  0.48011217  0.16939021  0.61111020  1  0  0.014541  0  3.499663  0  0  0.138922  0  3.684716  0  0  0.093363  0  3.748555  0  0  -0.116043  0.147344  0  3.669046  0
N  N76  1  0.96523341  0.15329107  0.03887595  1  0  -0.138493  0  3.095794  0  0  -0.131097  0  3.430489  0  0  -0.130251  0  3.437327  0  0  -0.165048  -0.130888  0  3.422768  0
N  N77  1  0.53476691  0.65329083  0.46112348  1  0  -0.138483  0  3.095758  0  0  -0.131088  0  3.430451  0  0  -0.130246  0  3.437297  0  0  -0.165066  -0.130885  0  3.422741  0
N  N78  1  0.03476648  0.84670866  0.96112352  1  0  -0.138455  0  3.09583  0  0  -0.131061  0  3.430522  0  0  -0.130214  0  3.437361  0  0  -0.165041  -0.130851  0  3.422799  0
N  N79  1  0.46523412  0.34670889  0.53887668  1  0  -0.1385  0  3.095808  0  0  -0.131113  0  3.430515  0  0  -0.130267  0  3.437353  0  0  -0.16507  -0.130904  0  3.422791  0
N  N80  1  0.91108284  0.27170824  0.04111821  1  0  -0.111881  0  2.90025  0  0  -0.131844  0  3.189829  0  0  -0.11914  0  3.205886  0  0  -0.098751  -0.133126  0  3.18272  0
N  N81  1  0.58891639  0.77170900  0.45888251  1  0  -0.111881  0  2.900216  0  0  -0.131836  0  3.189784  0  0  -0.119143  0  3.205866  0  0  -0.098729  -0.133131  0  3.182699  0
N  N82  1  0.08891592  0.72829148  0.95888254  1  0  -0.111899  0  2.900263  0  0  -0.131858  0  3.189849  0  0  -0.119156  0  3.205906  0  0  -0.098749  -0.133139  0  3.182739  0
N  N83  1  0.41108351  0.22829171  0.54111828  1  0  -0.111875  0  2.900255  0  0  -0.131821  0  3.189792  0  0  -0.119125  0  3.205865  0  0  -0.098718  -0.133108  0  3.182695  0
N  N84  1  0.33889088  0.83645531  0.83564635  1  0  0.656962  0  4.029743  0  0  0.682565  0  4.328639  0  0  0.707407  0  4.338285  0  0  0.07589  0.66607  0  4.321659  0
N  N85  1  0.16110859  0.33645548  0.66435381  1  0  0.656873  0  4.029833  0  0  0.682478  0  4.328736  0  0  0.70732  0  4.338381  0  0  0.075845  0.665982  0  4.321755  0
N  N86  1  0.66110902  0.16354539  0.16435377  1  0  0.656963  0  4.029732  0  0  0.682568  0  4.328633  0  0  0.707411  0  4.338276  0  0  0.075896  0.666072  0  4.321654  0
N  N87  1  0.83889131  0.66354424  0.33564632  1  0  0.656881  0  4.029872  0  0  0.6826  0  4.328592  0  0  0.707335  0  4.33841  0  0  0.075889  0.665997  0  4.321783  0
N  N88  1  0.55995861  0.77849705  0.98297607  1  0  -0.41278  0  2.998508  0  0  -0.387862  0  3.296124  0  0  -0.401196  0  3.307277  0  0  -0.327954  -0.379818  0  3.291782  0
N  N89  1  0.94004173  0.27849728  0.51702349  1  0  -0.41283  0  2.998411  0  0  -0.387933  0  3.295995  0  0  -0.401276  0  3.30717  0  0  -0.328004  -0.3799  0  3.291668  0
N  N90  1  0.44004241  0.22150268  0.01702344  1  0  -0.412814  0  2.998404  0  0  -0.387923  0  3.296011  0  0  -0.401256  0  3.307161  0  0  -0.328003  -0.379885  0  3.291663  0
N  N91  1  0.05995816  0.72150244  0.48297599  1  0  -0.412805  0  2.998382  0  0  -0.387707  0  3.296338  0  0  -0.401226  0  3.30714  0  0  -0.327976  -0.379846  0  3.291655  0
N  N92  1  0.66930830  0.70617371  0.02531799  1  0  -0.108463  0  3.060706  0  0  -0.097936  0  3.379039  0  0  -0.096955  0  3.389057  0  0  -0.153396  -0.098777  0  3.375268  0
N  N93  1  0.83069316  0.20617391  0.47468213  1  0  -0.108414  0  3.060679  0  0  -0.097871  0  3.378989  0  0  -0.096905  0  3.38904  0  0  -0.153381  -0.098726  0  3.375241  0
N  N94  1  0.33069271  0.29382601  0.97468151  1  0  -0.108454  0  3.060716  0  0  -0.097925  0  3.379057  0  0  -0.096943  0  3.389074  0  0  -0.153396  -0.098767  0  3.375283  0
N  N95  1  0.16930786  0.79382582  0.52531737  1  0  -0.108468  0  3.060671  0  0  -0.097678  0  3.379318  0  0  -0.096957  0  3.389026  0  0  -0.153391  -0.098781  0  3.375241  0
O  O96  1  0.32694437  0.12050773  0.21312241  1  0  -0.481195  0  1.83819  0  0  -0.46872  0  2.066293  0  0  -0.483493  0  2.063028  0  0  -0.255585  -0.458445  0  2.068773  0
O  O97  1  0.17305617  0.62050850  0.28687767  1  0  -0.481076  0  1.838275  0  0  -0.468643  0  2.066395  0  0  -0.483416  0  2.063119  0  0  -0.255534  -0.458379  0  2.06889  0
O  O98  1  0.67305552  0.87949200  0.78687706  1  0  -0.48113  0  1.838207  0  0  -0.468715  0  2.066344  0  0  -0.483459  0  2.063032  0  0  -0.255575  -0.45842  0  2.068793  0
O  O99  1  0.82694372  0.37949123  0.71312246  1  0  -0.481151  0  1.838245  0  0  -0.468701  0  2.066407  0  0  -0.483448  0  2.0631  0  0  -0.255571  -0.458406  0  2.068858  0
O  O100  1  0.24285270  0.84648801  0.77149482  1  0  -0.500149  0  1.701097  0  0  -0.482556  0  1.920047  0  0  -0.497174  0  1.915826  0  0  -0.237941  -0.47218  0  1.922457  0
O  O101  1  0.25714790  0.34648820  0.72850603  1  0  -0.50014  0  1.701127  0  0  -0.482548  0  1.920079  0  0  -0.497168  0  1.915856  0  0  -0.237925  -0.472163  0  1.92247  0
O  O102  1  0.75714720  0.15351269  0.22850531  1  0  -0.500151  0  1.701088  0  0  -0.482542  0  1.920038  0  0  -0.497175  0  1.915826  0  0  -0.237948  -0.472184  0  1.922463  0
O  O103  1  0.74285199  0.65351251  0.27149410  1  0  -0.500117  0  1.701167  0  0  -0.482499  0  1.920079  0  0  -0.497148  0  1.915896  0  0  -0.23792  -0.472144  0  1.922511  0
O  O104  1  0.37012275  0.93425834  0.88466182  1  0  -0.564101  0  1.821306  0  0  -0.536689  0  2.062157  0  0  -0.553108  0  2.057734  0  0  -0.326325  -0.525186  0  2.064977  0
O  O105  1  0.12987787  0.43425850  0.61533837  1  0  -0.564077  0  1.821314  0  0  -0.536666  0  2.062155  0  0  -0.553088  0  2.057741  0  0  -0.326334  -0.525166  0  2.064984  0
O  O106  1  0.62987715  0.06574237  0.11533830  1  0  -0.56407  0  1.821293  0  0  -0.536663  0  2.062143  0  0  -0.553081  0  2.05772  0  0  -0.326303  -0.525159  0  2.064964  0
O  O107  1  0.87012315  0.56574123  0.38466179  1  0  -0.564042  0  1.821338  0  0  -0.536578  0  2.062075  0  0  -0.553054  0  2.057735  0  0  -0.326331  -0.525132  0  2.064978  0
O  O108  1  0.34391722  0.25699550  0.32462134  1  0  -0.555589  0  1.800351  0  0  -0.547252  0  2.036216  0  0  -0.56358  0  2.030901  0  0  -0.336939  -0.535757  0  2.039701  0
O  O109  1  0.15608223  0.75699529  0.17537805  1  0  -0.555652  0  1.800272  0  0  -0.547266  0  2.03621  0  0  -0.56359  0  2.030883  0  0  -0.336965  -0.535768  0  2.03969  0
O  O110  1  0.65608266  0.74300325  0.67537813  1  0  -0.5556  0  1.800374  0  0  -0.547233  0  2.036282  0  0  -0.563555  0  2.030962  0  0  -0.336956  -0.535722  0  2.039738  0
O  O111  1  0.84391654  0.24300443  0.82462270  1  0  -0.555561  0  1.800342  0  0  -0.547208  0  2.036262  0  0  -0.563523  0  2.030918  0  0  -0.336942  -0.535696  0  2.039715  0
