# generated using pymatgen
data_HgH18C16(SN)4
_symmetry_space_group_name_H-M   'P 1'
_cell_length_a   9.39126046
_cell_length_b   9.88703276
_cell_length_c   10.72961548
_cell_angle_alpha   93.30107183
_cell_angle_beta   95.11868142
_cell_angle_gamma   111.34053191
_symmetry_Int_Tables_number   1
_chemical_formula_structural   HgH18C16(SN)4
_chemical_formula_sum   'Hg2 H36 C32 S8 N8'
_cell_volume   919.88822796
_cell_formula_units_Z   2
loop_
 _symmetry_equiv_pos_site_id
 _symmetry_equiv_pos_as_xyz
  1  'x, y, z'
loop_
 _atom_site_type_symbol
 _atom_site_label
 _atom_site_symmetry_multiplicity
 _atom_site_fract_x
 _atom_site_fract_y
 _atom_site_fract_z
 _atom_site_occupancy
 _atom_site_pbe_bader_spin_density
 _atom_site_pbe_cm5_charge
 _atom_site_pbe_ddec_charge
 _atom_site_pbe_ddec_spin_density
 _atom_site_pbe_ddec_sum_bond_order
 _atom_site_pbe_magmom
Hg  Hg0  1  0.44735162  0.44997439  0.77083283  1  0  0.43441  0.385314  0  2.683617  0
Hg  Hg1  1  0.55264570  0.55002318  0.22917044  1  0  0.434408  0.385341  0  2.683603  0
H  H2  1  0.61683047  0.06337519  0.07180049  1  0  0.091001  0.103017  0  1.036447  0
H  H3  1  0.38317132  0.93662567  0.92819772  1  0  0.091009  0.103007  0  1.036441  0
H  H4  1  0.63753394  0.21947435  0.17437157  1  0  0.089366  0.10654  0  1.068175  0
H  H5  1  0.36246918  0.78052438  0.82562944  1  0  0.08936  0.106528  0  1.068182  0
H  H6  1  0.80013397  0.16857565  0.15680017  1  0  0.106204  0.125878  0  1.017025  0
H  H7  1  0.19986849  0.83142414  0.84319804  1  0  0.106194  0.125872  0  1.016984  0
H  H8  1  0.97711523  0.33971431  0.05538571  1  0  0.106998  0.09775  0  1.000634  0
H  H9  1  0.02288739  0.66028873  0.94461267  1  0  0.106997  0.097743  0  1.000648  0
H  H10  1  0.91756587  0.38302430  0.90699060  1  0  0.100958  0.098348  0  1.048102  0
H  H11  1  0.08243326  0.61698087  0.09300854  1  0  0.100947  0.098359  0  1.048087  0
H  H12  1  0.15983468  0.26622045  0.93728500  1  0  0.092143  0.115182  0  1.031556  0
H  H13  1  0.84016603  0.73378042  0.06271685  1  0  0.092112  0.115166  0  1.031526  0
H  H14  1  0.19638048  0.05606991  0.82925014  1  0  0.098496  0.066734  0  1.045864  0
H  H15  1  0.80361701  0.94393090  0.17075144  1  0  0.098499  0.066719  0  1.045795  0
H  H16  1  0.72530022  0.82081668  0.76593865  1  0  0.098508  0.069205  0  1.017929  0
H  H17  1  0.27469618  0.17918412  0.23406284  1  0  0.098487  0.069169  0  1.017985  0
H  H18  1  0.66902087  0.02404183  0.86708587  1  0  0.100685  0.112404  0  1.02812  0
H  H19  1  0.33098042  0.97596336  0.13290971  1  0  0.100691  0.112402  0  1.028082  0
H  H20  1  0.97818546  0.55944047  0.69300210  1  0  0.091804  0.119698  0  1.052692  0
H  H21  1  0.02181417  0.44056038  0.30699966  1  0  0.091797  0.119689  0  1.052685  0
H  H22  1  0.91663613  0.60912311  0.54658443  1  0  0.095232  0.11101  0  1.037144  0
H  H23  1  0.08336093  0.39087662  0.45341893  1  0  0.09524  0.111028  0  1.037106  0
H  H24  1  0.01569813  0.74701810  0.67250541  1  0  0.095587  0.109455  0  1.06102  0
H  H25  1  0.98430258  0.25298276  0.32749551  1  0  0.095588  0.109466  0  1.061046  0
H  H26  1  0.09514077  0.72837020  0.41210553  1  0  0.101595  0.08743  0  1.017181  0
H  H27  1  0.90486035  0.27163176  0.58789640  1  0  0.101598  0.087445  0  1.017241  0
H  H28  1  0.28493880  0.72592292  0.43267943  1  0  0.10219  0.098756  0  1.044543  0
H  H29  1  0.71506068  0.27407467  0.56732123  1  0  0.102184  0.098782  0  1.044535  0
H  H30  1  0.08517608  0.96764013  0.42887064  1  0  0.104542  0.11188  0  1.036111  0
H  H31  1  0.91482555  0.03235749  0.57113112  1  0  0.104528  0.111852  0  1.0361  0
H  H32  1  0.18745708  0.22367078  0.53216174  1  0  0.106494  0.074256  0  1.020344  0
H  H33  1  0.81254373  0.77632466  0.46783891  1  0  0.106475  0.074219  0  1.020391  0
H  H34  1  0.54163626  0.15660957  0.74245055  1  0  0.098008  0.063808  0  1.058397  0
H  H35  1  0.45836662  0.84339131  0.25754494  1  0  0.098008  0.063802  0  1.058377  0
H  H36  1  0.45507182  0.89686981  0.64831456  1  0  0.098568  0.112798  0  1.035388  0
H  H37  1  0.54493509  0.10313332  0.35168697  1  0  0.098593  0.112835  0  1.035345  0
C  C38  1  0.64000283  0.32553043  0.95331080  1  0  0.116745  0.177168  0  4.094843  0
C  C39  1  0.35999680  0.67447041  0.04668909  1  0  0.116745  0.177166  0  4.094877  0
C  C40  1  0.69511444  0.17442038  0.10852725  1  0  -0.147998  -0.280656  0  3.899707  0
C  C41  1  0.30488587  0.82557938  0.89147078  1  0  -0.147988  -0.280603  0  3.899661  0
C  C42  1  0.89144042  0.29692297  0.97147738  1  0  -0.055586  -0.121908  0  3.893354  0
C  C43  1  0.10856071  0.70307898  0.02852175  1  0  -0.05555  -0.121903  0  3.893414  0
C  C44  1  0.91050857  0.16496703  0.90889623  1  0  0.00334  0.141146  0  3.936689  0
C  C45  1  0.08948908  0.83503702  0.09110180  1  0  0.003336  0.141186  0  3.936701  0
C  C46  1  0.05979809  0.17053675  0.89810550  1  0  -0.095425  -0.177797  0  3.938818  0
C  C47  1  0.94020238  0.82946626  0.10189084  1  0  -0.095391  -0.177787  0  3.938822  0
C  C48  1  0.07997588  0.05142296  0.83843262  1  0  0.031203  0.088489  0  4.008278  0
C  C49  1  0.92002525  0.94857898  0.16156465  1  0  0.031206  0.08851  0  4.008215  0
C  C50  1  0.82000969  0.92226859  0.80298624  1  0  0.03647  0.098612  0  4.004083  0
C  C51  1  0.17999118  0.07773552  0.19701392  1  0  0.036491  0.098664  0  4.004028  0
C  C52  1  0.78813846  0.03732503  0.85947345  1  0  -0.095673  -0.189893  0  3.939943  0
C  C53  1  0.21186068  0.96268012  0.14052196  1  0  -0.095702  -0.189957  0  3.939979  0
C  C54  1  0.24594973  0.58695931  0.62754054  1  0  0.118787  0.166385  0  4.093154  0
C  C55  1  0.75405056  0.41304047  0.37246215  1  0  0.118802  0.166372  0  4.093085  0
C  C56  1  0.00820582  0.64182125  0.62601348  1  0  -0.148427  -0.274381  0  3.849865  0
C  C57  1  0.99179259  0.35817632  0.37398616  1  0  -0.14843  -0.274431  0  3.849861  0
C  C58  1  0.19797060  0.75210921  0.48036722  1  0  -0.058106  -0.119924  0  3.858542  0
C  C59  1  0.80202995  0.24788840  0.51963446  1  0  -0.058108  -0.120074  0  3.858706  0
C  C60  1  0.25994891  0.90999731  0.53294585  1  0  0.009337  0.145798  0  3.922451  0
C  C61  1  0.74005379  0.09000034  0.46705693  1  0  0.009367  0.145909  0  3.922409  0
C  C62  1  0.18656471  0.00450049  0.49837128  1  0  -0.086652  -0.18088  0  3.938856  0
C  C63  1  0.81343758  0.99549607  0.50163142  1  0  -0.08669  -0.180927  0  3.938822  0
C  C64  1  0.24324341  0.14729111  0.55533421  1  0  0.042579  0.094377  0  3.974102  0
C  C65  1  0.75675565  0.85270539  0.44466822  1  0  0.042599  0.094407  0  3.973994  0
C  C66  1  0.44005939  0.10935492  0.67311397  1  0  0.036623  0.085741  0  3.980032  0
C  C67  1  0.55994049  0.89064377  0.32688864  1  0  0.036671  0.085796  0  3.979943  0
C  C68  1  0.39176997  0.96572051  0.62106970  1  0  -0.086392  -0.167279  0  3.920926  0
C  C69  1  0.60823315  0.03427822  0.37893131  1  0  -0.086414  -0.167346  0  3.920919  0
S  S70  1  0.45993924  0.27903815  0.99495777  1  0  -0.186262  -0.370651  0  2.43246  0
S  S71  1  0.54006321  0.72096165  0.00504323  1  0  -0.186258  -0.370663  0  2.432472  0
S  S72  1  0.70484293  0.44672180  0.83965097  1  0  -0.14196  -0.240106  0  2.499367  0
S  S73  1  0.29515481  0.55327684  0.16034773  1  0  -0.14196  -0.240116  0  2.499347  0
S  S74  1  0.42077595  0.61542026  0.57648522  1  0  -0.179612  -0.327177  0  2.425902  0
S  S75  1  0.57922178  0.38457840  0.42351814  1  0  -0.179631  -0.327201  0  2.425813  0
S  S76  1  0.18292578  0.46609000  0.74072567  1  0  -0.141822  -0.258355  0  2.511847  0
S  S77  1  0.81707196  0.53390865  0.25927583  1  0  -0.141822  -0.258352  0  2.511799  0
N  N78  1  0.73859162  0.26929375  0.00786733  1  0  -0.272918  0.020464  0  3.684838  0
N  N79  1  0.26140802  0.73070710  0.99213349  1  0  -0.272935  0.020452  0  3.684908  0
N  N80  1  0.96309345  0.92773427  0.79106276  1  0  -0.329522  -0.288318  0  3.354434  0
N  N81  1  0.03690378  0.07226869  0.20893611  1  0  -0.329525  -0.288319  0  3.354307  0
N  N82  1  0.15372144  0.65366529  0.57989499  1  0  -0.265179  0.031876  0  3.630432  0
N  N83  1  0.84627696  0.34633227  0.42010465  1  0  -0.265155  0.032017  0  3.63037  0
N  N84  1  0.36624933  0.19841217  0.64230843  1  0  -0.316347  -0.222206  0  3.510308  0
N  N85  1  0.63375123  0.80158543  0.35769138  1  0  -0.316364  -0.222213  0  3.510193  0
