# generated using pymatgen
data_CuPH4C4SBrO4
_symmetry_space_group_name_H-M   'P 1'
_cell_length_a   7.89393114
_cell_length_b   7.68150907
_cell_length_c   13.31739912
_cell_angle_alpha   94.88395926
_cell_angle_beta   89.99983262
_cell_angle_gamma   89.99987465
_symmetry_Int_Tables_number   1
_chemical_formula_structural   CuPH4C4SBrO4
_chemical_formula_sum   'Cu4 P4 H16 C16 S4 Br4 O16'
_cell_volume   804.59916591
_cell_formula_units_Z   4
loop_
 _symmetry_equiv_pos_site_id
 _symmetry_equiv_pos_as_xyz
  1  'x, y, z'
loop_
 _atom_site_type_symbol
 _atom_site_label
 _atom_site_symmetry_multiplicity
 _atom_site_fract_x
 _atom_site_fract_y
 _atom_site_fract_z
 _atom_site_occupancy
 _atom_site_hle17_ddec_charge
 _atom_site_hle17_ddec_spin_density
 _atom_site_hle17_ddec_sum_bond_order
 _atom_site_hle17_magmom
 _atom_site_hse06_10hf_ddec_charge
 _atom_site_hse06_10hf_ddec_spin_density
 _atom_site_hse06_10hf_ddec_sum_bond_order
 _atom_site_hse06_10hf_magmom
 _atom_site_hse06_ddec_charge
 _atom_site_hse06_ddec_spin_density
 _atom_site_hse06_ddec_sum_bond_order
 _atom_site_hse06_magmom
 _atom_site_pbe_cm5_charge
 _atom_site_pbe_ddec_charge
 _atom_site_pbe_ddec_spin_density
 _atom_site_pbe_ddec_sum_bond_order
 _atom_site_pbe_magmom
Cu  Cu0  1  0.10426042  0.70593301  0.47707708  1  1.113377  0.71363  1.618263  0.536  1.134077  0.820788  1.995055  0.676  1.21364  0.891831  1.937701  0.761  0.746199  1.072966  0.754252  2.04614  0.608
Cu  Cu1  1  0.60425937  0.79407379  0.52291674  1  1.113468  0.713666  1.618421  0.536  1.1341  0.820807  1.995292  0.676  1.2137  0.891837  1.937845  0.761  0.746212  1.073036  0.754261  2.046304  0.608
Cu  Cu2  1  0.89573590  0.29407561  0.52292058  1  1.113482  -0.713661  1.618357  -0.536  1.134136  -0.820802  1.99524  -0.676  1.213675  -0.891834  1.937849  -0.761  0.74619  1.073026  -0.754264  2.046269  -0.608
Cu  Cu3  1  0.39574074  0.20593255  0.47707625  1  1.113487  -0.713649  1.618132  -0.536  1.134132  -0.820802  1.99498  -0.676  1.213661  -0.891841  1.937615  -0.761  0.746196  1.072968  -0.754254  2.046077  -0.608
P  P4  1  0.65551757  0.47797966  0.38265745  1  1.484204  -0.001154  4.852097  0.001  1.35272  -0.003756  5.339376  -0.002  1.413757  -0.002798  5.295713  -0.001  0.336326  1.308731  -0.004366  5.368223  -0.002
P  P5  1  0.15551910  0.02203654  0.61734225  1  1.484017  -0.001151  4.851958  0.001  1.352606  -0.003757  5.339203  -0.002  1.413612  -0.002796  5.295616  -0.001  0.336177  1.308617  -0.004366  5.368039  -0.002
P  P6  1  0.34448634  0.52203554  0.61733993  1  1.484019  0.001154  4.852029  -0.001  1.35256  0.003756  5.339321  0.002  1.413577  0.002795  5.295697  0.001  0.336152  1.308566  0.004365  5.368156  0.002
P  P7  1  0.84448608  0.97797840  0.38265888  1  1.484097  0.001157  4.852138  -0.001  1.352628  0.003758  5.339424  0.002  1.41366  0.002798  5.29578  0.001  0.336276  1.308625  0.004367  5.368273  0.002
H  H8  1  0.72500707  0.35568805  0.00352780  1  0.124119  4.8e-05  1.00535  0.0  0.123319  -1.6e-05  1.086665  0.0  0.127498  -1e-05  1.083401  0.0  0.0892  0.120474  -2.1e-05  1.08879  0.0
H  H9  1  0.22500599  0.14428120  0.99646621  1  0.124228  5.3e-05  1.00534  0.0  0.123437  -1.6e-05  1.086643  0.0  0.127615  -1e-05  1.083378  0.0  0.089217  0.120585  -2.1e-05  1.088771  0.0
H  H10  1  0.27499178  0.64428217  0.99647457  1  0.124212  -5.3e-05  1.005274  0.0  0.123435  1.6e-05  1.08657  0.0  0.127614  1e-05  1.083307  0.0  0.089211  0.120582  2.1e-05  1.088704  0.0
H  H11  1  0.77498652  0.85567960  0.00352120  1  0.124249  -5.5e-05  1.005044  0.0  0.123475  1.6e-05  1.086317  0.0  0.127657  1e-05  1.083054  0.0  0.08923  0.120624  2.1e-05  1.088449  0.0
H  H12  1  0.01608626  0.47003242  0.29769349  1  0.146361  0.000164  0.960922  0.0  0.153216  -0.000102  1.021876  0.0  0.155244  -0.000105  1.02015  0.0  0.112971  0.151901  -9e-05  1.023094  0.0
H  H13  1  0.51608430  0.02996566  0.70230566  1  0.146384  0.000163  0.961149  0.0  0.15328  -0.000102  1.022026  0.0  0.155311  -0.000105  1.020303  0.0  0.113041  0.151963  -9e-05  1.023242  0.0
H  H14  1  0.98392146  0.52997615  0.70230491  1  0.14638  -0.000165  0.96103  0.0  0.153175  0.000102  1.022058  0.0  0.155204  0.000105  1.020339  0.0  0.112973  0.151858  9e-05  1.023274  0.0
H  H15  1  0.48392596  0.97004269  0.29769573  1  0.146366  -0.000164  0.960964  0.0  0.153224  0.000102  1.021917  0.0  0.155258  0.000105  1.020187  0.0  0.112974  0.151905  9e-05  1.023134  0.0
H  H16  1  0.86328180  0.85478290  0.63598000  1  0.437575  -0.0001  0.868588  -0.001  0.406706  0.000393  0.932984  0.0  0.419432  0.000263  0.914809  0.0  0.290951  0.39767  0.000462  0.945811  0.0
H  H17  1  0.36327900  0.64522307  0.36401973  1  0.437621  -0.000101  0.868527  -0.001  0.406736  0.000393  0.932951  0.0  0.419463  0.000263  0.914773  0.0  0.290923  0.397695  0.000462  0.945785  0.0
H  H18  1  0.13672085  0.14522305  0.36401822  1  0.437591  0.0001  0.868593  0.001  0.406707  -0.000393  0.933012  0.0  0.419435  -0.000263  0.914831  0.0  0.290946  0.397673  -0.000462  0.945837  0.0
H  H19  1  0.63671985  0.35478376  0.63598456  1  0.437586  0.000101  0.868555  0.001  0.406683  -0.000393  0.933016  0.0  0.419406  -0.000263  0.914843  0.0  0.29089  0.397647  -0.000462  0.945845  0.0
H  H20  1  0.70511963  0.77313355  0.69458184  1  0.409925  -0.000347  0.853949  -0.001  0.385084  0.000259  0.929506  0.0  0.395996  0.000108  0.917229  0.0  0.296418  0.376976  0.000373  0.938671  0.0
H  H21  1  0.20511208  0.72686641  0.30541371  1  0.409852  -0.000349  0.853971  -0.001  0.38506  0.000259  0.929405  0.0  0.395977  0.000108  0.917119  0.0  0.296423  0.376956  0.000373  0.938557  0.0
H  H22  1  0.29488302  0.22686980  0.30541618  1  0.409882  0.000347  0.853888  0.001  0.385095  -0.000259  0.929318  0.0  0.396009  -0.000108  0.917033  0.0  0.296467  0.376991  -0.000373  0.938468  0.0
H  H23  1  0.79488551  0.27314037  0.69459133  1  0.409791  0.000347  0.854064  0.001  0.384982  -0.000259  0.929539  0.0  0.395897  -0.000109  0.917257  0.0  0.296332  0.37687  -0.000374  0.938699  0.0
C  C24  1  0.74408370  0.45044204  0.25796649  1  -0.262391  -0.006151  3.73377  -0.006  -0.230207  -0.0019  3.973763  -0.002  -0.244178  -0.000901  3.997174  -0.001  -0.040813  -0.220485  -0.002928  3.958146  -0.003
C  C25  1  0.24408779  0.04956353  0.74203317  1  -0.262348  -0.00616  3.733241  -0.006  -0.230125  -0.0019  3.973122  -0.002  -0.244071  -0.000901  3.996494  -0.001  -0.040743  -0.220402  -0.002928  3.957512  -0.003
C  C26  1  0.25591642  0.54956506  0.74203406  1  -0.262414  0.006161  3.733283  0.006  -0.230172  0.0019  3.973171  0.002  -0.244133  0.000902  3.996566  0.001  -0.040753  -0.220448  0.002928  3.957557  0.003
C  C27  1  0.75591993  0.95043585  0.25796532  1  -0.262379  0.006169  3.733501  0.006  -0.230129  0.001901  3.973427  0.002  -0.244093  0.000901  3.996832  0.001  -0.040768  -0.220407  0.002928  3.957808  0.003
C  C28  1  0.65613688  0.41349588  0.16427227  1  0.115042  0.00031  3.719489  0.0  0.124321  -0.00049  3.980726  -0.001  0.12841  -0.000355  4.004488  0.0  -0.029005  0.121473  -0.000664  3.964482  -0.001
C  C29  1  0.15613493  0.08650579  0.83572863  1  0.115051  0.000334  3.719348  0.0  0.124367  -0.000489  3.980564  -0.001  0.128453  -0.000355  4.004317  0.0  -0.028999  0.121518  -0.000663  3.964324  -0.001
C  C30  1  0.34386704  0.58649000  0.83573125  1  0.115193  -0.000333  3.719742  0.0  0.124435  0.000489  3.981043  0.001  0.128523  0.000352  4.004806  0.0  -0.029036  0.121584  0.000663  3.964804  0.001
C  C31  1  0.84386519  0.91350691  0.16426707  1  0.115109  -0.000342  3.719737  0.0  0.124302  0.000489  3.981094  0.001  0.128391  0.000354  4.00485  0.0  -0.029095  0.121452  0.000663  3.964854  0.001
C  C32  1  0.75984229  0.38463147  0.08189254  1  -0.244918  -0.00237  3.725378  -0.002  -0.267449  3.7e-05  4.009505  0.0  -0.269117  0.000212  4.027019  0.0  -0.123203  -0.265836  -0.000244  3.997113  0.0
C  C33  1  0.25983822  0.11535677  0.91811037  1  -0.245101  -0.002408  3.725406  -0.002  -0.267696  3.6e-05  4.009541  0.0  -0.269368  0.000212  4.027058  0.0  -0.123237  -0.266064  -0.000244  3.997139  0.0
C  C34  1  0.24016163  0.61534837  0.91810377  1  -0.245201  0.002407  3.725349  0.002  -0.267745  -3.7e-05  4.009452  0.0  -0.269421  -0.000211  4.026975  0.0  -0.123246  -0.266113  0.000245  3.997054  0.0
C  C35  1  0.74016190  0.88461944  0.08189996  1  -0.245098  0.00242  3.725046  0.002  -0.267642  -3.7e-05  4.009273  0.0  -0.269315  -0.000211  4.026791  0.0  -0.123183  -0.266019  0.000245  3.996878  0.0
C  C36  1  0.91664799  0.44799356  0.24188459  1  -0.100945  -0.008202  3.639105  -0.008  -0.132853  -0.002069  3.918347  -0.002  -0.129557  -0.001388  3.937394  -0.001  -0.0885  -0.13477  -0.002819  3.905181  -0.003
C  C37  1  0.41667599  0.05200206  0.75812184  1  -0.101157  -0.008201  3.638784  -0.008  -0.133181  -0.00207  3.918199  -0.002  -0.129857  -0.001388  3.937155  -0.001  -0.088735  -0.135094  -0.002819  3.905033  -0.003
C  C38  1  0.08333440  0.55200408  0.75811978  1  -0.100998  0.008203  3.638738  0.008  -0.132944  0.00207  3.918129  0.002  -0.129622  0.001388  3.937098  0.001  -0.088575  -0.134856  0.00282  3.90496  0.003
C  C39  1  0.58334439  0.94801010  0.24188134  1  -0.100947  0.008192  3.638817  0.008  -0.132947  0.00207  3.918191  0.002  -0.129615  0.001388  3.93714  0.001  -0.088553  -0.134858  0.002821  3.905015  0.003
S  S40  1  0.96792600  0.40273421  0.11775554  1  0.173169  -0.002969  2.740742  -0.002  0.179804  -0.001361  3.107233  -0.001  0.176348  -0.0007  3.115196  -0.001  0.07348  0.181903  -0.002161  3.102536  -0.002
S  S41  1  0.46792105  0.09725465  0.88225264  1  0.173396  -0.002962  2.740696  -0.002  0.180044  -0.001361  3.107261  -0.001  0.176579  -0.0007  3.115232  -0.001  0.073585  0.182142  -0.00216  3.102556  -0.002
S  S42  1  0.03206145  0.59725429  0.88224817  1  0.173283  0.002962  2.740477  0.002  0.179955  0.001361  3.10693  0.001  0.176491  0.0007  3.114894  0.001  0.073541  0.182055  0.00216  3.102225  0.002
S  S43  1  0.53206007  0.90273880  0.11775518  1  0.173174  0.002964  2.740379  0.002  0.179838  0.001361  3.106877  0.001  0.176374  0.000701  3.114842  0.001  0.073479  0.181941  0.002161  3.102162  0.002
Br  Br44  1  0.41698108  0.40482442  0.14978987  1  -0.049091  0.001629  1.387308  0.001  -0.03859  0.001293  1.676311  0.001  -0.043892  0.00082  1.668459  0.001  0.05745  -0.035035  0.001717  1.682809  0.001
Br  Br45  1  0.91697123  0.09518366  0.85020769  1  -0.049058  0.00163  1.387205  0.001  -0.038571  0.001292  1.67619  0.001  -0.043879  0.00082  1.668351  0.001  0.057467  -0.03501  0.001716  1.68269  0.001
Br  Br46  1  0.58300763  0.59517371  0.85020777  1  -0.049072  -0.001631  1.387528  -0.001  -0.038554  -0.001293  1.67654  -0.001  -0.043841  -0.00082  1.668659  -0.001  0.057494  -0.034993  -0.001717  1.683037  -0.001
Br  Br47  1  0.08300989  0.90481588  0.14978855  1  -0.049083  -0.001632  1.387511  -0.001  -0.038539  -0.001293  1.67651  -0.001  -0.043862  -0.00082  1.6687  -0.001  0.057499  -0.034982  -0.001716  1.683009  -0.001
O  O48  1  0.55518323  0.65352452  0.39479487  1  -0.840933  0.053809  2.067862  0.073  -0.781601  0.036593  2.345022  0.053  -0.823691  0.028649  2.324424  0.043  -0.373474  -0.750861  0.040012  2.358995  0.056
O  O49  1  0.05518521  0.84648312  0.60520653  1  -0.840844  0.053817  2.067715  0.073  -0.781572  0.036597  2.344873  0.053  -0.823645  0.02865  2.32428  0.043  -0.373451  -0.750828  0.040013  2.358869  0.056
O  O50  1  0.44481309  0.34648019  0.60520250  1  -0.840907  -0.053819  2.067894  -0.073  -0.781567  -0.036593  2.345046  -0.053  -0.823615  -0.028649  2.32443  -0.043  -0.373438  -0.750799  -0.040011  2.35901  -0.056
O  O51  1  0.94482124  0.15352387  0.39479552  1  -0.840935  -0.053815  2.067908  -0.073  -0.7816  -0.036594  2.345052  -0.053  -0.823674  -0.028649  2.324452  -0.043  -0.373464  -0.750821  -0.040012  2.358962  -0.056
O  O52  1  0.80121140  0.48890905  0.46018069  1  -0.847389  -0.077429  2.047918  -0.102  -0.832454  -0.047631  2.395414  -0.067  -0.87176  -0.035784  2.362696  -0.052  -0.385112  -0.801333  -0.05481  2.41584  -0.075
O  O53  1  0.30121622  0.01108838  0.53982138  1  -0.847294  -0.077433  2.047882  -0.102  -0.832372  -0.047636  2.395345  -0.067  -0.871687  -0.035784  2.362649  -0.052  -0.385032  -0.801237  -0.054818  2.41576  -0.075
O  O54  1  0.19878365  0.51108870  0.53982219  1  -0.847314  0.077432  2.047919  0.102  -0.8324  0.047636  2.395389  0.067  -0.871709  0.035787  2.362679  0.052  -0.38504  -0.801264  0.054816  2.415797  0.075
O  O55  1  0.69878770  0.98890697  0.46017832  1  -0.847387  0.077427  2.048001  0.102  -0.832453  0.047632  2.395508  0.067  -0.87176  0.035786  2.362763  0.052  -0.385096  -0.801334  0.054815  2.415917  0.075
O  O56  1  0.53872933  0.32031214  0.38698739  1  -0.849578  -0.062969  2.112915  -0.085  -0.808164  -0.038063  2.43039  -0.055  -0.850409  -0.02927  2.407444  -0.044  -0.390801  -0.776783  -0.04243  2.445425  -0.059
O  O57  1  0.03872285  0.17970847  0.61300814  1  -0.849437  -0.062979  2.112893  -0.085  -0.808071  -0.038065  2.430356  -0.055  -0.850329  -0.029272  2.407435  -0.044  -0.390679  -0.776697  -0.042432  2.445391  -0.059
O  O58  1  0.46127966  0.67970719  0.61300729  1  -0.849461  0.062975  2.112935  0.085  -0.808064  0.038066  2.430369  0.055  -0.850338  0.029272  2.407452  0.044  -0.390693  -0.776705  0.042433  2.445415  0.059
O  O59  1  0.96127474  0.82030809  0.38698859  1  -0.849428  0.062971  2.11281  0.085  -0.808099  0.038065  2.430338  0.055  -0.85034  0.029271  2.40738  0.044  -0.390772  -0.776727  0.042429  2.445387  0.059
O  O60  1  0.73635637  0.86237324  0.64959222  1  -0.808681  0.048284  1.976141  0.064  -0.767998  0.040054  2.199453  0.058  -0.79781  0.031945  2.165544  0.048  -0.572116  -0.747091  0.044164  2.223987  0.061
O  O61  1  0.23635625  0.63762536  0.35040323  1  -0.808639  0.048287  1.976205  0.064  -0.76798  0.040055  2.199558  0.058  -0.797779  0.031947  2.16565  0.048  -0.572103  -0.747063  0.044164  2.224097  0.061
O  O62  1  0.26364121  0.13763011  0.35040580  1  -0.808663  -0.048279  1.976225  -0.064  -0.767999  -0.04005  2.199585  -0.058  -0.797797  -0.031942  2.165687  -0.048  -0.572171  -0.747077  -0.044161  2.224106  -0.061
O  O63  1  0.76364767  0.36237891  0.64960012  1  -0.808599  -0.048286  1.976234  -0.064  -0.7679  -0.040057  2.199556  -0.058  -0.797698  -0.031947  2.165655  -0.048  -0.572001  -0.746979  -0.044167  2.224075  -0.061
