# generated using pymatgen
data_Mn3H40C48(NO10)2
_symmetry_space_group_name_H-M   'P 1'
_cell_length_a   9.17723895
_cell_length_b   17.25437663
_cell_length_c   17.25440429
_cell_angle_alpha   75.25842306
_cell_angle_beta   78.74996751
_cell_angle_gamma   78.74851331
_symmetry_Int_Tables_number   1
_chemical_formula_structural   Mn3H40C48(NO10)2
_chemical_formula_sum   'Mn6 H80 C96 N4 O40'
_cell_volume   2560.82638283
_cell_formula_units_Z   2
loop_
 _symmetry_equiv_pos_site_id
 _symmetry_equiv_pos_as_xyz
  1  'x, y, z'
loop_
 _atom_site_type_symbol
 _atom_site_label
 _atom_site_symmetry_multiplicity
 _atom_site_fract_x
 _atom_site_fract_y
 _atom_site_fract_z
 _atom_site_occupancy
 _atom_site_pbe_bader_charge
 _atom_site_pbe_bader_spin_density
 _atom_site_pbe_cm5_charge
 _atom_site_pbe_ddec_charge
 _atom_site_pbe_ddec_spin_density
 _atom_site_pbe_ddec_sum_bond_order
 _atom_site_pbe_magmom
Mn  Mn0  1  0.44567412  0.18624072  0.31067351  1  1.534961  4.527903  0.610569  1.05038  4.64547  2.343299  4.454
Mn  Mn1  1  0.05435851  0.68934230  0.81372066  1  1.53492  4.527927  0.610511  1.050356  4.645696  2.343326  4.454
Mn  Mn2  1  0.55432218  0.81368137  0.68935335  1  1.535089  4.527894  0.610485  1.050428  4.64582  2.343214  4.454
Mn  Mn3  1  0.94566313  0.31069960  0.18623700  1  1.534921  4.527959  0.610606  1.050652  4.645682  2.342883  4.454
Mn  Mn4  1  0.50014019  0.99980241  0.50006053  1  1.561581  4.560171  0.6263  1.093916  4.690696  2.212194  4.479
Mn  Mn5  1  0.00007958  0.50000772  0.99990271  1  1.562088  4.560058  0.626245  1.093831  4.690336  2.2121  4.479
H  H6  1  0.41729291  0.83375480  0.38818502  1  0.094136  0.000309  0.112021  0.134371  -0.000163  1.001836  0.0
H  H7  1  0.08269557  0.61181207  0.16624049  1  0.094242  0.000309  0.111979  0.134323  -0.000162  1.001844  0.0
H  H8  1  0.58268900  0.16623424  0.61181259  1  0.094375  0.000309  0.112038  0.134344  -0.000162  1.001789  0.0
H  H9  1  0.91730442  0.38819410  0.83375208  1  0.094084  0.000309  0.111937  0.134205  -0.000163  1.001829  0.0
H  H10  1  0.43144416  0.78338468  0.15399502  1  0.090637  0.000138  0.111331  0.140874  9.4e-05  1.01184  0.0
H  H11  1  0.06849830  0.84600554  0.21661526  1  0.090093  0.000138  0.11128  0.140714  9.4e-05  1.012121  0.0
H  H12  1  0.56848689  0.21660341  0.84600676  1  0.090041  0.000138  0.111335  0.140783  9.4e-05  1.012025  0.0
H  H13  1  0.93143739  0.15401110  0.78338250  1  0.090457  0.000138  0.111385  0.14095  9.4e-05  1.011955  0.0
H  H14  1  0.41011345  0.02938440  0.17505180  1  0.108091  0.000265  0.106814  0.129822  -0.000146  1.040921  0.0
H  H15  1  0.08990491  0.82494814  0.97061437  1  0.108087  0.000265  0.106819  0.129844  -0.000146  1.040831  0.0
H  H16  1  0.58989382  0.97060124  0.82493918  1  0.107719  0.000265  0.106849  0.129787  -0.000146  1.041033  0.0
H  H17  1  0.91011138  0.17505988  0.02938289  1  0.108199  0.000265  0.106859  0.12981  -0.000146  1.040882  0.0
H  H18  1  0.69365922  0.84793347  0.07516210  1  0.091683  5.1e-05  0.102757  0.114092  -1.1e-05  1.009441  0.0
H  H19  1  0.80632097  0.92485353  0.15207284  1  0.091977  5.1e-05  0.102694  0.113957  -1.1e-05  1.009504  0.0
H  H20  1  0.30631411  0.15206373  0.92485534  1  0.091767  5.1e-05  0.102699  0.114012  -1.1e-05  1.009489  0.0
H  H21  1  0.19364722  0.07516683  0.84793198  1  0.092224  5.1e-05  0.102753  0.114084  -1.1e-05  1.009361  0.0
H  H22  1  0.81357818  0.76557501  0.97305633  1  0.11841  0.000166  0.108828  0.113278  -0.0005  1.019928  0.0
H  H23  1  0.68642653  0.02697080  0.23442505  1  0.118459  0.000165  0.108783  0.113264  -0.0005  1.020063  0.0
H  H24  1  0.18643506  0.23443029  0.02696164  1  0.11795  0.000166  0.108821  0.113329  -0.0005  1.020058  0.0
H  H25  1  0.31356843  0.97305333  0.76558108  1  0.118615  0.000166  0.108858  0.113407  -0.0005  1.019808  0.0
H  H26  1  0.42138929  0.83999413  0.85520857  1  0.103187  0.000377  0.109012  0.101561  0.000323  1.040851  0.0
H  H27  1  0.07860984  0.14480432  0.15999160  1  0.102538  0.000377  0.109  0.101585  0.000322  1.040888  0.0
H  H28  1  0.57864515  0.15999094  0.14479111  1  0.102978  0.000378  0.109019  0.101452  0.000323  1.041054  0.0
H  H29  1  0.92139142  0.85520544  0.84000516  1  0.102777  0.000377  0.109005  0.101533  0.000322  1.040952  0.0
H  H30  1  0.30028041  0.92258595  0.95760283  1  0.114946  4.9e-05  0.105256  0.122117  -3.3e-05  1.036584  0.0
H  H31  1  0.19971463  0.04240125  0.07740119  1  0.115005  5e-05  0.105223  0.122126  -3.3e-05  1.036447  0.0
H  H32  1  0.69971777  0.07740025  0.04238787  1  0.115126  5e-05  0.105274  0.122222  -3.3e-05  1.036554  0.0
H  H33  1  0.80027597  0.95760302  0.92259347  1  0.114937  5e-05  0.105231  0.122106  -3.3e-05  1.036468  0.0
H  H34  1  0.69339611  0.72605811  0.20679138  1  0.056963  4.3e-05  0.100805  0.111719  1.3e-05  1.030094  0.0
H  H35  1  0.80656479  0.79321862  0.27394259  1  0.056171  4.3e-05  0.100896  0.111769  1.3e-05  1.030293  0.0
H  H36  1  0.30656672  0.27393771  0.79323395  1  0.056615  4.3e-05  0.100873  0.111751  1.3e-05  1.030332  0.0
H  H37  1  0.19338632  0.20679869  0.72605618  1  0.056744  4.3e-05  0.100804  0.111699  1.3e-05  1.030072  0.0
H  H38  1  0.84179073  0.60856060  0.15387722  1  0.138746  0.000192  0.106614  0.109866  -0.000383  1.030975  0.0
H  H39  1  0.65819245  0.84613828  0.39142625  1  0.138049  0.000191  0.106546  0.109673  -0.000384  1.031301  0.0
H  H40  1  0.15820657  0.39142814  0.84614889  1  0.137641  0.000191  0.106633  0.109847  -0.000383  1.031159  0.0
H  H41  1  0.34177442  0.15387799  0.60856697  1  0.13843  0.000192  0.106632  0.109859  -0.000383  1.031116  0.0
H  H42  1  0.50205625  0.46208410  0.28075407  1  0.108795  0.000787  0.10342  0.102786  0.00026  1.030187  0.0
H  H43  1  0.99792961  0.71925998  0.53790562  1  0.109239  0.000787  0.103387  0.102722  0.00026  1.030174  0.0
H  H44  1  0.49792209  0.53790296  0.71925370  1  0.108952  0.000788  0.10338  0.102648  0.000261  1.030152  0.0
H  H45  1  0.00203002  0.28075443  0.46208770  1  0.109044  0.000787  0.103435  0.102743  0.00026  1.030302  0.0
H  H46  1  0.34874798  0.58092178  0.33052339  1  0.110371  5.4e-05  0.1086  0.125142  7e-06  0.99602  0.0
H  H47  1  0.15122389  0.66947858  0.41907612  1  0.110845  5.4e-05  0.108583  0.125047  7e-06  0.996065  0.0
H  H48  1  0.65121011  0.41906474  0.66947170  1  0.110849  5.4e-05  0.108583  0.12507  7e-06  0.996122  0.0
H  H49  1  0.84873442  0.33052969  0.58092291  1  0.110212  5.4e-05  0.10855  0.125146  7e-06  0.995986  0.0
H  H50  1  0.06421390  0.07524480  0.62824018  1  0.084315  0.000382  0.105624  0.124214  -6e-05  1.037784  0.0
H  H51  1  0.43588289  0.37173070  0.92475346  1  0.084164  0.000382  0.105432  0.123901  -6e-05  1.037925  0.0
H  H52  1  0.93588411  0.92475507  0.37172270  1  0.084019  0.000382  0.105433  0.123913  -6e-05  1.0379  0.0
H  H53  1  0.56419561  0.62825275  0.07524981  1  0.084007  0.000383  0.105568  0.124156  -6e-05  1.037837  0.0
H  H54  1  0.92166232  0.02105622  0.69354092  1  0.092032  0.000414  0.101749  0.118721  0.000218  1.009718  0.0
H  H55  1  0.57842647  0.30644257  0.97895869  1  0.092436  0.000416  0.101711  0.118768  0.000218  1.009657  0.0
H  H56  1  0.07842414  0.97896098  0.30643467  1  0.092213  0.000416  0.101746  0.118786  0.000219  1.009821  0.0
H  H57  1  0.42163198  0.69355329  0.02105944  1  0.091703  0.000415  0.101822  0.118852  0.000218  1.009799  0.0
H  H58  1  0.89413732  0.07293743  0.59283933  1  0.059553  0.000616  0.102295  0.116862  0.00024  0.995772  0.0
H  H59  1  0.60593569  0.40714448  0.92707636  1  0.058556  0.000618  0.102305  0.116787  0.000241  0.995921  0.0
H  H60  1  0.10594503  0.92707854  0.40713586  1  0.058519  0.000619  0.102254  0.116797  0.000242  0.99587  0.0
H  H61  1  0.39411724  0.59285133  0.07294298  1  0.059205  0.000616  0.102298  0.116951  0.00024  0.995723  0.0
H  H62  1  0.02330485  0.85413423  0.58347495  1  0.034257  0.000362  0.109583  0.12297  -3.3e-05  1.003866  0.0
H  H63  1  0.47666773  0.41652927  0.14587212  1  0.033989  0.000362  0.109589  0.122874  -3.4e-05  1.003993  0.0
H  H64  1  0.97665793  0.14587717  0.41651876  1  0.033952  0.000361  0.109585  0.122894  -3.4e-05  1.003968  0.0
H  H65  1  0.52330238  0.58347825  0.85414200  1  0.034532  0.000362  0.109598  0.12295  -3.4e-05  1.00386  0.0
H  H66  1  0.86668038  0.93355107  0.56727749  1  0.063559  0.00066  0.105062  0.121922  -0.000126  1.015541  0.0
H  H67  1  0.63332451  0.43272128  0.06647351  1  0.063902  0.000663  0.104977  0.121862  -0.000125  1.015383  0.0
H  H68  1  0.13332420  0.06647692  0.43271619  1  0.064098  0.000664  0.105023  0.12192  -0.000124  1.015225  0.0
H  H69  1  0.36666792  0.56728376  0.93355438  1  0.063388  0.000661  0.10508  0.12191  -0.000126  1.015549  0.0
H  H70  1  0.90126871  0.88469199  0.66744542  1  0.096877  0.000547  0.11076  0.135363  -7.9e-05  0.991729  0.0
H  H71  1  0.59872855  0.33254890  0.11533970  1  0.097863  0.000548  0.110765  0.135353  -7.8e-05  0.991419  0.0
H  H72  1  0.09872721  0.11534207  0.33254369  1  0.097719  0.000548  0.110762  0.135335  -7.8e-05  0.991558  0.0
H  H73  1  0.40125136  0.66745360  0.88469137  1  0.097668  0.000547  0.110801  0.13538  -7.9e-05  0.991604  0.0
H  H74  1  0.23704213  0.89496301  0.55600988  1  0.126323  0.001533  0.131478  0.055184  0.000694  0.972831  0.0
H  H75  1  0.26292616  0.44397857  0.10500016  1  0.126911  0.001531  0.13148  0.055256  0.000692  0.9728  0.0
H  H76  1  0.76291634  0.10500197  0.44396551  1  0.126435  0.001529  0.131467  0.055315  0.000689  0.972755  0.0
H  H77  1  0.73704128  0.55601661  0.89498481  1  0.127122  0.001531  0.131537  0.055306  0.000692  0.972827  0.0
H  H78  1  0.59635311  0.33052496  0.28860721  1  0.668091  0.001127  0.301336  0.398116  1.7e-05  0.928711  0.001
H  H79  1  0.90363218  0.71139778  0.66949196  1  0.667759  0.00113  0.301401  0.398164  2e-05  0.928613  0.001
H  H80  1  0.40364584  0.66949369  0.71140271  1  0.667831  0.001132  0.301391  0.39823  2.1e-05  0.928527  0.001
H  H81  1  0.09635657  0.28861156  0.33053065  1  0.667689  0.00113  0.301327  0.398128  1.9e-05  0.928678  0.001
H  H82  1  0.55262120  0.29145503  0.37982520  1  0.59849  0.001591  0.325867  0.398758  0.000892  0.879342  0.001
H  H83  1  0.94740115  0.62018110  0.70856895  1  0.598353  0.001594  0.326018  0.398864  0.000895  0.879126  0.001
H  H84  1  0.44738186  0.70857577  0.62018419  1  0.598364  0.001597  0.326037  0.398914  0.000897  0.879034  0.001
H  H85  1  0.05261833  0.37982858  0.29144087  1  0.598465  0.001591  0.325866  0.398668  0.000892  0.879484  0.001
C  C86  1  0.40494226  0.99899904  0.33631715  1  1.57714  0.023129  0.228436  0.596614  0.022353  4.173772  0.02
C  C87  1  0.09508133  0.66368466  0.00098134  1  1.577827  0.02306  0.228439  0.596816  0.022299  4.173144  0.02
C  C88  1  0.59508124  0.00097080  0.66368458  1  1.577877  0.023049  0.228346  0.596558  0.02229  4.173329  0.02
C  C89  1  0.90495604  0.33631464  0.99899830  1  1.577213  0.023124  0.228515  0.596705  0.022351  4.173716  0.02
C  C90  1  0.41106545  0.93781896  0.28659397  1  -0.074489  0.003179  -0.016953  -0.002741  0.001741  4.004262  0.001
C  C91  1  0.08892549  0.71340330  0.06217463  1  -0.074664  0.00318  -0.017053  -0.002841  0.001744  4.003821  0.001
C  C92  1  0.58891789  0.06216890  0.71340203  1  -0.064741  0.003176  -0.016966  -0.002874  0.001742  4.004032  0.001
C  C93  1  0.91107489  0.28659801  0.93781908  1  -0.074751  0.003177  -0.017003  -0.003022  0.001738  4.004542  0.001
C  C94  1  0.41828079  0.85486189  0.32305193  1  0.08567  0.004659  -0.102483  -0.236971  0.003498  3.962526  0.003
C  C95  1  0.08170368  0.67694340  0.14513348  1  0.08591  0.004648  -0.102365  -0.236815  0.003489  3.961797  0.003
C  C96  1  0.58169569  0.14512290  0.67694443  1  0.07525  0.004651  -0.102302  -0.236478  0.003488  3.962128  0.003
C  C97  1  0.91828631  0.32305907  0.85485995  1  0.085694  0.00466  -0.102364  -0.236625  0.003498  3.96218  0.003
C  C98  1  0.42815774  0.80013327  0.27434533  1  0.345727  -0.000336  0.080455  0.275631  -0.000516  4.067521  -0.001
C  C99  1  0.07180240  0.72565750  0.19986247  1  0.345869  -0.000334  0.080452  0.275716  -0.000513  4.06706  -0.001
C  C100  1  0.57178625  0.19984937  0.72566156  1  0.345584  -0.000334  0.080443  0.275569  -0.000512  4.067389  -0.001
C  C101  1  0.92816492  0.27435389  0.80013363  1  0.345486  -0.000336  0.080553  0.275718  -0.000516  4.067518  -0.001
C  C102  1  0.42808123  0.82645779  0.19089411  1  0.054903  0.004847  -0.114455  -0.332821  0.003879  4.005055  0.003
C  C103  1  0.07187022  0.80910517  0.17354320  1  0.05584  0.00483  -0.114425  -0.33273  0.003867  4.005166  0.003
C  C104  1  0.57185420  0.17353035  0.80910542  1  0.057096  0.004828  -0.114447  -0.33276  0.003865  4.005249  0.003
C  C105  1  0.92808009  0.19090367  0.82645484  1  0.055796  0.004845  -0.114586  -0.33305  0.003879  4.005386  0.003
C  C106  1  0.42380496  0.90905432  0.15589710  1  0.376639  -0.000372  0.082776  0.276284  -0.000515  4.068011  -0.001
C  C107  1  0.07617014  0.84410859  0.09094632  1  0.376145  -0.000369  0.082839  0.276342  -0.000512  4.068019  -0.001
C  C108  1  0.57615397  0.09093026  0.84410706  1  0.374512  -0.000368  0.082832  0.276391  -0.000511  4.067591  -0.001
C  C109  1  0.92379645  0.15590522  0.90904985  1  0.376075  -0.000373  0.082855  0.276243  -0.000516  4.067941  -0.001
C  C110  1  0.41411516  0.96512700  0.20286082  1  0.030789  0.004653  -0.103529  -0.232689  0.003349  3.963304  0.003
C  C111  1  0.08587628  0.79713735  0.03487179  1  0.031288  0.00464  -0.103517  -0.232647  0.003339  3.962956  0.003
C  C112  1  0.58586344  0.03485837  0.79713806  1  0.032575  0.004636  -0.10365  -0.232664  0.003336  3.963306  0.003
C  C113  1  0.91411559  0.20287050  0.96512706  1  0.030688  0.004654  -0.103513  -0.232497  0.003349  3.963179  0.003
C  C114  1  0.48977539  0.88921067  0.02151066  1  0.396145  0.007355  0.086459  0.26398  0.005998  4.033615  0.005
C  C115  1  0.01020933  0.97849720  0.11078483  1  0.366086  0.007371  0.086429  0.263779  0.006001  4.033735  0.005
C  C116  1  0.51020539  0.11078254  0.97849128  1  0.365288  0.007376  0.08651  0.26411  0.006005  4.033443  0.005
C  C117  1  0.98976668  0.02151485  0.88921071  1  0.396232  0.007358  0.086399  0.263776  0.006  4.033423  0.005
C  C118  1  0.63419294  0.84543075  0.02721618  1  -0.051489  -0.001729  -0.101874  -0.206695  -0.001745  4.002908  -0.001
C  C119  1  0.86579917  0.97280119  0.15456194  1  -0.022156  -0.001743  -0.101881  -0.206521  -0.001746  4.002824  -0.001
C  C120  1  0.36579825  0.15456236  0.97279795  1  -0.021885  -0.001743  -0.101881  -0.206675  -0.001747  4.003112  -0.001
C  C121  1  0.13418041  0.02721754  0.84543389  1  -0.052474  -0.00173  -0.101837  -0.206589  -0.001746  4.00275  -0.001
C  C122  1  0.70095148  0.79974431  0.97044302  1  -0.034401  0.007587  -0.078544  -0.058292  0.005551  3.957535  0.005
C  C123  1  0.79904514  0.02957986  0.20024853  1  -0.034128  0.007593  -0.078427  -0.058308  0.005556  3.95729  0.005
C  C124  1  0.29905309  0.20025250  0.02957161  1  -0.033309  0.007598  -0.078535  -0.058404  0.00556  3.957527  0.005
C  C125  1  0.20094084  0.97044007  0.79975035  1  -0.034496  0.007591  -0.07852  -0.058449  0.005554  3.957694  0.005
C  C126  1  0.62496982  0.79785463  0.90791971  1  -0.009127  -0.000538  -0.026785  -0.078735  -0.00162  3.999173  -0.002
C  C127  1  0.87504084  0.09209811  0.20213366  1  -0.009113  -0.00054  -0.026806  -0.078782  -0.001623  3.999137  -0.002
C  C128  1  0.37504836  0.20214109  0.09209193  1  -0.009737  -0.000541  -0.026834  -0.078894  -0.001624  3.998783  -0.002
C  C129  1  0.12495954  0.90792194  0.79786301  1  -0.008728  -0.000539  -0.026889  -0.078819  -0.001622  3.99918  -0.002
C  C130  1  0.48005983  0.84160943  0.90371519  1  -0.064785  0.008437  -0.077979  -0.067566  0.006507  3.983098  0.005
C  C131  1  0.01993848  0.09630120  0.15837483  1  -0.063908  0.008442  -0.077921  -0.067395  0.006511  3.983038  0.005
C  C132  1  0.51995914  0.15837551  0.09628799  1  -0.072524  0.008442  -0.07796  -0.067235  0.00651  3.983194  0.005
C  C133  1  0.98005608  0.90371217  0.84162064  1  -0.064406  0.008438  -0.077964  -0.067533  0.006509  3.983333  0.005
C  C134  1  0.41210903  0.88759658  0.96023488  1  -0.007079  -0.001697  -0.100093  -0.197774  -0.001715  3.978384  -0.001
C  C135  1  0.08787511  0.03977280  0.11239170  1  -0.006883  -0.001699  -0.100086  -0.197823  -0.001718  3.978323  -0.001
C  C136  1  0.58788902  0.11239126  0.03976876  1  0.001849  -0.001701  -0.100125  -0.198007  -0.001718  3.978657  -0.001
C  C137  1  0.91211339  0.96023452  0.88760071  1  -0.00691  -0.001698  -0.099992  -0.197647  -0.001716  3.978573  -0.001
C  C138  1  0.69977524  0.74967285  0.84678512  1  1.555617  0.040386  0.226315  0.602196  0.039164  4.193681  0.035
C  C139  1  0.80026244  0.15322789  0.25031672  1  1.555123  0.04041  0.226092  0.601963  0.039174  4.194662  0.035
C  C140  1  0.30025923  0.25032055  0.15322585  1  1.555398  0.040419  0.225963  0.601921  0.039183  4.19468  0.035
C  C141  1  0.19976407  0.84678321  0.74968096  1  1.555661  0.040409  0.226343  0.602322  0.039185  4.193603  0.035
C  C142  1  0.51321884  0.65952022  0.27359992  1  0.419046  0.003392  0.088583  0.268608  0.00275  4.029434  0.002
C  C143  1  0.98675129  0.72640152  0.34047401  1  0.420426  0.003412  0.088734  0.268709  0.002767  4.029453  0.002
C  C144  1  0.48674774  0.34046499  0.72640555  1  0.420687  0.003406  0.088961  0.269017  0.002762  4.029209  0.002
C  C145  1  0.01321309  0.27360498  0.65952361  1  0.419138  0.00338  0.088712  0.26882  0.002741  4.029513  0.002
C  C146  1  0.65089346  0.66850410  0.22262250  1  0.007044  -0.000737  -0.105998  -0.214671  -0.000701  3.993808  -0.001
C  C147  1  0.84906329  0.77738989  0.33149377  1  0.007343  -0.000743  -0.106044  -0.214574  -0.000707  3.994264  -0.001
C  C148  1  0.34906608  0.33148751  0.77739959  1  0.007396  -0.000742  -0.106067  -0.214619  -0.000705  3.994125  -0.001
C  C149  1  0.15088518  0.22262500  0.66850415  1  0.006901  -0.000733  -0.106078  -0.214769  -0.000697  3.994202  -0.001
C  C150  1  0.73449366  0.60260442  0.19329849  1  -0.1064  0.004065  -0.077574  -0.058331  0.002702  3.962342  0.003
C  C151  1  0.76547626  0.80672025  0.39738262  1  -0.105877  0.004079  -0.077432  -0.057996  0.002712  3.962603  0.003
C  C152  1  0.26548132  0.39738059  0.80672580  1  -0.105407  0.004075  -0.077507  -0.058154  0.002709  3.962469  0.003
C  C153  1  0.23447898  0.19329722  0.60260638  1  -0.106466  0.004053  -0.07768  -0.058407  0.002693  3.962691  0.003
C  C154  1  0.68384306  0.52725463  0.21481889  1  -0.029134  -0.001599  -0.027396  -0.064244  -0.002951  3.997982  -0.002
C  C155  1  0.81614661  0.78520077  0.47273802  1  -0.02878  -0.001602  -0.027407  -0.064487  -0.002955  3.998154  -0.002
C  C156  1  0.31614970  0.47273724  0.78519827  1  -0.028657  -0.001602  -0.027382  -0.064693  -0.002955  3.998275  -0.002
C  C157  1  0.18383226  0.21481620  0.52725368  1  -0.028559  -0.001595  -0.027317  -0.064008  -0.002946  3.99717  -0.002
C  C158  1  0.54348181  0.52007900  0.26398936  1  -0.014589  0.004576  -0.081712  -0.06936  0.003435  3.981958  0.003
C  C159  1  0.95649562  0.73602021  0.47991586  1  -0.015198  0.004597  -0.081712  -0.069345  0.003451  3.982011  0.003
C  C160  1  0.45649511  0.47991236  0.73601404  1  -0.01481  0.004592  -0.081686  -0.068958  0.003447  3.981773  0.003
C  C161  1  0.04346538  0.26398994  0.52008008  1  -0.015659  0.004563  -0.08167  -0.069296  0.003425  3.98183  0.003
C  C162  1  0.45786122  0.58581415  0.29263065  1  -0.050171  -0.000731  -0.100445  -0.198006  -0.00074  3.987867  -0.001
C  C163  1  0.04210998  0.70736769  0.41418566  1  -0.051283  -0.000736  -0.100463  -0.197873  -0.000745  3.987702  -0.001
C  C164  1  0.54210222  0.41417665  0.70736337  1  -0.051837  -0.000734  -0.100637  -0.198314  -0.000744  3.98783  -0.001
C  C165  1  0.95784654  0.29263569  0.58581592  1  -0.049424  -0.000728  -0.100596  -0.198299  -0.000738  3.988012  -0.001
C  C166  1  0.78138089  0.45493104  0.19087102  1  1.516812  0.01742  0.213886  0.57231  0.01767  4.174701  0.014
C  C167  1  0.71862680  0.80915427  0.54505754  1  1.516788  0.017525  0.214146  0.572375  0.01777  4.174254  0.014
C  C168  1  0.21863513  0.54505789  0.80914889  1  1.516693  0.017495  0.213971  0.572566  0.017734  4.174244  0.014
C  C169  1  0.28138777  0.19087220  0.45491858  1  1.517864  0.017363  0.213726  0.571949  0.017623  4.174909  0.014
C  C170  1  0.97857396  0.03820750  0.63088670  1  0.245299  0.000419  -0.135289  -0.264123  0.000267  3.863326  0.0
C  C171  1  0.52148754  0.36910019  0.96180198  1  0.246575  0.000418  -0.135098  -0.263773  0.000267  3.863662  0.0
C  C172  1  0.02148876  0.96180713  0.36908927  1  0.246773  0.000418  -0.135135  -0.26395  0.000267  3.863663  0.0
C  C173  1  0.47855569  0.63089749  0.03820986  1  0.246725  0.000419  -0.135266  -0.264311  0.000267  3.863722  0.0
C  C174  1  0.95489232  0.90615853  0.60503448  1  0.301983  0.001008  -0.137367  -0.284508  0.000443  3.905838  0.0
C  C175  1  0.54508884  0.39496767  0.09385609  1  0.301189  0.001008  -0.137281  -0.284312  0.000444  3.905805  0.0
C  C176  1  0.04508468  0.09386086  0.39495626  1  0.301309  0.001007  -0.137351  -0.284449  0.000443  3.905734  0.0
C  C177  1  0.45489260  0.60503984  0.90616430  1  0.300882  0.001008  -0.137403  -0.284525  0.000443  3.905792  0.0
C  C178  1  0.19719334  0.95249434  0.57572953  1  1.370492  0.007891  0.186204  0.315742  0.008029  4.083568  0.007
C  C179  1  0.30282244  0.42425911  0.04748008  1  1.370756  0.007905  0.186308  0.316047  0.00805  4.083812  0.007
C  C180  1  0.80281450  0.04748425  0.42424571  1  1.372039  0.007915  0.186097  0.315635  0.00806  4.083832  0.007
C  C181  1  0.69719092  0.57573933  0.95250825  1  1.37008  0.007898  0.186053  0.315628  0.008036  4.083486  0.007
N  N182  1  0.04997499  0.96543118  0.60221555  1  -1.236487  0.010542  -0.279193  0.02761  0.007836  3.723417  0.008
N  N183  1  0.45005906  0.39777062  0.03456861  1  -1.237119  0.010563  -0.279293  0.027384  0.007853  3.723502  0.008
N  N184  1  0.95005709  0.03457055  0.39776061  1  -1.237584  0.010569  -0.27914  0.027783  0.007857  3.723111  0.008
N  N185  1  0.54996349  0.60222516  0.96544021  1  -1.236979  0.010544  -0.279313  0.027633  0.007838  3.723534  0.008
O  O186  1  0.40616518  0.97147678  0.41224201  1  -1.216032  0.06472  -0.3183  -0.594367  0.044823  2.366685  0.027
O  O187  1  0.09386871  0.58775993  0.02848655  1  -1.216599  0.064696  -0.318151  -0.59426  0.044782  2.366514  0.027
O  O188  1  0.59387206  0.02848464  0.58776139  1  -1.216429  0.064687  -0.318165  -0.594154  0.044786  2.366711  0.027
O  O189  1  0.90617344  0.41224026  0.97147437  1  -1.216118  0.064771  -0.318302  -0.594312  0.044829  2.366653  0.027
O  O190  1  0.39806867  0.07297788  0.29922779  1  -1.193598  0.070424  -0.303958  -0.566773  0.051923  2.335466  0.035
O  O191  1  0.10197559  0.70078441  0.92700301  1  -1.193987  0.070379  -0.30387  -0.567023  0.051896  2.334943  0.035
O  O192  1  0.60198146  0.92698903  0.70077805  1  -1.1938  0.070327  -0.303816  -0.56694  0.05187  2.334644  0.035
O  O193  1  0.89809237  0.29923145  0.07297439  1  -1.19357  0.070423  -0.304061  -0.566878  0.051929  2.335552  0.035
O  O194  1  0.42129093  0.93900872  0.07391242  1  -1.103745  0.001588  -0.145556  -0.20704  0.001  2.593877  0.001
O  O195  1  0.07869663  0.92608570  0.06099406  1  -1.103584  0.001587  -0.145647  -0.207103  0.001  2.594205  0.001
O  O196  1  0.57868911  0.06098328  0.92608990  1  -1.103721  0.001589  -0.145585  -0.20721  0.001001  2.593935  0.001
O  O197  1  0.92127453  0.07392444  0.93900655  1  -1.103804  0.001588  -0.145642  -0.206926  0.001  2.593699  0.001
O  O198  1  0.83326974  0.71405292  0.85368214  1  -1.224412  0.083229  -0.322578  -0.595493  0.058582  2.469039  0.035
O  O199  1  0.66678550  0.14632660  0.28595828  1  -1.223733  0.083199  -0.322398  -0.595232  0.058569  2.469519  0.035
O  O200  1  0.16677585  0.28595981  0.14633736  1  -1.224053  0.083249  -0.322254  -0.595246  0.058584  2.469558  0.035
O  O201  1  0.33325623  0.85368374  0.71405701  1  -1.224362  0.08324  -0.322589  -0.595543  0.058586  2.469083  0.035
O  O202  1  0.62776736  0.74381123  0.79296076  1  -1.211412  0.085512  -0.322532  -0.572015  0.059556  2.365761  0.04
O  O203  1  0.87227221  0.20706864  0.25615374  1  -1.211864  0.085412  -0.322504  -0.572076  0.059515  2.365479  0.04
O  O204  1  0.37229811  0.25615745  0.20705453  1  -1.211772  0.085449  -0.322523  -0.57201  0.059521  2.365685  0.04
O  O205  1  0.12775941  0.79295307  0.74382280  1  -1.21145  0.085479  -0.322494  -0.571998  0.059536  2.365518  0.04
O  O206  1  0.42949890  0.71885069  0.31195843  1  -1.0865  0.000916  -0.151314  -0.211735  0.00061  2.54816  0.001
O  O207  1  0.07047016  0.68804268  0.28114735  1  -1.086751  0.000923  -0.151199  -0.211723  0.000615  2.548102  0.001
O  O208  1  0.57045301  0.28113869  0.68804592  1  -1.086811  0.000922  -0.151387  -0.211856  0.000614  2.548001  0.001
O  O209  1  0.92950520  0.31197175  0.71885058  1  -1.086475  0.000913  -0.151364  -0.211766  0.000607  2.548221  0.001
O  O210  1  0.91019552  0.45999155  0.14659313  1  -1.211433  0.071907  -0.298563  -0.592522  0.056227  2.236785  0.034
O  O211  1  0.58981018  0.85346156  0.53998488  1  -1.211608  0.072177  -0.298843  -0.592959  0.056406  2.238097  0.034
O  O212  1  0.08981767  0.53999404  0.85344879  1  -1.211462  0.072108  -0.298693  -0.592786  0.056333  2.237572  0.034
O  O213  1  0.41019281  0.14660667  0.45998870  1  -1.211938  0.071795  -0.29854  -0.592256  0.056107  2.236654  0.034
O  O214  1  0.73742868  0.38529716  0.21957823  1  -1.186884  0.058452  -0.304344  -0.564152  0.040559  2.30677  0.027
O  O215  1  0.76253269  0.78043626  0.61469778  1  -1.187056  0.058556  -0.304181  -0.563737  0.040609  2.30664  0.027
O  O216  1  0.26256095  0.61469718  0.78043346  1  -1.187068  0.058506  -0.304319  -0.564082  0.040598  2.306439  0.027
O  O217  1  0.23742579  0.21957710  0.38528317  1  -1.187238  0.058416  -0.304304  -0.564054  0.040536  2.306343  0.027
O  O218  1  0.51469751  0.30601415  0.32835984  1  -1.257151  0.043102  -0.559007  -0.753244  0.031666  2.02407  0.02
O  O219  1  0.98530595  0.67165053  0.69399753  1  -1.256613  0.043155  -0.559057  -0.753268  0.031706  2.02405  0.02
O  O220  1  0.48530660  0.69400212  0.67164951  1  -1.256797  0.043247  -0.55899  -0.753305  0.031749  2.024143  0.02
O  O221  1  0.01469945  0.32836097  0.30600647  1  -1.256772  0.043112  -0.559023  -0.753198  0.031673  2.02425  0.02
O  O222  1  0.28569361  0.00073035  0.57266173  1  -1.189584  0.056591  -0.292508  -0.469508  0.038166  2.40354  0.023
O  O223  1  0.21440086  0.42732228  0.99921765  1  -1.190421  0.056585  -0.292438  -0.469471  0.038169  2.404385  0.023
O  O224  1  0.71439407  0.99922279  0.42730329  1  -1.190573  0.056524  -0.292312  -0.46936  0.038162  2.404448  0.023
O  O225  1  0.78568270  0.57267386  0.00074602  1  -1.18978  0.056591  -0.292389  -0.469491  0.038156  2.403637  0.023
