# generated using pymatgen
data_AlH5C13Br2NClO5
_symmetry_space_group_name_H-M   'P 1'
_cell_length_a   6.62662369
_cell_length_b   11.10175121
_cell_length_c   16.97134760
_cell_angle_alpha   84.21079788
_cell_angle_beta   82.31679241
_cell_angle_gamma   73.64559840
_symmetry_Int_Tables_number   1
_chemical_formula_structural   AlH5C13Br2NClO5
_chemical_formula_sum   'Al2 H10 C26 Br4 N2 Cl2 O10'
_cell_volume   1184.63335452
_cell_formula_units_Z   2
loop_
 _symmetry_equiv_pos_site_id
 _symmetry_equiv_pos_as_xyz
  1  'x, y, z'
loop_
 _atom_site_type_symbol
 _atom_site_label
 _atom_site_symmetry_multiplicity
 _atom_site_fract_x
 _atom_site_fract_y
 _atom_site_fract_z
 _atom_site_occupancy
 _atom_site_pbe_bader_charge
 _atom_site_pbe_bader_spin_density
 _atom_site_pbe_cm5_charge
 _atom_site_pbe_ddec_charge
 _atom_site_pbe_ddec_spin_density
 _atom_site_pbe_ddec_sum_bond_order
 _atom_site_pbe_magmom
Al  Al0  1  0.49205872  0.50417910  0.49824688  1  2.503255  0  0.385951  1.651873  0  2.557003  0
Al  Al1  1  0.99213530  0.50330713  0.50004704  1  2.499653  0  0.394735  1.643288  0  2.548132  0
H  H2  1  0.18503290  0.65668307  0.45220704  1  0.632012  0  0.331195  0.412343  0  0.899021  0
H  H3  1  0.74546971  0.42483607  0.59324727  1  0.610502  0  0.334668  0.407225  0  0.903346  0
H  H4  1  0.90592843  0.41939142  0.74439293  1  0.099031  0  0.09058  0.089999  0  1.066825  0
H  H5  1  0.86084672  0.40577615  0.89340475  1  0.111051  0  0.10923  0.116524  0  1.006022  0
H  H6  1  0.40180731  0.54923884  0.89035515  1  0.106648  0  0.113797  0.13271  0  0.990934  0
H  H7  1  0.57394386  0.55643420  0.09978242  1  0.103824  0  0.11261  0.128882  0  0.997849  0
H  H8  1  0.23861803  0.40319779  0.12217081  1  0.079802  0  0.109517  0.117818  0  1.000601  0
H  H9  1  0.16012067  0.41982887  0.26989232  1  0.120644  0  0.101483  0.105716  0  1.036117  0
H  H10  1  0.82206432  0.77147433  0.61415564  1  0.105144  0  0.108616  0.132361  0  1.013149  0
H  H11  1  0.62391306  0.23898196  0.58877871  1  0.126087  0  0.112798  0.131066  0  1.037067  0
C  C12  1  0.62125256  0.73078494  0.50505572  1  1.560188  0  0.264281  0.652882  0  4.101118  0
C  C13  1  0.79894923  0.50512506  0.35698551  1  1.580565  0  0.268092  0.650114  0  4.088422  0
C  C14  1  0.36033634  0.28079708  0.48877330  1  1.633472  0  0.268269  0.65106  0  4.098482  0
C  C15  1  0.19415150  0.49303064  0.64409630  1  1.604889  0  0.265619  0.652841  0  4.080882  0
C  C16  1  0.17868040  0.48978097  0.73286074  1  0.003689  0  -0.016046  -0.101821  0  3.931429  0
C  C17  1  0.01483016  0.44645125  0.77720252  1  -0.059694  0  -0.084357  -0.066759  0  3.992475  0
C  C18  1  0.98831415  0.43936389  0.85969032  1  0.044341  0  -0.08424  -0.147584  0  3.941526  0
C  C19  1  0.12866114  0.47754832  0.90037845  1  0.288309  0  0.092402  0.194969  0  4.035459  0
C  C20  1  0.29547228  0.51903276  0.85789634  1  0.073006  0  -0.085134  -0.211537  0  3.924232  0
C  C21  1  0.31967548  0.52599674  0.77481785  1  -0.005462  0  0.020093  0.138141  0  4.023801  0
C  C22  1  0.70199210  0.52642557  0.13759233  1  0.059093  0  -0.084035  -0.214852  0  3.932429  0
C  C23  1  0.90975470  0.48089994  0.10234123  1  0.317047  0  0.092706  0.19693  0  4.040165  0
C  C24  1  0.07763912  0.44040848  0.14985413  1  0.030084  0  -0.082891  -0.150734  0  3.946785  0
C  C25  1  0.03341507  0.44948214  0.23150148  1  -0.040729  0  -0.080505  -0.068267  0  3.988659  0
C  C26  1  0.82635858  0.49845823  0.26856114  1  0.034086  0  -0.013828  -0.098769  0  3.896212  0
C  C27  1  0.65963967  0.53708299  0.21967749  1  0.028998  0  0.027759  0.149894  0  4.001789  0
C  C28  1  0.55368691  0.87243044  0.50088079  1  0.086534  0  -0.009208  -0.108402  0  3.904101  0
C  C29  1  0.63616990  0.93807596  0.55137944  1  -0.047093  0  0.002514  0.078309  0  3.962855  0
C  C30  1  0.41623075  0.93955191  0.44686970  1  0.017675  0  -0.016704  0.042128  0  3.935757  0
C  C31  1  0.77625759  0.87375609  0.60780451  1  0.034634  0  -0.093466  -0.169362  0  3.934683  0
C  C32  1  0.85988575  0.93874611  0.65415926  1  -0.033802  0  -0.022233  0.066522  0  3.987491  0
C  C33  1  0.42907927  0.13931736  0.49082676  1  -0.026583  0  -0.005894  -0.106649  0  3.912189  0
C  C34  1  0.35133565  0.07330825  0.44252022  1  -0.085756  0  -0.015646  0.038267  0  3.956317  0
C  C35  1  0.57607907  0.07288267  0.54520168  1  0.12963  0  0.002807  0.079023  0  3.957883  0
C  C36  1  0.66392166  0.13702292  0.59395322  1  0.071632  0  -0.090961  -0.166259  0  3.93616  0
C  C37  1  0.80491057  0.07211207  0.64623740  1  -0.168477  0  -0.02013  0.068484  0  3.975209  0
Br  Br38  1  0.16577571  0.16187861  0.36738804  1  -0.003243  0  0.060413  -0.006131  0  1.544431  0
Br  Br39  1  0.32787875  0.85304717  0.37263877  1  -0.01629  0  0.057239  -0.036032  0  1.628497  0
Br  Br40  1  0.04914200  0.84664737  0.72680001  1  -0.029871  0  0.029442  -0.056278  0  1.520583  0
Br  Br41  1  0.92458966  0.16563953  0.70543069  1  -0.050508  0  0.037866  -0.041818  0  1.477861  0
N  N42  1  0.11297661  0.47897917  0.98435834  1  -0.425087  0  -0.141583  -0.12657  0  3.238419  0
N  N43  1  0.93046616  0.48035884  0.01849169  1  -0.45673  0  -0.140207  -0.122899  0  3.265233  0
Cl  Cl44  1  0.51971273  0.58782041  0.72744890  1  -0.193817  0  0.029944  -0.031428  0  1.646962  0
Cl  Cl45  1  0.39736910  0.60038076  0.25441848  1  -0.183842  0  0.027762  -0.022925  0  1.630921  0
O  O46  1  0.47574410  0.67541214  0.52005586  1  -1.243688  0  -0.237394  -0.598218  0  2.384977  0
O  O47  1  0.96609566  0.48727766  0.39102304  1  -1.24886  0  -0.231404  -0.579709  0  2.361278  0
O  O48  1  0.16513092  0.33269450  0.50674001  1  -1.250906  0  -0.228476  -0.581456  0  2.375374  0
O  O49  1  0.37882511  0.46924972  0.60635374  1  -1.262855  0  -0.239063  -0.60991  0  2.416381  0
O  O50  1  0.50501406  0.33681772  0.47298012  1  -1.240809  0  -0.22617  -0.562036  0  2.326707  0
O  O51  1  0.02156681  0.51563237  0.61267123  1  -1.247109  0  -0.237178  -0.586984  0  2.323187  0
O  O52  1  0.81914564  0.67832549  0.49300620  1  -1.259099  0  -0.231741  -0.5851  0  2.331729  0
O  O53  1  0.61274855  0.52838430  0.39281649  1  -1.256497  0  -0.233525  -0.601714  0  2.456237  0
O  O54  1  0.22175801  0.56723661  0.46810712  1  -1.439944  0  -0.450697  -0.986717  0  2.220207  0
O  O55  1  0.75642717  0.44598305  0.53614666  1  -1.418772  0  -0.449672  -0.982448  0  2.205632  0
