# generated using pymatgen
data_ZnH6C11NO5
_symmetry_space_group_name_H-M   'P 1'
_cell_length_a   9.75903751
_cell_length_b   11.05001532
_cell_length_c   11.90386902
_cell_angle_alpha   89.81249004
_cell_angle_beta   88.15842617
_cell_angle_gamma   91.11480564
_symmetry_Int_Tables_number   1
_chemical_formula_structural   ZnH6C11NO5
_chemical_formula_sum   'Zn2 H12 C22 N2 O10'
_cell_volume   1282.76801431
_cell_formula_units_Z   2
loop_
 _symmetry_equiv_pos_site_id
 _symmetry_equiv_pos_as_xyz
  1  'x, y, z'
loop_
 _atom_site_type_symbol
 _atom_site_label
 _atom_site_symmetry_multiplicity
 _atom_site_fract_x
 _atom_site_fract_y
 _atom_site_fract_z
 _atom_site_occupancy
 _atom_site_pbe_bader_charge
 _atom_site_pbe_bader_spin_density
 _atom_site_pbe_cm5_charge
 _atom_site_pbe_ddec_charge
 _atom_site_pbe_ddec_spin_density
 _atom_site_pbe_ddec_sum_bond_order
 _atom_site_pbe_magmom
Zn  Zn0  1  0.36287774  0.49428848  0.50611377  1  1.272795  0  0.670423  0.812308  0  2.416839  0
Zn  Zn1  1  0.65102428  0.49946476  0.49668808  1  1.287782  0  0.675619  0.820912  0  2.433456  0
H  H2  1  0.72670450  0.88925873  0.47042028  1  0.120044  0  0.109146  0.116335  0  0.990352  0
H  H3  1  0.13349886  0.70530665  0.68292298  1  0.101352  0  0.112878  0.1363  0  0.991407  0
H  H4  1  0.86028645  0.57478519  0.75472686  1  0.098758  0  0.115714  0.14275  0  0.965359  0
H  H5  1  0.87654314  0.71280657  0.67575051  1  0.103783  0  0.119126  0.145873  0  0.953071  0
H  H6  1  0.72636463  0.11379973  0.47404280  1  0.123013  0  0.107301  0.113193  0  0.993282  0
H  H7  1  0.18412918  0.07618526  0.44742538  1  0.033157  0  0.100692  0.05288  0  0.95726  0
H  H8  1  0.22258210  0.90684239  0.64618347  1  0.049382  0  0.101994  0.053115  0  0.960901  0
H  H9  1  0.88404962  0.40407237  0.34755911  1  0.140693  0  0.14084  0.1236  0  0.957582  0
H  H10  1  0.14198657  0.40029811  0.35244944  1  0.161269  0  0.138105  0.123404  0  0.967652  0
H  H11  1  0.12086105  0.56698060  0.76174390  1  0.097817  0  0.115673  0.142738  0  0.96021  0
H  H12  1  0.23317863  0.21101784  0.61109938  1  0.614503  0  0.297577  0.346311  0  0.953315  0
H  H13  1  0.21700530  0.77655674  0.46766722  1  0.609239  0  0.296092  0.342431  0  0.965543  0
C  C14  1  0.50759743  0.73249114  0.49983241  1  1.552146  0  0.220814  0.601782  0  4.163912  0
C  C15  1  0.50902143  0.86696174  0.50240592  1  -0.106488  0  -0.009723  -0.049213  0  3.971526  0
C  C16  1  0.63062625  0.93633205  0.48481523  1  0.034514  0  -0.077872  -0.093067  0  3.951762  0
C  C17  1  0.63029266  0.06278229  0.48608728  1  -0.106024  0  -0.076448  -0.085633  0  3.948664  0
C  C18  1  0.50802801  0.12744347  0.50177948  1  -0.01153  0  -0.010782  -0.053667  0  3.966361  0
C  C19  1  0.38825757  0.05761471  0.51562077  1  -0.009914  0  -0.010496  -0.020699  0  3.939054  0
C  C20  1  0.23319034  0.06236328  0.52882768  1  0.549734  0  0.004708  0.138869  0  3.88206  0
C  C21  1  0.23875650  0.92089579  0.55455574  1  0.511597  0  0.005811  0.140281  0  3.867905  0
C  C22  1  0.93211185  0.55082589  0.57875346  1  0.581246  0  0.153063  0.211414  0  3.842438  0
C  C23  1  0.93875961  0.44585109  0.41628285  1  0.481309  0  0.069696  0.0501  0  3.860832  0
C  C24  1  0.08136128  0.44315304  0.41919018  1  0.452646  0  0.067929  0.048162  0  3.860225  0
C  C25  1  0.50271010  0.50091534  0.72079250  1  1.631305  0  0.220206  0.65234  0  4.262773  0
C  C26  1  0.07484466  0.54729732  0.58229306  1  0.549981  0  0.150199  0.202319  0  3.85554  0
C  C27  1  0.08039146  0.61720889  0.69086750  1  -0.029247  0  -0.135887  -0.229681  0  3.812514  0
C  C28  1  0.91771124  0.62191703  0.68640666  1  -0.015889  0  -0.133667  -0.229117  0  3.802782  0
C  C29  1  0.50719017  0.26196564  0.50384866  1  1.545533  0  0.220006  0.603309  0  4.161427  0
C  C30  1  0.50797271  0.49158580  0.28226882  1  1.689912  0  0.221151  0.658337  0  4.253918  0
C  C31  1  0.50183290  0.49990213  0.84215941  1  0.260449  0  -0.016596  -0.149123  0  3.87314  0
C  C32  1  0.50188063  0.49722935  0.94498168  1  -0.363232  0  -0.017846  0.018133  0  4.258152  0
C  C33  1  0.50271734  0.49431386  0.05833413  1  -0.170899  0  -0.019182  0.016685  0  4.257021  0
C  C34  1  0.50424754  0.49182732  0.16106855  1  0.080879  0  -0.015301  -0.143516  0  3.866994  0
C  C35  1  0.38983814  0.93208529  0.52156631  1  0.017652  0  -0.012797  -0.028631  0  3.947624  0
N  N36  1  0.86079860  0.50061396  0.49738239  1  -1.211804  0  -0.287095  -0.183143  0  3.465157  0
N  N37  1  0.15264851  0.49436837  0.50393343  1  -1.225447  0  -0.291355  -0.192165  0  3.472661  0
O  O38  1  0.39149319  0.67963725  0.48452849  1  -1.159031  0  -0.308719  -0.552536  0  2.317454  0
O  O39  1  0.62058443  0.67971182  0.51261528  1  -1.158771  0  -0.310299  -0.535516  0  2.334957  0
O  O40  1  0.38836748  0.52050897  0.67575198  1  -1.14477  0  -0.306861  -0.533314  0  2.273888  0
O  O41  1  0.61731731  0.48202983  0.67070548  1  -1.141515  0  -0.303479  -0.533011  0  2.260877  0
O  O42  1  0.39274196  0.31143317  0.53029479  1  -1.163277  0  -0.31081  -0.554958  0  2.31675  0
O  O43  1  0.61914922  0.31830393  0.47981648  1  -1.163746  0  -0.312112  -0.540062  0  2.337516  0
O  O44  1  0.39451829  0.46944822  0.33538139  1  -1.152932  0  -0.311126  -0.545897  0  2.277088  0
O  O45  1  0.62387020  0.51396952  0.32424807  1  -1.138512  0  -0.307186  -0.530755  0  2.244448  0
O  O46  1  0.17640571  0.13676184  0.61417066  1  -1.139534  0  -0.426516  -0.515155  0  2.176949  0
O  O47  1  0.15496811  0.84089070  0.49239294  1  -1.139932  0  -0.422608  -0.515024  0  2.186858  0
