# generated using pymatgen
data_Cd3H8C15N6O13
_symmetry_space_group_name_H-M   'P 1'
_cell_length_a   9.17147265
_cell_length_b   12.21186095
_cell_length_c   12.41044222
_cell_angle_alpha   90.00041678
_cell_angle_beta   89.99849704
_cell_angle_gamma   103.21575282
_symmetry_Int_Tables_number   1
_chemical_formula_structural   Cd3H8C15N6O13
_chemical_formula_sum   'Cd6 H16 C30 N12 O26'
_cell_volume   1353.16673710
_cell_formula_units_Z   2
loop_
 _symmetry_equiv_pos_site_id
 _symmetry_equiv_pos_as_xyz
  1  'x, y, z'
loop_
 _atom_site_type_symbol
 _atom_site_label
 _atom_site_symmetry_multiplicity
 _atom_site_fract_x
 _atom_site_fract_y
 _atom_site_fract_z
 _atom_site_occupancy
 _atom_site_pbe_bader_charge
 _atom_site_pbe_bader_spin_density
 _atom_site_pbe_cm5_charge
 _atom_site_pbe_ddec_charge
 _atom_site_pbe_ddec_spin_density
 _atom_site_pbe_ddec_sum_bond_order
 _atom_site_pbe_magmom
Cd  Cd0  1  0.78715514  0.61354952  0.08951109  1  1.316793  0  0.798754  0.938581  0  2.201896  0
Cd  Cd1  1  0.78716914  0.11354804  0.91048407  1  1.316708  0  0.798763  0.938519  0  2.2019  0
Cd  Cd2  1  0.77147355  0.96659146  0.21745477  1  1.304139  0  0.802293  0.913926  0  2.148293  0
Cd  Cd3  1  0.77152529  0.46660380  0.78255290  1  1.304296  0  0.802197  0.91389  0  2.148541  0
Cd  Cd4  1  0.73221584  0.65056961  0.42973171  1  1.312014  0  0.775449  1.016105  0  1.967734  0
Cd  Cd5  1  0.73224576  0.15055854  0.57026318  1  1.312063  0  0.775482  1.01613  0  1.967609  0
H  H6  1  0.02709877  0.86938177  0.35165753  1  0.657134  0  0.346043  0.400878  0  0.853147  0
H  H7  1  0.02714487  0.36939207  0.64836555  1  0.657298  0  0.345958  0.400784  0  0.85319  0
H  H8  1  0.17138890  0.57528984  0.98253992  1  0.528677  0  0.330827  0.279469  0  0.968388  0
H  H9  1  0.17137993  0.07525268  0.01744600  1  0.5287  0  0.330789  0.279405  0  0.968365  0
H  H10  1  0.40765474  0.02308077  0.12704718  1  0.579344  0  0.323967  0.287076  0  0.999041  0
H  H11  1  0.40769695  0.52312166  0.87294505  1  0.579295  0  0.324044  0.287085  0  0.999249  0
H  H12  1  0.31042049  0.61999184  0.30916788  1  0.160621  0  0.114165  0.150663  0  1.029267  0
H  H13  1  0.31046148  0.11999293  0.69082613  1  0.160237  0  0.114274  0.150765  0  1.029287  0
H  H14  1  0.23390750  0.81739335  0.39877211  1  0.175389  0  0.121831  0.161481  0  1.01698  0
H  H15  1  0.23395026  0.31742525  0.60123288  1  0.175624  0  0.121702  0.161301  0  1.01718  0
H  H16  1  0.79394210  0.90656614  0.76884645  1  0.15593  0  0.108355  0.142747  0  1.035007  0
H  H17  1  0.79392276  0.40655851  0.23115390  1  0.155987  0  0.108338  0.142698  0  1.034898  0
H  H18  1  0.54159447  0.51764849  0.28540140  1  0.650313  0  0.290085  0.384591  0  0.953805  0
H  H19  1  0.54160437  0.01763065  0.71460107  1  0.650338  0  0.289964  0.38432  0  0.954195  0
H  H20  1  0.47807867  0.45961837  0.39552037  1  0.613115  0  0.327846  0.407421  0  0.868154  0
H  H21  1  0.47810794  0.95959323  0.60448168  1  0.612949  0  0.327885  0.407468  0  0.867967  0
C  C22  1  0.98527627  0.64074018  0.30000216  1  1.575056  0  0.206844  0.55214  0  4.229846  0
C  C23  1  0.98530913  0.14076456  0.69999336  1  1.574874  0  0.2069  0.55224  0  4.229885  0
C  C24  1  0.09607852  0.61789623  0.22159532  1  0.415485  0  0.081745  0.036126  0  4.038301  0
C  C25  1  0.09610093  0.11790050  0.77839399  1  0.415966  0  0.081751  0.036158  0  4.038141  0
C  C26  1  0.24594912  0.61073230  0.23504541  1  -0.01198  0  -0.093286  -0.219262  0  3.925247  0
C  C27  1  0.24597045  0.11073485  0.76494738  1  -0.012061  0  -0.093317  -0.219364  0  3.925254  0
C  C28  1  0.29445122  0.59135220  0.13181245  1  0.396505  0  0.088288  0.031133  0  3.955864  0
C  C29  1  0.29445409  0.09132449  0.86817120  1  0.396308  0  0.088204  0.031128  0  3.955485  0
C  C30  1  0.44368651  0.58318925  0.08951997  1  1.597112  0  0.212775  0.568209  0  4.257899  0
C  C31  1  0.44368069  0.08316315  0.91047280  1  1.597729  0  0.212746  0.568292  0  4.257938  0
C  C32  1  0.55311162  0.79641214  0.36534384  1  1.609982  0  0.202148  0.556043  0  4.23539  0
C  C33  1  0.55316378  0.29643089  0.63468217  1  1.611199  0  0.202533  0.556529  0  4.234901  0
C  C34  1  0.45561809  0.86469916  0.31682300  1  0.409429  0  0.091202  0.049825  0  4.008719  0
C  C35  1  0.45566015  0.36471113  0.68320299  1  0.408215  0  0.091267  0.049958  0  4.00866  0
C  C36  1  0.30639229  0.86647244  0.33850539  1  0.027077  0  -0.08802  -0.220691  0  3.937794  0
C  C37  1  0.30644893  0.36650304  0.66149450  1  0.027214  0  -0.087714  -0.220457  0  3.937968  0
C  C38  1  0.26968304  0.93719575  0.25963049  1  0.361492  0  0.08577  -0.004732  0  4.034872  0
C  C39  1  0.26972089  0.43722365  0.74036740  1  0.36138  0  0.085791  -0.00445  0  4.034704  0
C  C40  1  0.12948167  0.96896022  0.23515017  1  1.54829  0  0.244383  0.568959  0  4.140136  0
C  C41  1  0.12952951  0.46899588  0.76484666  1  1.547976  0  0.244282  0.568631  0  4.140049  0
C  C42  1  0.79394239  0.69813784  0.63822586  1  1.537472  0  0.190508  0.551858  0  4.252855  0
C  C43  1  0.79392259  0.19812544  0.36176816  1  1.53824  0  0.190538  0.551687  0  4.252976  0
C  C44  1  0.80968928  0.72828189  0.75282608  1  0.415483  0  0.071978  0.042636  0  4.027228  0
C  C45  1  0.80964192  0.22826959  0.24717349  1  0.415273  0  0.072016  0.042583  0  4.027638  0
C  C46  1  0.80448529  0.82835090  0.80586812  1  -0.083348  0  -0.100852  -0.211401  0  3.91072  0
C  C47  1  0.80447117  0.32834162  0.19413147  1  -0.083296  0  -0.100793  -0.21112  0  3.910421  0
C  C48  1  0.81074538  0.80082585  0.91524037  1  0.454643  0  0.061996  0.010728  0  4.066203  0
C  C49  1  0.81072053  0.30081113  0.08475648  1  0.454228  0  0.06203  0.010593  0  4.066328  0
C  C50  1  0.79545731  0.86133406  0.01484010  1  1.530329  0  0.204078  0.571748  0  4.213171  0
C  C51  1  0.79545492  0.36133411  0.98516392  1  1.530475  0  0.203962  0.571569  0  4.213412  0
N  N52  1  0.05455792  0.60290669  0.11703614  1  -0.655532  0  -0.219771  -0.20024  0  3.31592  0
N  N53  1  0.05455854  0.10288065  0.88294984  1  -0.65587  0  -0.219699  -0.200132  0  3.315709  0
N  N54  1  0.17543061  0.58824734  0.06449045  1  -0.767349  0  -0.248689  -0.060261  0  3.677459  0
N  N55  1  0.17542399  0.08820956  0.93549468  1  -0.766942  0  -0.248646  -0.060259  0  3.677125  0
N  N56  1  0.50623713  0.93063854  0.23096520  1  -0.63867  0  -0.214041  -0.163536  0  3.33941  0
N  N57  1  0.50627829  0.43067827  0.76903932  1  -0.637601  0  -0.214267  -0.163906  0  3.339878  0
N  N58  1  0.39426878  0.97389374  0.19732462  1  -0.77478  0  -0.232437  -0.045184  0  3.63247  0
N  N59  1  0.39431107  0.47394193  0.80266306  1  -0.775459  0  -0.232512  -0.045272  0  3.632714  0
N  N60  1  0.81824536  0.64772345  0.82680373  1  -0.678834  0  -0.249878  -0.183534  0  3.548281  0
N  N61  1  0.81821489  0.14771549  0.17319267  1  -0.679126  0  -0.249895  -0.183609  0  3.548579  0
N  N62  1  0.82051608  0.69173337  0.92460055  1  -0.688878  0  -0.251556  -0.188968  0  3.542302  0
N  N63  1  0.82049267  0.19171865  0.07539372  1  -0.68843  0  -0.25163  -0.188867  0  3.542495  0
O  O64  1  0.02398233  0.68577208  0.38983363  1  -1.162514  0  -0.311323  -0.535318  0  2.121827  0
O  O65  1  0.02402211  0.18581816  0.61017531  1  -1.162191  0  -0.31142  -0.535437  0  2.12179  0
O  O66  1  0.84590469  0.61301690  0.27049520  1  -1.141738  0  -0.325753  -0.544788  0  2.365522  0
O  O67  1  0.84593567  0.11302625  0.72950122  1  -1.141601  0  -0.325762  -0.544779  0  2.365569  0
O  O68  1  0.54548357  0.57910530  0.16007084  1  -1.171264  0  -0.31805  -0.54739  0  2.266974  0
O  O69  1  0.54549042  0.07908849  0.83991992  1  -1.172028  0  -0.317988  -0.547445  0  2.266934  0
O  O70  1  0.46352304  0.58531309  0.98925404  1  -1.165046  0  -0.319322  -0.548108  0  2.184417  0
O  O71  1  0.46349682  0.08527978  0.01073513  1  -1.165055  0  -0.319337  -0.548176  0  2.184495  0
O  O72  1  0.49633561  0.71650325  0.42771739  1  -1.147923  0  -0.320423  -0.536659  0  2.129389  0
O  O73  1  0.49639000  0.21652610  0.57230432  1  -1.14806  0  -0.32063  -0.536808  0  2.129157  0
O  O74  1  0.69138377  0.81870178  0.33597295  1  -1.150409  0  -0.323939  -0.543646  0  2.314698  0
O  O75  1  0.69143461  0.31873145  0.66404569  1  -1.151201  0  -0.324022  -0.543916  0  2.31489  0
O  O76  1  0.01203877  0.92839734  0.30143809  1  -1.144477  0  -0.310537  -0.450523  0  2.339991  0
O  O77  1  0.01208172  0.42841856  0.69857685  1  -1.144228  0  -0.310351  -0.450224  0  2.34026  0
O  O78  1  0.11110717  0.02940245  0.15965006  1  -1.137074  0  -0.263221  -0.459999  0  2.15532  0
O  O79  1  0.11115859  0.52945684  0.84034154  1  -1.137021  0  -0.263301  -0.460065  0  2.154981  0
O  O80  1  0.80399415  0.77556985  0.56869508  1  -1.113794  0  -0.327832  -0.522034  0  2.151995  0
O  O81  1  0.80400665  0.27556488  0.43129930  1  -1.114277  0  -0.327884  -0.522006  0  2.151674  0
O  O82  1  0.76481836  0.59263765  0.61269082  1  -1.156846  0  -0.338579  -0.587319  0  2.18705  0
O  O83  1  0.76481924  0.09263237  0.38731671  1  -1.156982  0  -0.338545  -0.587146  0  2.187295  0
O  O84  1  0.75945152  0.95581148  0.01307696  1  -1.175235  0  -0.326419  -0.558652  0  2.401925  0
O  O85  1  0.75947259  0.45581781  0.98692281  1  -1.175197  0  -0.326314  -0.558538  0  2.402007  0
O  O86  1  0.81393139  0.81570301  0.10594933  1  -1.152895  0  -0.329402  -0.558105  0  2.290358  0
O  O87  1  0.81394482  0.31569731  0.89405965  1  -1.152813  0  -0.329376  -0.558015  0  2.290485  0
O  O88  1  0.57028573  0.49013614  0.35650727  1  -1.213207  0  -0.568032  -0.731959  0  2.040441  0
O  O89  1  0.57030745  0.99012433  0.64349562  1  -1.213166  0  -0.567982  -0.731775  0  2.04063  0
