# generated using pymatgen
data_ZnH26C23(NO3)2
_symmetry_space_group_name_H-M   'P 1'
_cell_length_a   9.66826975
_cell_length_b   10.90732892
_cell_length_c   17.00581831
_cell_angle_alpha   88.41208521
_cell_angle_beta   99.39429185
_cell_angle_gamma   96.19287606
_symmetry_Int_Tables_number   1
_chemical_formula_structural   ZnH26C23(NO3)2
_chemical_formula_sum   'Zn2 H52 C46 N4 O12'
_cell_volume   1758.87867623
_cell_formula_units_Z   2
loop_
 _symmetry_equiv_pos_site_id
 _symmetry_equiv_pos_as_xyz
  1  'x, y, z'
loop_
 _atom_site_type_symbol
 _atom_site_label
 _atom_site_symmetry_multiplicity
 _atom_site_fract_x
 _atom_site_fract_y
 _atom_site_fract_z
 _atom_site_occupancy
 _atom_site_pbe_bader_charge
 _atom_site_pbe_bader_spin_density
 _atom_site_pbe_cm5_charge
 _atom_site_pbe_ddec_charge
 _atom_site_pbe_ddec_spin_density
 _atom_site_pbe_ddec_sum_bond_order
 _atom_site_pbe_magmom
Zn  Zn0  1  0.33471185  0.48284265  0.48285872  1  1.292133  0  0.684671  0.835329  0  2.388652  0
Zn  Zn1  1  0.64126574  0.51833981  0.51873134  1  1.297539  0  0.681141  0.837523  0  2.399789  0
H  H2  1  0.35677923  0.39457776  0.09602534  1  0.096715  0  0.105154  0.107915  0  1.017084  0
H  H3  1  0.17801845  0.04380246  0.65617985  1  -0.010706  0  0.078159  0.103238  0  1.009909  0
H  H4  1  0.04814583  0.13756874  0.60852705  1  0.064525  0  0.077057  0.114062  0  1.056263  0
H  H5  1  0.15533156  0.22601067  0.74316764  1  0.00397  0  0.079159  0.061427  0  0.997922  0
H  H6  1  0.19839259  0.32766067  0.66600277  1  0.013032  0  0.07976  0.071966  0  1.016592  0
H  H7  1  0.42875931  0.23109119  0.67319088  1  0.03616  0  0.09117  0.095895  0  1.000593  0
H  H8  1  0.38926232  0.14756470  0.75769789  1  0.009513  0  0.092403  0.089625  0  0.996705  0
H  H9  1  0.74815422  0.92628421  0.39940005  1  0.032857  0  0.079464  0.106734  0  1.019129  0
H  H10  1  0.80196754  0.98909714  0.31036917  1  0.039034  0  0.081482  0.10576  0  1.024501  0
H  H11  1  0.65332302  0.03914199  0.34434888  1  0.061677  0  0.083682  0.112487  0  1.0079  0
H  H12  1  0.57582202  0.89147501  0.23018191  1  0.01347  0  0.086235  0.074254  0  0.981173  0
H  H13  1  0.61326600  0.62739668  0.90519688  1  0.085952  0  0.105188  0.107441  0  1.025387  0
H  H14  1  0.51974948  0.82976533  0.31772171  1  0.034441  0  0.086703  0.083189  0  0.986352  0
H  H15  1  0.72377570  0.70472360  0.34325718  1  0.078933  0  0.087487  0.097619  0  1.03234  0
H  H16  1  0.78784508  0.76926565  0.25824963  1  0.007554  0  0.089093  0.085713  0  1.015281  0
H  H17  1  0.37879850  0.04774431  0.02112504  1  0.02175  0  0.085567  0.112172  0  0.999351  0
H  H18  1  0.33931768  0.97331734  0.92740368  1  0.015573  0  0.081994  0.105388  0  1.005182  0
H  H19  1  0.50445532  0.96142851  0.98893506  1  0.041026  0  0.085254  0.113022  0  1.008577  0
H  H20  1  0.53474914  0.11481458  0.87849956  1  0.018275  0  0.084805  0.071087  0  0.987073  0
H  H21  1  0.57117758  0.18965716  0.97130162  1  0.016186  0  0.087387  0.076711  0  0.980617  0
H  H22  1  0.33199159  0.25828238  0.95172506  1  0.031536  0  0.091984  0.087411  0  1.014252  0
H  H23  1  0.28737832  0.18052375  0.85961385  1  0.023999  0  0.090375  0.087635  0  1.006285  0
H  H24  1  0.33756821  0.40726521  0.24134834  1  0.083862  0  0.101746  0.105699  0  1.008123  0
H  H25  1  0.90251617  0.78415200  0.00711280  1  0.014181  0  0.081286  0.104541  0  1.007362  0
H  H26  1  0.97320965  0.85350058  0.10039971  1  0.013377  0  0.083358  0.108314  0  1.003503  0
H  H27  1  0.04957356  0.72682629  0.06807405  1  0.020113  0  0.08773  0.115345  0  1.000093  0
H  H28  1  0.89845634  0.65525613  0.17084468  1  0.016546  0  0.085892  0.074781  0  0.983209  0
H  H29  1  0.82736439  0.58759974  0.07794776  1  0.019812  0  0.086575  0.07606  0  0.984577  0
H  H30  1  0.65822847  0.74504064  0.04978987  1  0.037486  0  0.091329  0.081933  0  1.024698  0
H  H31  1  0.72577650  0.81607353  0.14237712  1  0.013272  0  0.091299  0.089632  0  1.002528  0
H  H32  1  0.78727171  0.26475596  0.65481897  1  0.61598  0  0.347814  0.390514  0  0.839636  0
H  H33  1  0.03779332  0.79526099  0.43663206  1  0.61685  0  0.341147  0.377147  0  0.860651  0
H  H34  1  0.78351409  0.78849789  0.70294331  1  0.029667  0  0.084946  0.112015  0  1.014945  0
H  H35  1  0.62607766  0.62511054  0.75874911  1  0.058976  0  0.100008  0.10316  0  1.008437  0
H  H36  1  0.96106388  0.80635796  0.75245647  1  0.036229  0  0.086345  0.111713  0  0.998994  0
H  H37  1  0.89643840  0.92303517  0.68602285  1  0.061667  0  0.087346  0.114914  0  1.008748  0
H  H38  1  0.04041390  0.80030324  0.61525194  1  0.044834  0  0.088393  0.082291  0  0.992556  0
H  H39  1  0.86109644  0.77280520  0.57179748  1  0.01785  0  0.086875  0.080643  0  1.009374  0
H  H40  1  0.83960488  0.57993421  0.65940316  1  0.112495  0  0.102111  0.122383  0  1.02011  0
H  H41  1  0.02431250  0.60406872  0.69188324  1  0.037452  0  0.102834  0.110438  0  0.962642  0
H  H42  1  0.99984120  0.19998545  0.24422986  1  0.025909  0  0.08593  0.111945  0  0.999159  0
H  H43  1  0.17520712  0.20307058  0.29611155  1  0.03017  0  0.086204  0.114453  0  1.005139  0
H  H44  1  0.05097754  0.07362328  0.30614386  1  0.016833  0  0.085268  0.110995  0  1.016216  0
H  H45  1  0.08786034  0.20979043  0.42735138  1  0.059826  0  0.09209  0.089846  0  1.000145  0
H  H46  1  0.69075323  0.91218353  0.56752584  1  0.109282  0  0.112867  0.118426  0  1.021535  0
H  H47  1  0.91239797  0.20340311  0.37826354  1  0.021613  0  0.090395  0.083524  0  0.990926  0
H  H48  1  0.96329975  0.40533564  0.31183987  1  0.046255  0  0.104573  0.11192  0  0.959308  0
H  H49  1  0.14492316  0.40923286  0.35094828  1  0.084826  0  0.105599  0.122604  0  1.008705  0
H  H50  1  0.26292845  0.08642205  0.42843246  1  0.120415  0  0.113775  0.118373  0  1.022047  0
H  H51  1  0.19261017  0.57026929  0.59944837  1  0.150379  0  0.131547  0.119113  0  0.986693  0
H  H52  1  0.78573027  0.41991955  0.40781178  1  0.167283  0  0.133714  0.121981  0  0.977886  0
H  H53  1  0.21698042  0.15008000  0.57983920  1  0.037437  0  0.079403  0.112696  0  1.033027  0
C  C54  1  0.46691213  0.26304179  0.48177426  1  1.587211  0  0.216136  0.58447  0  4.192081  0
C  C55  1  0.87801356  0.45369038  0.45021527  1  0.47957  0  0.070078  0.030213  0  3.840674  0
C  C56  1  0.49197097  0.54567706  0.35082534  1  1.560791  0  0.223401  0.609401  0  4.139789  0
C  C57  1  0.50965375  0.45692843  0.65388475  1  1.54447  0  0.221888  0.610456  0  4.160648  0
C  C58  1  0.50313141  0.55634548  0.26407782  1  -0.013778  0  -0.013984  -0.077996  0  3.923066  0
C  C59  1  0.50526991  0.44690736  0.74135919  1  -0.04143  0  -0.014799  -0.072782  0  3.952098  0
C  C60  1  0.60051097  0.64234802  0.23242550  1  -0.00468  0  0.001459  0.062463  0  3.875194  0
C  C61  1  0.43840781  0.34286843  0.77590045  1  0.081621  0  -0.002999  0.050902  0  3.898596  0
C  C62  1  0.60647031  0.63866766  0.15005047  1  -0.013552  0  0.004344  0.019088  0  3.854749  0
C  C63  1  0.43604208  0.34209526  0.85882036  1  -0.044248  0  0.005784  0.026172  0  3.855186  0
C  C64  1  0.52123519  0.54532121  0.10282794  1  0.359457  0  0.086284  0.11592  0  4.040945  0
C  C65  1  0.48489738  0.73569916  0.51778739  1  1.574376  0  0.218059  0.591358  0  4.18554  0
C  C66  1  0.49722046  0.44746745  0.90374220  1  0.374762  0  0.081411  0.108152  0  4.030811  0
C  C67  1  0.42326656  0.46235167  0.13503758  1  -0.085242  0  -0.093817  -0.155399  0  4.025634  0
C  C68  1  0.56556612  0.54947961  0.86797016  1  -0.054891  0  -0.093605  -0.151405  0  4.023647  0
C  C69  1  0.41336202  0.46962684  0.21475499  1  -0.017763  0  -0.091021  -0.093377  0  4.032822  0
C  C70  1  0.57151852  0.54802671  0.78751299  1  -0.034971  0  -0.09566  -0.105356  0  4.042987  0
C  C71  1  0.59608871  0.07900825  0.52894376  1  -0.00716  0  0.002582  -0.029886  0  3.943339  0
C  C72  1  0.35741551  0.91957438  0.46687754  1  -0.021919  0  0.003615  -0.024336  0  3.920596  0
C  C73  1  0.37320561  0.23422315  0.72447210  1  -0.001855  0  -0.163139  -0.195416  0  3.956834  0
C  C74  1  0.21492562  0.23642966  0.69291410  1  0.01763  0  -0.170061  -0.087949  0  3.962178  0
C  C75  1  0.16092097  0.13618308  0.63120720  1  -0.093157  0  -0.254186  -0.356147  0  3.957479  0
C  C76  1  0.59779587  0.95178788  0.53682736  1  -0.017303  0  -0.069803  -0.113282  0  3.942846  0
C  C77  1  0.69115760  0.74168469  0.28330578  1  -0.020039  0  -0.172377  -0.215779  0  3.972543  0
C  C78  1  0.61444780  0.85653445  0.29033783  1  -0.012623  0  -0.164212  -0.084633  0  3.94658  0
C  C79  1  0.70944254  0.95822547  0.33863855  1  -0.134481  0  -0.248527  -0.35396  0  3.979734  0
C  C80  1  0.37493458  0.22960180  0.90004469  1  -0.014504  0  -0.163878  -0.202396  0  3.979296  0
C  C81  1  0.48607836  0.14032467  0.92917973  1  0.005944  0  -0.163571  -0.086251  0  3.954898  0
C  C82  1  0.42399199  0.02439420  0.96881958  1  -0.079805  0  -0.244838  -0.351078  0  3.979436  0
C  C83  1  0.70700199  0.72720030  0.11148661  1  -0.01377  0  -0.164874  -0.204981  0  3.99095  0
C  C84  1  0.84874263  0.67615250  0.10956085  1  0.005048  0  -0.164001  -0.088349  0  3.956788  0
C  C85  1  0.94919256  0.76489172  0.06910494  1  -0.047566  0  -0.244374  -0.349222  0  3.982506  0
C  C86  1  0.72375768  0.16151905  0.56472893  1  1.536738  0  0.23559  0.59244  0  4.133677  0
C  C87  1  0.35620137  0.04692927  0.45877325  1  0.000318  0  -0.06932  -0.112742  0  3.936922  0
C  C88  1  0.22867791  0.84172870  0.42698683  1  1.56858  0  0.235411  0.593756  0  4.126631  0
C  C89  1  0.93979154  0.61925563  0.64190894  1  -0.046373  0  -0.1584  -0.246189  0  3.942502  0
C  C90  1  0.93635312  0.75912193  0.62646279  1  0.016059  0  -0.165305  -0.089988  0  3.938197  0
C  C91  1  0.89205224  0.82275603  0.69584075  1  -0.115289  0  -0.242136  -0.349636  0  3.968317  0
C  C92  1  0.03872877  0.37741836  0.36328823  1  -0.008859  0  -0.153967  -0.241456  0  3.933966  0
C  C93  1  0.02182663  0.23561871  0.37175468  1  -0.021601  0  -0.162628  -0.087323  0  3.929519  0
C  C94  1  0.06402265  0.17473284  0.30071026  1  -0.062483  0  -0.243331  -0.356744  0  3.978347  0
C  C95  1  0.47938443  0.87162144  0.50676470  1  0.004369  0  -0.00217  -0.035662  0  3.934653  0
C  C96  1  0.47405322  0.12699558  0.48950400  1  0.009455  0  -0.002885  -0.038088  0  3.947753  0
C  C97  1  0.96430954  0.55270986  0.57043220  1  0.507035  0  0.135066  0.222866  0  3.933179  0
C  C98  1  0.01406390  0.44017254  0.43609028  1  0.545016  0  0.145436  0.240078  0  3.90287  0
C  C99  1  0.09998777  0.53762678  0.55683680  1  0.492052  0  0.063879  0.013492  0  3.866171  0
N  N100  1  0.53643433  0.54368309  0.02208016  1  -0.528244  0  -0.146596  -0.117737  0  3.323759  0
N  N101  1  0.48685225  0.44449480  0.98571112  1  -0.471189  0  -0.148171  -0.127375  0  3.292355  0
N  N102  1  0.12397095  0.48354658  0.49111192  1  -1.224453  0  -0.297924  -0.202677  0  3.471451  0
N  N103  1  0.85394673  0.50965574  0.51512687  1  -1.237009  0  -0.301455  -0.219687  0  3.481977  0
O  O104  1  0.34441391  0.29926208  0.46913527  1  -1.158287  0  -0.304607  -0.52343  0  2.344721  0
O  O105  1  0.70658078  0.20442854  0.63629069  1  -1.108816  0  -0.33054  -0.478741  0  2.241284  0
O  O106  1  0.21607588  0.79781137  0.36080774  1  -1.121952  0  -0.288153  -0.476113  0  2.059014  0
O  O107  1  0.12039930  0.83865513  0.46960650  1  -1.121855  0  -0.333449  -0.485539  0  2.235821  0
O  O108  1  0.60543954  0.69766089  0.53866902  1  -1.16883  0  -0.311357  -0.537569  0  2.328054  0
O  O109  1  0.58344277  0.33113707  0.48966080  1  -1.179037  0  -0.305689  -0.557095  0  2.380222  0
O  O110  1  0.36711978  0.66948570  0.50478807  1  -1.166297  0  -0.304636  -0.547763  0  2.39207  0
O  O111  1  0.37000688  0.51626912  0.36902031  1  -1.152629  0  -0.309071  -0.536262  0  2.342289  0
O  O112  1  0.63213076  0.47378255  0.63388777  1  -1.160292  0  -0.316452  -0.552529  0  2.363842  0
O  O113  1  0.60612180  0.56066881  0.40073060  1  -1.177986  0  -0.31462  -0.559805  0  2.411741  0
O  O114  1  0.39371307  0.45316047  0.60626457  1  -1.17455  0  -0.302199  -0.550207  0  2.352392  0
O  O115  1  0.83222517  0.18130235  0.53635392  1  -1.135758  0  -0.275408  -0.481896  0  2.139382  0
