# generated using pymatgen
data_Cu2H11C12N2Cl3O2
_symmetry_space_group_name_H-M   'P 1'
_cell_length_a   7.62546814
_cell_length_b   8.86593679
_cell_length_c   11.88963306
_cell_angle_alpha   78.55474248
_cell_angle_beta   76.81128924
_cell_angle_gamma   66.67331994
_symmetry_Int_Tables_number   1
_chemical_formula_structural   Cu2H11C12N2Cl3O2
_chemical_formula_sum   'Cu4 H22 C24 N4 Cl6 O4'
_cell_volume   713.37882640
_cell_formula_units_Z   2
loop_
 _symmetry_equiv_pos_site_id
 _symmetry_equiv_pos_as_xyz
  1  'x, y, z'
loop_
 _atom_site_type_symbol
 _atom_site_label
 _atom_site_symmetry_multiplicity
 _atom_site_fract_x
 _atom_site_fract_y
 _atom_site_fract_z
 _atom_site_occupancy
 _atom_site_hle17_ddec_charge
 _atom_site_hle17_ddec_spin_density
 _atom_site_hle17_ddec_sum_bond_order
 _atom_site_hle17_magmom
 _atom_site_hse06_10hf_ddec_charge
 _atom_site_hse06_10hf_ddec_spin_density
 _atom_site_hse06_10hf_ddec_sum_bond_order
 _atom_site_hse06_10hf_magmom
 _atom_site_hse06_ddec_charge
 _atom_site_hse06_ddec_spin_density
 _atom_site_hse06_ddec_sum_bond_order
 _atom_site_hse06_magmom
 _atom_site_pbe_cm5_charge
 _atom_site_pbe_ddec_charge
 _atom_site_pbe_ddec_spin_density
 _atom_site_pbe_ddec_sum_bond_order
 _atom_site_pbe_magmom
Cu  Cu0  1  0.43417816  0.01876059  0.15784214  1  0.733786  0.628702  1.974336  0.449  0.721063  0.731089  2.396773  0.574  0.819063  0.818498  2.313066  0.666  0.566103  0.665097  0.666543  2.450324  0.514
Cu  Cu1  1  0.56564432  0.98144970  0.84205507  1  0.733734  -0.628803  1.974015  -0.45  0.721021  -0.731144  2.396484  -0.574  0.818912  -0.818478  2.312913  -0.665  0.566234  0.66508  -0.666677  2.450002  -0.514
Cu  Cu2  1  0.19621919  0.02262510  0.38770000  1  0.738247  -0.63705  1.976112  -0.455  0.725923  -0.738592  2.400055  -0.58  0.823778  -0.823271  2.316083  -0.669  0.567273  0.670534  -0.675523  2.453239  -0.52
Cu  Cu3  1  0.80354647  0.97755213  0.61225617  1  0.738362  0.637149  1.975346  0.455  0.725765  0.738651  2.39943  0.58  0.823648  0.82326  2.315453  0.669  0.567388  0.670365  0.675678  2.452635  0.52
H  H4  1  0.48919315  0.51871770  0.25123079  1  0.116764  0.000763  0.957381  0.001  0.125976  0.000669  1.019709  0.001  0.129333  0.000451  1.017989  0.001  0.108004  0.123492  0.00083  1.021147  0.001
H  H5  1  0.51079622  0.48141648  0.74853736  1  0.116577  -0.000766  0.95733  -0.001  0.125888  -0.000668  1.01956  -0.001  0.129247  -0.000451  1.017819  -0.001  0.107953  0.123408  -0.000829  1.020986  -0.001
H  H6  1  0.84044038  0.45052627  0.16926440  1  0.104883  0.00016  0.936903  0.0  0.117317  7.7e-05  0.993258  0.0  0.119991  4.5e-05  0.990868  0.0  0.111384  0.11529  0.000109  0.995062  0.0
H  H7  1  0.15947201  0.54959984  0.83032903  1  0.104323  -0.000159  0.937249  0.0  0.116764  -7.6e-05  0.993688  0.0  0.11943  -4.4e-05  0.991311  0.0  0.111148  0.11474  -0.000108  0.995483  0.0
H  H8  1  0.02993836  0.17903985  0.08926113  1  0.104893  -0.000265  0.990809  0.0  0.109895  -0.000253  1.061432  0.0  0.112806  -0.000218  1.06031  0.0  0.094035  0.107626  -0.000272  1.062642  0.001
H  H9  1  0.97003462  0.82079052  0.91080308  1  0.105056  0.000266  0.990923  0.0  0.110211  0.000251  1.06123  0.0  0.113128  0.000216  1.060101  0.0  0.094173  0.107941  0.000269  1.06244  -0.001
H  H10  1  0.85268645  0.99432096  0.08446527  1  0.082336  0.001006  0.958329  0.002  0.091299  0.001023  1.021286  0.002  0.093074  0.000766  1.019944  0.001  0.109395  0.089806  0.001194  1.022433  0.002
H  H11  1  0.14733007  0.00531994  0.91603115  1  0.082267  -0.001007  0.957863  -0.002  0.091251  -0.001026  1.020843  -0.002  0.093025  -0.000768  1.0195  -0.001  0.109547  0.089774  -0.001198  1.021981  -0.002
H  H12  1  0.26984843  0.54848521  0.40745684  1  0.116252  -0.000733  0.959197  -0.002  0.123427  -0.000551  1.024694  -0.001  0.127456  -0.000333  1.021911  -0.001  0.103059  0.120592  -0.000739  1.0267  -0.002
H  H13  1  0.72934052  0.45174309  0.59278657  1  0.116296  0.000729  0.958697  0.002  0.123441  0.000549  1.024319  0.001  0.127387  0.000331  1.021627  0.001  0.103095  0.12061  0.000737  1.026313  0.002
H  H14  1  0.26081575  0.51176235  0.61985840  1  0.097794  -0.001207  0.960891  0.0  0.111261  -0.000941  1.018236  0.0  0.114025  -0.000713  1.01581  0.0  0.099736  0.109312  -0.001101  1.019967  0.0
H  H15  1  0.73844488  0.48824092  0.38034476  1  0.097676  0.00121  0.96036  0.0  0.111215  0.000939  1.017713  0.0  0.11396  0.000711  1.015324  0.0  0.099742  0.109285  0.001098  1.019418  0.0
H  H16  1  0.24405166  0.24615121  0.73841003  1  0.097158  -9.7e-05  0.989713  -0.001  0.103098  -0.000134  1.060413  -0.001  0.105598  -4.5e-05  1.060025  0.0  0.093285  0.101047  -0.000209  1.061396  -0.001
H  H17  1  0.75644537  0.75341463  0.26159859  1  0.097905  0.000104  0.98897  0.001  0.103823  0.000138  1.059587  0.001  0.106344  4.8e-05  1.0592  0.0  0.093492  0.101768  0.000212  1.060576  0.001
H  H18  1  0.22486817  0.03323988  0.63386679  1  0.079326  -0.001075  0.984502  -0.002  0.085147  -0.001114  1.054148  -0.002  0.086786  -0.000808  1.053757  -0.001  0.100672  0.083894  -0.001344  1.054516  -0.002
H  H19  1  0.77624637  0.96621407  0.36598369  1  0.07923  0.001084  0.984559  0.002  0.084954  0.001122  1.054201  0.002  0.086592  0.000814  1.053816  0.001  0.100575  0.083662  0.001352  1.054622  0.002
H  H20  1  0.04138597  0.63427385  0.10564580  1  0.08627  0.000201  0.967161  0.0  0.103685  0.000157  1.035373  0.0  0.103991  0.000115  1.034971  0.0  0.090237  0.103544  0.000187  1.035544  0.0
H  H21  1  0.95892956  0.36599048  0.89428574  1  0.086312  -0.000207  0.967017  0.0  0.103822  -0.000158  1.034955  0.0  0.104113  -0.000116  1.034578  0.0  0.090379  0.103681  -0.000187  1.035126  0.0
H  H22  1  0.17427330  0.42681732  0.07025142  1  0.085669  -0.000989  0.969995  0.0  0.103596  -0.001137  1.036131  0.0  0.103963  -0.000961  1.03612  0.0  0.083505  0.103495  -0.001201  1.036151  0.0
H  H23  1  0.82591628  0.57340576  0.92965149  1  0.085903  0.000988  0.969978  0.0  0.103564  0.00114  1.036369  0.0  0.103979  0.000963  1.036289  0.0  0.083536  0.103464  0.001203  1.036403  0.0
H  H24  1  0.30046877  0.55351640  0.08371725  1  0.07552  0.000213  0.954125  0.001  0.090303  3.9e-05  1.02312  0.0  0.09021  -4e-05  1.02414  0.0  0.0862  0.090591  0.000151  1.022225  0.001
H  H25  1  0.69998672  0.44641876  0.91628108  1  0.075337  -0.000214  0.953751  -0.001  0.089856  -3.8e-05  1.023064  0.0  0.089753  4.1e-05  1.024104  0.0  0.086008  0.090159  -0.000149  1.022152  -0.001
C  C26  1  0.28291814  0.31264274  0.27626605  1  0.365452  -0.001096  3.70734  -0.002  0.343477  -0.00031  3.960065  -0.001  0.362295  -0.000178  3.965372  0.0  0.152164  0.330373  -0.000453  3.956715  -0.001
C  C27  1  0.71691372  0.68750942  0.72371246  1  0.365526  0.001088  3.706122  0.002  0.343088  0.000304  3.959487  0.001  0.361817  0.000176  3.964757  0.0  0.152252  0.329959  0.000449  3.95618  0.001
C  C28  1  0.49191631  0.28775609  0.21743982  1  0.144112  -0.003091  3.676369  -0.003  0.142857  0.000956  3.915425  0.001  0.151199  -0.000192  3.935207  -0.001  0.114413  0.137447  0.001889  3.902775  0.002
C  C29  1  0.50801840  0.71225968  0.78259234  1  0.143345  0.00315  3.676111  0.003  0.142417  -0.000929  3.91527  -0.001  0.150744  0.000215  3.935071  0.001  0.113888  0.137013  -0.001861  3.902618  -0.002
C  C30  1  0.57604939  0.40200637  0.21610909  1  -0.129104  0.006322  3.694983  0.006  -0.146664  0.002752  3.938418  0.002  -0.15263  0.002679  3.955304  0.002  -0.077  -0.142953  0.002672  3.927307  0.002
C  C31  1  0.42392588  0.59804632  0.78377180  1  -0.129189  -0.006348  3.694675  -0.006  -0.146801  -0.002766  3.93813  -0.002  -0.152764  -0.002691  3.955022  -0.002  -0.077126  -0.143089  -0.002687  3.927003  -0.002
C  C32  1  0.77097741  0.36435181  0.16934701  1  0.025497  -0.005067  3.662356  -0.005  0.009771  -0.001051  3.904531  -0.001  0.016298  -0.001582  3.917996  -0.002  -0.056796  0.005373  -0.00056  3.895806  -0.001
C  C33  1  0.22898235  0.63566275  0.83048557  1  0.026767  0.005103  3.661423  0.005  0.010929  0.001067  3.903701  0.001  0.017455  0.001598  3.917173  0.002  -0.056413  0.006532  0.000575  3.894964  0.001
C  C34  1  0.87613317  0.21458019  0.12382864  1  -0.098951  0.007585  3.708586  0.008  -0.109724  0.003272  3.952452  0.004  -0.116443  0.003009  3.972253  0.004  -0.078911  -0.105676  0.003343  3.939616  0.004
C  C35  1  0.12382455  0.78531447  0.87621648  1  -0.09986  -0.007637  3.707991  -0.008  -0.110588  -0.003296  3.951827  -0.004  -0.117315  -0.00303  3.971619  -0.004  -0.078789  -0.106534  -0.003369  3.939001  -0.004
C  C36  1  0.78079383  0.11048637  0.12217476  1  0.129107  -0.005486  3.680969  -0.007  0.103133  -0.000466  3.92778  -0.002  0.111111  -0.001384  3.949169  -0.003  0.046241  0.098231  0.000288  3.914045  -0.001
C  C37  1  0.21917333  0.88932165  0.87807618  1  0.129645  0.005505  3.67973  0.007  0.103643  0.000472  3.926807  0.002  0.111598  0.001393  3.948241  0.003  0.046045  0.098737  -0.000286  3.913041  0.001
C  C38  1  0.26522091  0.30608305  0.40785488  1  0.158485  0.003495  3.663397  0.004  0.154792  -0.001299  3.904502  -0.001  0.16363  -4.7e-05  3.923715  0.0  0.11738  0.149181  -0.002353  3.892003  -0.002
C  C39  1  0.73455696  0.69400024  0.59216985  1  0.157863  -0.003527  3.664557  -0.004  0.154645  0.001288  3.90517  0.001  0.163505  3.2e-05  3.924395  0.0  0.117244  0.149031  0.002343  3.892671  0.002
C  C40  1  0.26697774  0.43335669  0.45937591  1  -0.117117  -0.006276  3.675973  -0.006  -0.135543  -0.00247  3.920508  -0.002  -0.142159  -0.002429  3.938108  -0.002  -0.076711  -0.131303  -0.002432  3.908497  -0.002
C  C41  1  0.73252444  0.56674036  0.54075906  1  -0.116738  0.006329  3.675581  0.006  -0.135474  0.002483  3.920244  0.002  -0.142044  0.002446  3.937891  0.002  -0.076907  -0.131231  0.002446  3.908242  0.002
C  C42  1  0.26048630  0.41238175  0.57910790  1  0.026465  0.005581  3.67584  0.005  0.007409  0.00085  3.920369  0.001  0.01406  0.001427  3.935355  0.001  -0.061093  0.003155  0.000313  3.910201  0.0
C  C43  1  0.73917839  0.58755395  0.42101488  1  0.026369  -0.005644  3.675222  -0.005  0.007399  -0.000869  3.919723  -0.001  0.01404  -0.001449  3.934707  -0.001  -0.061237  0.003156  -0.000332  3.90952  0.0
C  C44  1  0.24969137  0.26651953  0.64448102  1  -0.107155  -0.007968  3.723639  -0.009  -0.12629  -0.003437  3.987852  -0.004  -0.135796  -0.003069  4.010581  -0.004  -0.082719  -0.120891  -0.003622  3.974101  -0.004
C  C45  1  0.75053068  0.73322185  0.35554962  1  -0.107535  0.008009  3.723394  0.009  -0.126708  0.003454  3.987537  0.004  -0.136242  0.003089  4.010291  0.004  -0.082427  -0.121289  0.003642  3.973777  0.004
C  C46  1  0.24142659  0.14726848  0.58813555  1  0.130364  0.005298  3.687295  0.007  0.099192  2.3e-05  3.94538  0.002  0.106609  0.001092  3.969048  0.003  0.041447  0.094394  -0.000855  3.930736  0.001
C  C47  1  0.75911475  0.85241692  0.41179466  1  0.130165  -0.005322  3.687464  -0.007  0.099109  -3.2e-05  3.945157  -0.002  0.106507  -0.001106  3.96888  -0.003  0.041368  0.094352  0.000847  3.930541  -0.001
C  C48  1  0.17013330  0.52298395  0.11784465  1  -0.082255  -0.00159  3.647808  -0.002  -0.177576  -0.001603  3.91356  -0.002  -0.17051  -0.001285  3.918021  -0.001  -0.161262  -0.182284  -0.001744  3.909638  -0.002
C  C49  1  0.83012629  0.47719303  0.88210674  1  -0.081991  0.001611  3.647269  0.002  -0.176798  0.001602  3.913137  0.002  -0.169801  0.001285  3.917446  0.001  -0.161158  -0.181561  0.001743  3.909256  0.002
N  N50  1  0.24987697  0.16726556  0.47208927  1  -0.308595  -0.08385  3.359345  -0.104  -0.258748  -0.06027  3.643351  -0.08  -0.293058  -0.050901  3.668228  -0.071  -0.351027  -0.23909  -0.064317  3.629163  -0.083
N  N51  1  0.75032007  0.83263156  0.52785961  1  -0.30802  0.083964  3.359287  0.105  -0.257877  0.060339  3.642658  0.08  -0.292199  0.050965  3.667526  0.071  -0.350648  -0.238228  0.064385  3.628481  0.083
N  N52  1  0.59225056  0.14701787  0.16802666  1  -0.314226  0.074269  3.357548  0.093  -0.265711  0.055123  3.645567  0.073  -0.299385  0.0471  3.670073  0.066  -0.351325  -0.246745  0.05806  3.632024  0.075
N  N53  1  0.40766232  0.85291273  0.83213256  1  -0.313338  -0.074403  3.355834  -0.093  -0.265092  -0.055216  3.643885  -0.074  -0.29876  -0.047179  3.668408  -0.066  -0.35065  -0.246122  -0.058161  3.63033  -0.075
Cl  Cl54  1  0.66102372  0.81793749  0.05640405  1  -0.520702  0.099573  1.096655  0.114  -0.513332  0.066858  1.409025  0.081  -0.546467  0.053944  1.379217  0.067  -0.274214  -0.493863  0.072358  1.430232  0.085
Cl  Cl55  1  0.33887140  0.18207473  0.94369013  1  -0.52068  -0.099393  1.097744  -0.114  -0.513219  -0.066734  1.410187  -0.081  -0.546341  -0.053852  1.380349  -0.067  -0.274126  -0.493764  -0.072218  1.431418  -0.085
Cl  Cl56  1  0.24062667  0.86611415  0.24168819  1  -0.416974  0.004024  1.125189  0.006  -0.409625  0.002141  1.438312  0.004  -0.451675  0.001705  1.409469  0.003  -0.24357  -0.385304  0.001451  1.458877  0.003
Cl  Cl57  1  0.75912102  0.13412987  0.75822369  1  -0.416815  -0.004049  1.124864  -0.006  -0.409353  -0.002158  1.437746  -0.004  -0.45138  -0.001725  1.408905  -0.003  -0.243527  -0.385091  -0.001465  1.458361  -0.003
Cl  Cl58  1  0.19588200  0.82267648  0.53602262  1  -0.493586  -0.125639  1.07744  -0.145  -0.500757  -0.07847  1.391755  -0.095  -0.539593  -0.061726  1.367837  -0.077  -0.283148  -0.477153  -0.086439  1.408602  -0.102
Cl  Cl59  1  0.80443579  0.17726817  0.46385716  1  -0.49341  0.125431  1.078596  0.144  -0.500326  0.07835  1.392876  0.095  -0.539158  0.061647  1.368928  0.077  -0.282903  -0.476747  0.0863  1.409764  0.102
O  O60  1  0.23195481  0.18753893  0.25201672  1  -0.606595  0.025047  2.131373  0.033  -0.593018  0.012335  2.463176  0.018  -0.652308  0.008984  2.463281  0.014  -0.377601  -0.556708  0.013225  2.46546  0.019
O  O61  1  0.76772804  0.81275726  0.74792743  1  -0.606831  -0.024944  2.132114  -0.033  -0.593126  -0.012285  2.46423  -0.018  -0.652487  -0.008962  2.464495  -0.014  -0.3779  -0.556779  -0.01317  2.466446  -0.019
O  O62  1  0.15285657  0.47264731  0.24093665  1  -0.303771  0.004544  2.251897  0.006  -0.236501  0.002523  2.494775  0.004  -0.256038  0.00117  2.496977  0.002  -0.209777  -0.221384  0.003798  2.491859  0.005
O  O63  1  0.84729156  0.52758833  0.75899000  1  -0.303599  -0.004602  2.251086  -0.006  -0.236575  -0.002547  2.494202  -0.004  -0.255906  -0.001185  2.496292  -0.002  -0.209635  -0.2214  -0.003833  2.491236  -0.005
