# generated using pymatgen
data_Cu4H24C25I4(NO)4
_symmetry_space_group_name_H-M   'P 1'
_cell_length_a   9.92146860
_cell_length_b   10.60596904
_cell_length_c   10.60594378
_cell_angle_alpha   77.36292211
_cell_angle_beta   62.11265557
_cell_angle_gamma   62.11260707
_symmetry_Int_Tables_number   1
_chemical_formula_structural   Cu4H24C25I4(NO)4
_chemical_formula_sum   'Cu4 H24 C25 I4 N4 O4'
_cell_volume   871.86895539
_cell_formula_units_Z   1
loop_
 _symmetry_equiv_pos_site_id
 _symmetry_equiv_pos_as_xyz
  1  'x, y, z'
loop_
 _atom_site_type_symbol
 _atom_site_label
 _atom_site_symmetry_multiplicity
 _atom_site_fract_x
 _atom_site_fract_y
 _atom_site_fract_z
 _atom_site_occupancy
 _atom_site_hle17_bader_spin_density
 _atom_site_hle17_ddec_charge
 _atom_site_hle17_ddec_spin_density
 _atom_site_hle17_ddec_sum_bond_order
 _atom_site_hle17_magmom
 _atom_site_hse06_10hf_bader_spin_density
 _atom_site_hse06_10hf_ddec_charge
 _atom_site_hse06_10hf_ddec_spin_density
 _atom_site_hse06_10hf_ddec_sum_bond_order
 _atom_site_hse06_10hf_magmom
 _atom_site_hse06_bader_spin_density
 _atom_site_hse06_ddec_charge
 _atom_site_hse06_ddec_spin_density
 _atom_site_hse06_ddec_sum_bond_order
 _atom_site_hse06_magmom
 _atom_site_pbe_bader_spin_density
 _atom_site_pbe_cm5_charge
 _atom_site_pbe_ddec_charge
 _atom_site_pbe_ddec_spin_density
 _atom_site_pbe_ddec_sum_bond_order
 _atom_site_pbe_magmom
Cu  Cu0  1  0.41048463  0.08085438  0.89493840  1  0  0.207261  0  2.268481  0  0  0.140603  0  2.730801  0  0  0.152992  0  2.675306  0  0  0.23569  0.132492  0  2.768618  0
Cu  Cu1  1  0.38627542  0.91914439  0.10506166  1  0  0.206129  0  2.269404  0  0  0.138841  0  2.732203  0  0  0.151323  0  2.676682  0  0  0.235691  0.132492  0  2.7686  0
Cu  Cu2  1  0.69457570  0.89493808  0.91914826  1  0  0.206194  0  2.269388  0  0  0.139011  0  2.732094  0  0  0.151407  0  2.676656  0  0  0.235711  0.132472  0  2.7687  0
Cu  Cu3  1  0.50866483  0.10506280  0.08085398  1  0  0.207071  0  2.268748  0  0  0.140342  0  2.73126  0  0  0.152751  0  2.675781  0  0  0.235669  0.132489  0  2.768544  0
H  H4  1  0.81011455  0.52203241  0.66319024  1  0  0.071158  0  0.951291  0  0  0.078954  0  1.023225  0  0  0.080067  0  1.02167  0  0  0.095878  0.07816  0  1.024153  0
H  H5  1  0.99533929  0.47796844  0.33681154  1  0  0.07077  0  0.951863  0  0  0.078386  0  1.024201  0  0  0.079531  0  1.02264  0  0  0.095864  0.078157  0  1.024196  0
H  H6  1  0.52669735  0.66318965  0.47796593  1  0  0.070969  0  0.951631  0  0  0.078616  0  1.023758  0  0  0.079738  0  1.02221  0  0  0.095873  0.078161  0  1.024166  0
H  H7  1  0.66785653  0.33680798  0.52203312  1  0  0.070853  0  0.951805  0  0  0.078505  0  1.024088  0  0  0.079618  0  1.022571  0  0  0.095882  0.078177  0  1.024176  0
H  H8  1  0.73168731  0.38939177  0.70232312  1  0  0.068657  0  0.975665  0  0  0.079167  0  1.045667  0  0  0.079875  0  1.044739  0  0  0.088376  0.077617  0  1.047805  0
H  H9  1  0.82340580  0.61060700  0.29767396  1  0  0.068334  0  0.976194  0  0  0.078613  0  1.046462  0  0  0.079408  0  1.045403  0  0  0.088385  0.077643  0  1.047767  0
H  H10  1  0.56598740  0.70232163  0.61060965  1  0  0.068621  0  0.975632  0  0  0.079167  0  1.045532  0  0  0.079857  0  1.044616  0  0  0.088379  0.077627  0  1.047793  0
H  H11  1  0.87892549  0.29767509  0.38938984  1  0  0.068269  0  0.976371  0  0  0.078459  0  1.046848  0  0  0.079311  0  1.045688  0  0  0.088371  0.077608  0  1.047822  0
H  H12  1  0.86496710  0.36772158  0.83945338  1  0  0.120275  0  0.965894  0  0  0.128831  0  1.029736  0  0  0.131948  0  1.029609  0  0  0.106898  0.126321  0  1.030476  0
H  H13  1  0.07214164  0.63227874  0.16054953  1  0  0.120381  0  0.9657  0  0  0.128987  0  1.029422  0  0  0.132012  0  1.029426  0  0  0.106894  0.126291  0  1.030445  0
H  H14  1  0.29557878  0.83945283  0.63227168  1  0  0.120249  0  0.965811  0  0  0.128742  0  1.029723  0  0  0.131855  0  1.029602  0  0  0.106898  0.126364  0  1.030361  0
H  H15  1  0.76731339  0.16054596  0.36772131  1  0  0.120495  0  0.965637  0  0  0.129161  0  1.029287  0  0  0.132178  0  1.029297  0  0  0.106895  0.126325  0  1.030433  0
H  H16  1  0.05034697  0.25731643  0.96432486  1  0  0.067081  0  0.982642  0  0  0.075644  0  1.049104  0  0  0.078031  0  1.046746  0  0  0.09388  0.074552  0  1.049685  0
H  H17  1  0.27199346  0.74267920  0.03567854  1  0  0.067444  0  0.982186  0  0  0.076328  0  1.048173  0  0  0.078639  0  1.045926  0  0  0.093862  0.074557  0  1.049699  0
H  H18  1  0.98532511  0.96432340  0.74268161  1  0  0.067405  0  0.982239  0  0  0.07622  0  1.048325  0  0  0.078555  0  1.046038  0  0  0.093852  0.074545  0  1.049702  0
H  H19  1  0.69233110  0.03568007  0.25731943  1  0  0.067084  0  0.982572  0  0  0.075675  0  1.049014  0  0  0.078047  0  1.046678  0  0  0.09387  0.074536  0  1.049684  0
H  H20  1  0.46763538  0.05419494  0.59798628  1  0  0.077239  0  0.933137  0  0  0.085265  0  0.998519  0  0  0.088103  0  0.995473  0  0  0.108224  0.082347  0  1.002013  0
H  H21  1  0.11981502  0.94580418  0.40201644  1  0  0.076986  0  0.933416  0  0  0.084537  0  0.999504  0  0  0.087477  0  0.996292  0  0  0.108233  0.082374  0  1.001826  0
H  H22  1  0.93438027  0.59798610  0.94580478  1  0  0.077044  0  0.933322  0  0  0.084729  0  0.999148  0  0  0.087643  0  0.995987  0  0  0.10822  0.082348  0  1.001884  0
H  H23  1  0.47816876  0.40201688  0.05419906  1  0  0.077162  0  0.933176  0  0  0.085115  0  0.998695  0  0  0.087961  0  0.995633  0  0  0.108214  0.082337  0  1.00193  0
H  H24  1  0.29897309  0.15565674  0.45374513  1  0  0.127887  0  0.95087  0  0  0.133787  0  1.018217  0  0  0.137519  0  1.017055  0  0  0.104378  0.130249  0  1.020905  0
H  H25  1  0.90836985  0.84434585  0.54625709  1  0  0.127421  0  0.951758  0  0  0.132987  0  1.019875  0  0  0.136845  0  1.018485  0  0  0.104354  0.13022  0  1.020886  0
H  H26  1  0.24728101  0.45374564  0.84434061  1  0  0.127434  0  0.951761  0  0  0.132977  0  1.019848  0  0  0.136837  0  1.018474  0  0  0.104381  0.130254  0  1.020912  0
H  H27  1  0.54537298  0.54625614  0.15565733  1  0  0.127883  0  0.950885  0  0  0.1338  0  1.018275  0  0  0.137518  0  1.017117  0  0  0.104349  0.130212  0  1.0209  0
C  C28  1  0.75000208  0.49999890  0.50000021  1  0  0.052334  0  3.572629  0  0  0.066537  0  3.814297  0  0  0.064092  0  3.830738  0  0  -0.015671  0.067931  0  3.802751  0
C  C29  1  0.81174719  0.43736206  0.61749075  1  0  0.02905  0  3.559719  0  0  -0.033439  0  3.813777  0  0  -0.02627  0  3.81967  0  0  -0.071791  -0.037404  0  3.808721  0
C  C30  1  0.86660134  0.56263747  0.38251029  1  0  0.029241  0  3.559734  0  0  -0.032848  0  3.813201  0  0  -0.0258  0  3.819192  0  0  -0.071763  -0.037448  0  3.80874  0
C  C31  1  0.57076273  0.61748909  0.56263691  1  0  0.029171  0  3.559752  0  0  -0.033122  0  3.813804  0  0  -0.025964  0  3.819701  0  0  -0.071807  -0.037447  0  3.808678  0
C  C32  1  0.75089442  0.38250786  0.43736183  1  0  0.029216  0  3.559755  0  0  -0.032763  0  3.813115  0  0  -0.025718  0  3.819089  0  0  -0.071808  -0.037476  0  3.80874  0
C  C33  1  0.06858066  0.27267572  0.63406251  1  0  0.334528  0  3.802835  0  0  0.319745  0  4.058448  0  0  0.337652  0  4.070543  0  0  0.104135  0.307664  0  4.05  0
C  C34  1  0.97531553  0.72732480  0.36593906  1  0  0.334477  0  3.802572  0  0  0.31968  0  4.058115  0  0  0.337606  0  4.070173  0  0  0.104127  0.307581  0  4.049896  0
C  C35  1  0.29735654  0.63406298  0.72732017  1  0  0.334602  0  3.802667  0  0  0.319851  0  4.058184  0  0  0.337773  0  4.070288  0  0  0.104201  0.307741  0  4.049902  0
C  C36  1  0.65874693  0.36593755  0.27267735  1  0  0.334501  0  3.80276  0  0  0.319778  0  4.058317  0  0  0.337694  0  4.070346  0  0  0.104176  0.307663  0  4.04993  0
C  C37  1  0.99764294  0.30006970  0.78010876  1  0  -0.260992  0  3.750953  0  0  -0.278052  0  3.997543  0  0  -0.289581  0  4.018119  0  0  -0.110066  -0.27053  0  3.983704  0
C  C38  1  0.07782154  0.69993046  0.21989273  1  0  -0.261026  0  3.75106  0  0  -0.278208  0  3.997946  0  0  -0.289631  0  4.018418  0  0  -0.110066  -0.270498  0  3.983678  0
C  C39  1  0.22224618  0.78010699  0.69992618  1  0  -0.261038  0  3.751053  0  0  -0.278161  0  3.997885  0  0  -0.289667  0  4.018438  0  0  -0.110111  -0.270641  0  3.983756  0
C  C40  1  0.70228655  0.21989286  0.30006929  1  0  -0.261131  0  3.751059  0  0  -0.278257  0  3.997622  0  0  -0.289698  0  4.018133  0  0  -0.110081  -0.270571  0  3.983806  0
C  C41  1  0.10131323  0.23803191  0.85065410  1  0  0.147744  0  3.722827  0  0  0.122472  0  3.961585  0  0  0.131229  0  3.979358  0  0  0.035995  0.116544  0  3.948613  0
C  C42  1  0.19000236  0.76196527  0.14934511  1  0  0.14743  0  3.722681  0  0  0.121897  0  3.961346  0  0  0.130654  0  3.979081  0  0  0.036032  0.116562  0  3.948581  0
C  C43  1  0.04803183  0.85065630  0.76196338  1  0  0.147614  0  3.722683  0  0  0.122119  0  3.961455  0  0  0.130885  0  3.979243  0  0  0.036029  0.116551  0  3.94868  0
C  C44  1  0.66065313  0.14934746  0.23803584  1  0  0.147675  0  3.722857  0  0  0.1224  0  3.961462  0  0  0.131129  0  3.979191  0  0  0.036054  0.116611  0  3.948642  0
C  C45  1  0.33355800  0.12476243  0.64662608  1  0  0.130473  0  3.728162  0  0  0.09988  0  3.97943  0  0  0.108471  0  3.997381  0  0  0.033231  0.094412  0  3.967236  0
C  C46  1  0.10494378  0.87523300  0.35337275  1  0  0.130418  0  3.728562  0  0  0.100002  0  3.979633  0  0  0.108644  0  3.997548  0  0  0.03323  0.09439  0  3.967382  0
C  C47  1  0.01981958  0.64662768  0.87523522  1  0  0.130525  0  3.728009  0  0  0.100139  0  3.978806  0  0  0.108752  0  3.996781  0  0  0.033207  0.094372  0  3.967254  0
C  C48  1  0.54167831  0.35337589  0.12476544  1  0  0.130428  0  3.72843  0  0  0.099832  0  3.979814  0  0  0.108441  0  3.997734  0  0  0.03327  0.09445  0  3.967144  0
C  C49  1  0.24048882  0.18061838  0.56680146  1  0  -0.234197  0  3.710115  0  0  -0.249917  0  3.955922  0  0  -0.260657  0  3.975025  0  0  -0.099695  -0.243025  0  3.943804  0
C  C50  1  0.98790846  0.81938384  0.43319858  1  0  -0.234163  0  3.710649  0  0  -0.249602  0  3.956149  0  0  -0.260363  0  3.975186  0  0  -0.099668  -0.242946  0  3.943803  0
C  C51  1  0.19270720  0.56680273  0.81938090  1  0  -0.234117  0  3.710504  0  0  -0.249535  0  3.956012  0  0  -0.260344  0  3.975147  0  0  -0.099736  -0.243046  0  3.943804  0
C  C52  1  0.57889468  0.43319948  0.18061922  1  0  -0.234284  0  3.710102  0  0  -0.250007  0  3.95581  0  0  -0.260709  0  3.97484  0  0  -0.099724  -0.243034  0  3.943668  0
I  I53  1  0.18716693  0.21350198  0.15310458  1  0  -0.345482  0  1.569812  0  0  -0.314225  0  1.977688  0  0  -0.323599  0  1.938118  0  0  -0.179044  -0.307243  0  2.00444  0
I  I54  1  0.55377657  0.78649882  0.84688922  1  0  -0.346111  0  1.569078  0  0  -0.315  0  1.976289  0  0  -0.324038  0  1.936801  0  0  -0.179041  -0.307241  0  2.004478  0
I  I55  1  0.65972881  0.15310606  0.78649524  1  0  -0.345492  0  1.569706  0  0  -0.313964  0  1.977114  0  0  -0.323242  0  1.937671  0  0  -0.179042  -0.307237  0  2.004455  0
I  I56  1  0.59933521  0.84689280  0.21349939  1  0  -0.345642  0  1.5694  0  0  -0.314197  0  1.976897  0  0  -0.323474  0  1.937418  0  0  -0.179036  -0.30723  0  2.004449  0
N  N57  1  0.26719278  0.15332297  0.78694000  1  0  -0.281661  0  3.369516  0  0  -0.208878  0  3.649945  0  0  -0.225986  0  3.66264  0  0  -0.372875  -0.197145  0  3.640906  0
N  N58  1  0.20745349  0.84667493  0.21306408  1  0  -0.281433  0  3.369957  0  0  -0.2084  0  3.650281  0  0  -0.22552  0  3.662974  0  0  -0.372894  -0.197182  0  3.641062  0
N  N59  1  0.94586876  0.78693853  0.84667701  1  0  -0.281272  0  3.369573  0  0  -0.208179  0  3.649736  0  0  -0.22533  0  3.662412  0  0  -0.372888  -0.197128  0  3.640917  0
N  N60  1  0.57947982  0.21306463  0.15332761  1  0  -0.28183  0  3.369807  0  0  -0.209083  0  3.650359  0  0  -0.226152  0  3.663082  0  0  -0.37294  -0.197189  0  3.640929  0
O  O61  1  0.98229920  0.32960518  0.55274084  1  0  -0.27096  0  2.331007  0  0  -0.195118  0  2.560018  0  0  -0.214699  0  2.56218  0  0  -0.169285  -0.181969  0  2.557639  0
O  O62  1  0.86464209  0.67039620  0.44725871  1  0  -0.270711  0  2.330326  0  0  -0.194786  0  2.558853  0  0  -0.214392  0  2.56112  0  0  -0.169297  -0.181926  0  2.557647  0
O  O63  1  0.46495918  0.55273958  0.67039272  1  0  -0.270996  0  2.330763  0  0  -0.195302  0  2.559604  0  0  -0.214918  0  2.561821  0  0  -0.169268  -0.181958  0  2.557668  0
O  O64  1  0.68809878  0.44725681  0.32960644  1  0  -0.270647  0  2.330843  0  0  -0.194739  0  2.559717  0  0  -0.214319  0  2.561924  0  0  -0.169262  -0.181885  0  2.557641  0
