# generated using pymatgen
data_Cu2H5C9O7
_symmetry_space_group_name_H-M   'P 1'
_cell_length_a   6.95302348
_cell_length_b   19.36540861
_cell_length_c   19.36532831
_cell_angle_alpha   89.98220825
_cell_angle_beta   90.00000392
_cell_angle_gamma   89.99989945
_symmetry_Int_Tables_number   1
_chemical_formula_structural   Cu2H5C9O7
_chemical_formula_sum   'Cu16 H40 C72 O56'
_cell_volume   2607.50532654
_cell_formula_units_Z   8
loop_
 _symmetry_equiv_pos_site_id
 _symmetry_equiv_pos_as_xyz
  1  'x, y, z'
loop_
 _atom_site_type_symbol
 _atom_site_label
 _atom_site_symmetry_multiplicity
 _atom_site_fract_x
 _atom_site_fract_y
 _atom_site_fract_z
 _atom_site_occupancy
 _atom_site_pbe_bader_charge
 _atom_site_pbe_bader_spin_density
 _atom_site_pbe_cm5_charge
 _atom_site_pbe_ddec_charge
 _atom_site_pbe_ddec_spin_density
 _atom_site_pbe_ddec_sum_bond_order
 _atom_site_pbe_magmom
Cu  Cu0  1  0.49998661  0.67874166  0.17874881  1  0.580343  0.000241  0.413022  0.339627  0.000192  2.212517  0.0
Cu  Cu1  1  0.50000785  0.82124687  0.32125616  1  0.579819  -0.000241  0.412984  0.339623  -0.000192  2.212474  0.0
Cu  Cu2  1  0.50000335  0.32129228  0.67870753  1  0.641969  0.0  0.413042  0.339612  0.0  2.212804  0.0
Cu  Cu3  1  0.50000371  0.17870512  0.82129684  1  0.642425  -0.0  0.413178  0.339638  -0.0  2.213149  0.0
Cu  Cu4  1  0.49998899  0.32125414  0.82125767  1  0.580339  -0.000241  0.413032  0.339628  -0.000192  2.212689  0.0
Cu  Cu5  1  0.50001520  0.17874274  0.67874567  1  0.580237  0.000241  0.41299  0.33958  0.000192  2.212599  0.0
Cu  Cu6  1  0.49999669  0.67869836  0.32130101  1  0.642407  -0.0  0.41321  0.339645  -0.0  2.213138  0.0
Cu  Cu7  1  0.49999921  0.82129172  0.17870550  1  0.642543  -0.0  0.413086  0.339662  -0.0  2.212871  0.0
Cu  Cu8  1  0.35722034  0.52918620  0.52915287  1  1.0943  -0.551751  0.68685  0.866  -0.706477  2.275588  -0.549
Cu  Cu9  1  0.35721068  0.97085011  0.97081913  1  1.093685  0.551206  0.686811  0.865921  0.705798  2.275708  0.548
Cu  Cu10  1  0.35714448  0.97078596  0.52921134  1  1.092341  -0.551128  0.686449  0.865339  -0.705777  2.274378  -0.548
Cu  Cu11  1  0.35713122  0.52920748  0.97078959  1  1.09237  -0.551104  0.686375  0.864912  -0.705746  2.27507  -0.548
Cu  Cu12  1  0.64285732  0.47079039  0.02921534  1  1.090871  0.551131  0.686472  0.865365  0.705774  2.274431  0.548
Cu  Cu13  1  0.64286707  0.02921036  0.47079256  1  1.091019  0.551129  0.686398  0.864937  0.705771  2.275097  0.548
Cu  Cu14  1  0.64278792  0.02917978  0.02915171  1  1.092339  -0.551211  0.686752  0.86559  -0.705805  2.27602  -0.548
Cu  Cu15  1  0.64277683  0.47084628  0.47081539  1  1.092638  0.551761  0.68686  0.86585  0.706484  2.275736  0.549
H  H16  1  0.99931068  0.56917101  0.36077462  1  0.150036  -0.000206  0.114222  0.125099  -0.000207  1.029166  0.0
H  H17  1  0.99930259  0.93082185  0.13922777  1  0.150069  0.000203  0.114133  0.124937  0.000205  1.029513  0.0
H  H18  1  0.99929880  0.13921331  0.56915595  1  0.149833  -0.000206  0.114058  0.124815  -0.000207  1.029868  0.0
H  H19  1  0.99926954  0.36078790  0.93084844  1  0.149575  -0.000204  0.113964  0.124651  -0.000205  1.029878  0.0
H  H20  1  0.00070377  0.43084358  0.86078607  1  0.150583  0.000206  0.114042  0.124845  0.000207  1.029824  0.0
H  H21  1  0.00073914  0.06915052  0.63921417  1  0.150328  0.000204  0.11396  0.124641  0.000205  1.0299  0.0
H  H22  1  0.00069689  0.86077307  0.06917166  1  0.150899  -0.000204  0.114123  0.124966  -0.000205  1.029476  0.0
H  H23  1  0.00068596  0.63922611  0.43082968  1  0.151085  0.000206  0.114206  0.125063  0.000207  1.029283  0.0
H  H24  1  0.00069799  0.43082531  0.63922721  1  0.150884  0.000206  0.11416  0.125014  0.000207  1.029447  0.0
H  H25  1  0.00069890  0.06917034  0.86077354  1  0.150257  -0.000204  0.114191  0.125044  -0.000205  1.02927  0.0
H  H26  1  0.00072713  0.86078559  0.43084846  1  0.15039  0.000207  0.113989  0.124738  0.000207  1.029839  0.0
H  H27  1  0.00069887  0.63921565  0.06915442  1  0.150222  0.000205  0.114075  0.124837  0.000205  1.029902  0.0
H  H28  1  0.99927470  0.56915429  0.13921421  1  0.149587  -0.000206  0.113981  0.12469  -0.000207  1.029877  0.0
H  H29  1  0.99929830  0.93084064  0.36078560  1  0.149819  -0.000203  0.114053  0.124799  -0.000205  1.029877  0.0
H  H30  1  0.99930891  0.13922842  0.93082862  1  0.151114  0.000204  0.114187  0.125051  0.000205  1.029303  0.0
H  H31  1  0.99931121  0.36077125  0.56917990  1  0.150158  -0.000206  0.114094  0.124887  -0.000207  1.02959  0.0
H  H32  1  0.48344033  0.48517982  0.24997776  1  0.104393  0.000711  0.113355  0.13162  0.000565  0.982106  0.0
H  H33  1  0.48344148  0.01482465  0.25001671  1  0.10459  1e-06  0.11337  0.131663  1e-06  0.982122  0.0
H  H34  1  0.48344668  0.24998121  0.48517580  1  0.104572  0.00071  0.113334  0.131567  0.000563  0.982142  0.0
H  H35  1  0.48343944  0.25002222  0.01482177  1  0.104358  -0.0  0.113337  0.131594  -0.0  0.982107  0.0
H  H36  1  0.51655252  0.51482063  0.75001787  1  0.104608  -0.000709  0.113322  0.13158  -0.000563  0.9821  0.0
H  H37  1  0.51657008  0.98517942  0.74997841  1  0.104453  0.0  0.113374  0.131644  1e-06  0.982152  0.0
H  H38  1  0.51654910  0.74998494  0.98517696  1  0.104514  -1e-06  0.11337  0.131701  -1e-06  0.98208  0.0
H  H39  1  0.51655624  0.75002492  0.51482035  1  0.104344  -0.000711  0.113346  0.131603  -0.000565  0.982119  0.0
H  H40  1  0.05470573  0.60525908  0.60547645  1  0.606841  0.00025  0.332558  0.412563  0.000123  0.864571  0.0
H  H41  1  0.05471368  0.89453004  0.89473260  1  0.606845  -0.000253  0.332518  0.412532  -0.000124  0.864644  0.0
H  H42  1  0.05418726  0.89458012  0.60545270  1  0.60332  0.000252  0.332369  0.412302  0.000123  0.864133  0.0
H  H43  1  0.05413334  0.60545431  0.89457713  1  0.603359  0.000252  0.332307  0.412397  0.000123  0.864008  0.0
H  H44  1  0.94581637  0.39454821  0.10542109  1  0.603314  -0.000252  0.332363  0.412309  -0.000123  0.864125  0.0
H  H45  1  0.94586888  0.10542034  0.39454293  1  0.603162  -0.000252  0.332305  0.412376  -0.000123  0.864025  0.0
H  H46  1  0.94529212  0.10523852  0.10549750  1  0.607335  0.000252  0.332598  0.412443  0.000124  0.864577  0.0
H  H47  1  0.94528138  0.39449193  0.39477586  1  0.607052  -0.00025  0.332568  0.412512  -0.000123  0.864455  0.0
H  H48  1  0.96013498  0.55299689  0.55325360  1  0.630699  -1.2e-05  0.307235  0.404442  -1.8e-05  0.912284  0.0
H  H49  1  0.96013118  0.94675601  0.94698853  1  0.631148  1.1e-05  0.30724  0.404502  1.6e-05  0.912181  0.0
H  H50  1  0.95993842  0.94686983  0.55314546  1  0.63075  -1.3e-05  0.307189  0.404482  -1.8e-05  0.912336  0.0
H  H51  1  0.95990059  0.55314492  0.94686839  1  0.630712  -1.3e-05  0.307208  0.404482  -1.8e-05  0.91231  0.0
H  H52  1  0.04006207  0.44685244  0.05312827  1  0.630765  1.3e-05  0.307204  0.404497  1.8e-05  0.912307  0.0
H  H53  1  0.04010046  0.05312804  0.44685173  1  0.630539  1.3e-05  0.307205  0.404536  1.8e-05  0.912249  0.0
H  H54  1  0.03986886  0.05299292  0.05326120  1  0.630365  -1.1e-05  0.307255  0.404376  -1.6e-05  0.912381  0.0
H  H55  1  0.03985644  0.44672777  0.44702144  1  0.630397  1.2e-05  0.307211  0.404315  1.8e-05  0.912435  0.0
C  C56  1  0.80546395  0.61853451  0.24999424  1  1.516714  0.000279  0.22122  0.580236  0.0002  4.104736  0.0
C  C57  1  0.80546762  0.88146054  0.25000454  1  1.516566  1e-06  0.221151  0.580225  1e-06  4.104227  0.0
C  C58  1  0.80547351  0.24999500  0.61853527  1  1.516493  0.000278  0.221181  0.58026  0.000199  4.104616  0.0
C  C59  1  0.80546778  0.25000892  0.88146291  1  1.51678  1e-06  0.22111  0.580294  0.0  4.10467  0.0
C  C60  1  0.19453035  0.38146801  0.75000398  1  1.516484  -0.000278  0.221221  0.580264  -0.000199  4.104602  0.0
C  C61  1  0.19453962  0.11853372  0.74999265  1  1.516719  -1e-06  0.221138  0.58017  -1e-06  4.104644  0.0
C  C62  1  0.19452939  0.74999825  0.11853117  1  1.51644  -1e-06  0.221237  0.580225  -1e-06  4.10463  0.0
C  C63  1  0.19452942  0.75000390  0.38146449  1  1.516407  -0.000279  0.221193  0.580197  -0.0002  4.104458  0.0
C  C64  1  0.98341110  0.57590019  0.24998485  1  0.082261  0.001237  -0.011803  -0.033521  0.000905  3.954399  0.001
C  C65  1  0.98341888  0.92410146  0.25001599  1  0.083801  -0.0  -0.011816  -0.033426  0.0  3.954526  0.0
C  C66  1  0.98342055  0.24998556  0.57589670  1  0.083873  0.001235  -0.011841  -0.033403  0.000903  3.954541  0.001
C  C67  1  0.98340908  0.25001670  0.92410045  1  0.083714  -1e-06  -0.011807  -0.033642  -1e-06  3.954535  0.0
C  C68  1  0.01658176  0.42410543  0.75001388  1  0.083869  -0.001235  -0.011765  -0.033366  -0.000903  3.954489  -0.001
C  C69  1  0.01658980  0.07589537  0.74998377  1  0.083888  1e-06  -0.011756  -0.033493  1e-06  3.954552  0.0
C  C70  1  0.01658234  0.74998634  0.07589466  1  0.083838  1e-06  -0.011779  -0.033346  0.0  3.954404  0.0
C  C71  1  0.01658525  0.75001645  0.42410358  1  0.083787  -0.001237  -0.011783  -0.03348  -0.000904  3.95448  -0.001
C  C72  1  0.07054640  0.55749770  0.31230990  1  -0.066732  0.000775  -0.05942  -0.061421  0.000457  3.880173  0.001
C  C73  1  0.07053826  0.94251331  0.18768988  1  -0.069047  -0.000869  -0.059505  -0.061802  -0.00052  3.8808  -0.001
C  C74  1  0.07048692  0.18767966  0.55749924  1  -0.066732  0.000778  -0.059423  -0.061495  0.00046  3.880478  0.001
C  C75  1  0.07047659  0.31232317  0.94250512  1  -0.067101  0.00087  -0.059396  -0.061267  0.000521  3.880528  0.001
C  C76  1  0.92951262  0.44250200  0.81232033  1  -0.066711  -0.000778  -0.059382  -0.061473  -0.000459  3.88041  -0.001
C  C77  1  0.92953512  0.05749410  0.68767683  1  -0.067015  -0.00087  -0.059435  -0.061391  -0.00052  3.880574  -0.001
C  C78  1  0.92945412  0.81231292  0.05748097  1  -0.069102  0.000869  -0.059525  -0.061865  0.00052  3.880768  0.001
C  C79  1  0.92945158  0.68769083  0.44250541  1  -0.068711  -0.000774  -0.059348  -0.061439  -0.000457  3.880239  -0.001
C  C80  1  0.92945221  0.44251722  0.68768727  1  -0.069251  -0.00077  -0.059599  -0.061978  -0.000454  3.880914  -0.001
C  C81  1  0.92946035  0.05749127  0.81231040  1  -0.068815  0.000871  -0.059362  -0.061457  0.000522  3.880269  0.001
C  C82  1  0.92951744  0.81232286  0.44250414  1  -0.067154  -0.000782  -0.059414  -0.061443  -0.000462  3.88065  -0.001
C  C83  1  0.92951339  0.68768090  0.05749464  1  -0.066552  -0.000873  -0.059436  -0.061511  -0.000522  3.880593  -0.001
C  C84  1  0.07048311  0.55749691  0.18767582  1  -0.066883  0.000783  -0.059397  -0.061401  0.000463  3.880453  0.001
C  C85  1  0.07049081  0.94250068  0.31232191  1  -0.066938  0.000872  -0.059448  -0.061488  0.000522  3.880644  0.001
C  C86  1  0.07054449  0.18769167  0.94250485  1  -0.06855  -0.000872  -0.059374  -0.06149  -0.000522  3.88025  -0.001
C  C87  1  0.07055134  0.31231169  0.55748557  1  -0.069098  0.000771  -0.059465  -0.061743  0.000455  3.880825  0.001
C  C88  1  0.25028699  0.52492148  0.31249157  1  -0.039025  -0.000892  -0.022321  -0.052853  -0.000608  3.990391  -0.001
C  C89  1  0.25027438  0.97509561  0.18750306  1  -0.039218  -0.000213  -0.022629  -0.053229  -0.000194  3.990587  0.0
C  C90  1  0.25030941  0.18748740  0.52493282  1  -0.038363  -0.000881  -0.022403  -0.053193  -0.000599  3.98997  -0.001
C  C91  1  0.25028470  0.31251738  0.97507051  1  -0.037636  0.000221  -0.022487  -0.053316  0.000202  3.990374  0.0
C  C92  1  0.74968430  0.47506576  0.81251150  1  -0.038371  0.000881  -0.022452  -0.053123  0.000598  3.990021  0.001
C  C93  1  0.74972278  0.02492942  0.68748462  1  -0.037852  -0.00022  -0.022431  -0.053082  -0.000202  3.990165  0.0
C  C94  1  0.74972079  0.81249929  0.02490416  1  -0.038884  0.000211  -0.022622  -0.053217  0.000193  3.990595  0.0
C  C95  1  0.74970820  0.68751129  0.47508273  1  -0.038846  0.000892  -0.022315  -0.052586  0.000607  3.990225  0.001
C  C96  1  0.74972312  0.47509550  0.68750045  1  -0.038941  0.000894  -0.022534  -0.053112  0.00061  3.990362  0.001
C  C97  1  0.74972135  0.02491775  0.81249102  1  -0.038655  0.000214  -0.022327  -0.052655  0.000196  3.990238  0.0
C  C98  1  0.74971221  0.81251770  0.47506849  1  -0.037597  0.000885  -0.022472  -0.053127  0.000602  3.990188  0.001
C  C99  1  0.74968802  0.68749030  0.02492976  1  -0.038374  -0.000218  -0.022451  -0.053261  -0.0002  3.990111  0.0
C  C100  1  0.25028842  0.52493470  0.18748362  1  -0.037869  -0.000885  -0.022488  -0.053105  -0.000602  3.990187  -0.001
C  C101  1  0.25030028  0.97506897  0.31251205  1  -0.038353  0.000218  -0.022396  -0.053188  0.0002  3.990121  0.0
C  C102  1  0.25028644  0.18750943  0.97508114  1  -0.039032  -0.000215  -0.022325  -0.052646  -0.000196  3.990253  0.0
C  C103  1  0.25027890  0.31249846  0.52490205  1  -0.039259  -0.000892  -0.02263  -0.053325  -0.000608  3.990555  -0.001
C  C104  1  0.34154229  0.50900018  0.24998284  1  0.057013  -0.002007  -0.068706  -0.09206  -0.001228  3.909307  -0.002
C  C105  1  0.34154687  0.99100756  0.25001128  1  0.057066  -1e-06  -0.06868  -0.091937  -1e-06  3.909055  0.0
C  C106  1  0.34154870  0.24998531  0.50899362  1  0.056944  -0.002006  -0.068655  -0.091772  -0.001227  3.908938  -0.002
C  C107  1  0.34154444  0.25001839  0.99100249  1  0.057065  -2e-06  -0.068683  -0.092039  -1e-06  3.909127  0.0
C  C108  1  0.65845200  0.49100441  0.75001383  1  0.056867  0.002006  -0.068721  -0.091995  0.001227  3.909009  0.002
C  C109  1  0.65846180  0.00899702  0.74998126  1  0.056869  2e-06  -0.068679  -0.092133  1e-06  3.909192  0.0
C  C110  1  0.65844698  0.74998929  0.00899211  1  0.05683  1e-06  -0.068659  -0.091926  0.0  3.908869  0.0
C  C111  1  0.65845135  0.75001928  0.49100150  1  0.057031  0.002008  -0.068733  -0.092169  0.001228  3.909199  0.002
C  C112  1  0.34709240  0.51223264  0.38034573  1  1.53531  -0.001016  0.209653  0.563096  -0.000891  4.185046  -0.001
C  C113  1  0.34707827  0.98780040  0.11964786  1  1.535816  0.000734  0.210327  0.564031  0.000687  4.183427  0.001
C  C114  1  0.34703440  0.11961833  0.51222889  1  1.536198  -0.001007  0.210239  0.564175  -0.00088  4.183641  -0.001
C  C115  1  0.34701224  0.38038123  0.98777962  1  1.535312  -0.000722  0.210167  0.56411  -0.000677  4.183729  -0.001
C  C116  1  0.65297527  0.48777329  0.88038083  1  1.536156  0.001008  0.210226  0.564121  0.000881  4.183615  0.001
C  C117  1  0.65299366  0.01222246  0.61962149  1  1.535677  0.000725  0.210095  0.563937  0.000677  4.183565  0.001
C  C118  1  0.65291814  0.88035320  0.01220032  1  1.535654  -0.000734  0.210336  0.564006  -0.000687  4.183431  -0.001
C  C119  1  0.65290300  0.61965693  0.48777315  1  1.534934  0.001016  0.20956  0.563014  0.000892  4.184926  0.001
C  C120  1  0.65292203  0.48779673  0.61964628  1  1.535583  0.001021  0.210273  0.563991  0.000893  4.183522  0.001
C  C121  1  0.65290883  0.01222691  0.88034209  1  1.535058  -0.000729  0.209678  0.563294  -0.000685  4.184796  -0.001
C  C122  1  0.65298722  0.88038213  0.48777088  1  1.535862  0.00101  0.210112  0.563991  0.000882  4.183482  0.001
C  C123  1  0.65296623  0.61962335  0.01222169  1  1.535886  0.000723  0.21023  0.564385  0.000677  4.183862  0.001
C  C124  1  0.34700320  0.51222716  0.11961790  1  1.535868  -0.001009  0.210165  0.56413  -0.000881  4.183321  -0.001
C  C125  1  0.34703515  0.98777593  0.38037931  1  1.535829  -0.000723  0.210228  0.56421  -0.000677  4.183967  -0.001
C  C126  1  0.34709486  0.11965707  0.98777104  1  1.535234  0.000729  0.209719  0.563247  0.000684  4.184908  0.001
C  C127  1  0.34707404  0.38035334  0.51219770  1  1.53589  -0.001021  0.210281  0.564094  -0.000894  4.183664  -0.001
O  O128  1  0.73621776  0.63625664  0.19151223  1  -1.122133  0.000127  -0.328549  -0.461907  8e-05  2.541742  0.0
O  O129  1  0.73622297  0.86374207  0.30848603  1  -1.122079  -0.000122  -0.328495  -0.461826  -6.3e-05  2.541556  0.0
O  O130  1  0.73614238  0.30847336  0.63618404  1  -1.121683  0.000133  -0.328766  -0.462092  8.7e-05  2.541499  0.0
O  O131  1  0.73613837  0.19153215  0.86381053  1  -1.12165  0.000108  -0.328683  -0.461995  5.7e-05  2.541496  0.0
O  O132  1  0.26386138  0.36381671  0.69152436  1  -1.121716  -0.000132  -0.328798  -0.462125  -8.6e-05  2.541314  0.0
O  O133  1  0.26387201  0.13618859  0.80846865  1  -1.121714  -0.000108  -0.328706  -0.46197  -5.7e-05  2.54148  0.0
O  O134  1  0.26377135  0.69151646  0.13625180  1  -1.121855  0.000122  -0.328526  -0.461815  6.3e-05  2.541451  0.0
O  O135  1  0.26377253  0.80848720  0.36374231  1  -1.122037  -0.000127  -0.328514  -0.461854  -8e-05  2.54151  0.0
O  O136  1  0.26377653  0.36374795  0.80848444  1  -1.121989  -0.000126  -0.328528  -0.461839  -8e-05  2.541705  0.0
O  O137  1  0.26378570  0.13625374  0.69151064  1  -1.122276  0.000123  -0.328576  -0.461939  6.3e-05  2.541769  0.0
O  O138  1  0.26386630  0.69152554  0.36381985  1  -1.121552  -0.000133  -0.328771  -0.462065  -8.7e-05  2.541631  0.0
O  O139  1  0.26386168  0.80847554  0.13617994  1  -1.121806  -0.000108  -0.328831  -0.46215  -5.7e-05  2.541515  0.0
O  O140  1  0.73612717  0.63618219  0.30847230  1  -1.12174  0.000133  -0.32881  -0.462067  8.7e-05  2.541705  0.0
O  O141  1  0.73613667  0.86381549  0.19152440  1  -1.121664  0.000108  -0.328783  -0.46211  5.7e-05  2.541311  0.0
O  O142  1  0.73621719  0.30848967  0.86374486  1  -1.122259  -0.000122  -0.328522  -0.461923  -6.3e-05  2.541835  0.0
O  O143  1  0.73622896  0.19151274  0.63625177  1  -1.121867  0.000127  -0.328482  -0.46186  8e-05  2.541653  0.0
O  O144  1  0.25400048  0.53249868  0.43371788  1  -1.111173  -0.085604  -0.31046  -0.53211  -0.055517  2.404799  -0.077
O  O145  1  0.25375201  0.96769863  0.06626020  1  -1.111807  0.085006  -0.310758  -0.533365  0.055142  2.404319  0.077
O  O146  1  0.25376863  0.06625461  0.53246507  1  -1.112557  -0.085282  -0.310464  -0.532816  -0.055312  2.403815  -0.077
O  O147  1  0.25375484  0.43374450  0.96753517  1  -1.112591  -0.08521  -0.310437  -0.532624  -0.055273  2.403935  -0.077
O  O148  1  0.74623403  0.46753664  0.93374687  1  -1.112633  0.085269  -0.310508  -0.532794  0.055305  2.403787  0.077
O  O149  1  0.74624368  0.03246732  0.56625597  1  -1.11261  0.085206  -0.310334  -0.532483  0.055271  2.403862  0.077
O  O150  1  0.74623425  0.93373855  0.03230736  1  -1.1118  -0.085015  -0.310742  -0.533289  -0.055148  2.404431  -0.077
O  O151  1  0.74600075  0.56628342  0.46751480  1  -1.110921  0.085574  -0.310399  -0.532133  0.055498  2.404768  0.077
O  O152  1  0.74624119  0.46769800  0.56626017  1  -1.11209  0.085267  -0.31078  -0.53346  0.055304  2.404566  0.077
O  O153  1  0.74602223  0.03247481  0.93371682  1  -1.110896  -0.085293  -0.310371  -0.532124  -0.055325  2.404571  -0.077
O  O154  1  0.74624724  0.93374843  0.46753727  1  -1.112818  0.085347  -0.310457  -0.532702  0.055353  2.404024  0.077
O  O155  1  0.74622651  0.56626060  0.03246718  1  -1.112301  0.085145  -0.310483  -0.53284  0.055233  2.403836  0.077
O  O156  1  0.25374875  0.53246537  0.06625186  1  -1.112841  -0.085355  -0.310469  -0.532759  -0.055358  2.403964  -0.077
O  O157  1  0.25377075  0.96753572  0.43374276  1  -1.112312  -0.085146  -0.310418  -0.532704  -0.055234  2.40395  -0.077
O  O158  1  0.25398010  0.06628517  0.96751734  1  -1.110932  0.085306  -0.310399  -0.532102  0.055334  2.404573  0.077
O  O159  1  0.25374473  0.43374185  0.53228873  1  -1.11246  -0.085249  -0.310745  -0.53346  -0.055294  2.404381  -0.077
O  O160  1  0.51208256  0.48366827  0.38021901  1  -1.092902  0.085861  -0.310242  -0.509047  0.05575  2.315625  0.077
O  O161  1  0.51225482  0.01621224  0.11977754  1  -1.094345  -0.085338  -0.310793  -0.509717  -0.055492  2.31569  -0.077
O  O162  1  0.51207483  0.11978226  0.48371863  1  -1.093501  0.085552  -0.310429  -0.509342  0.055561  2.316054  0.077
O  O163  1  0.51203819  0.38022063  0.01630062  1  -1.092956  0.085551  -0.310307  -0.509319  0.05559  2.315792  0.077
O  O164  1  0.48792902  0.51628090  0.88021735  1  -1.093413  -0.08556  -0.310388  -0.509316  -0.055566  2.315988  -0.077
O  O165  1  0.48796956  0.98369852  0.61978100  1  -1.09323  -0.085554  -0.310409  -0.50939  -0.05559  2.315678  -0.077
O  O166  1  0.48774261  0.88022771  0.98378573  1  -1.094178  0.085344  -0.310845  -0.5098  0.055493  2.315647  0.077
O  O167  1  0.48790284  0.61978422  0.51633035  1  -1.092785  -0.085863  -0.310233  -0.509108  -0.055754  2.315395  -0.077
O  O168  1  0.48774346  0.51621083  0.61977509  1  -1.094116  -0.085524  -0.3108  -0.50973  -0.055576  2.315621  -0.077
O  O169  1  0.48789624  0.98368493  0.88021604  1  -1.092992  0.08564  -0.310384  -0.509338  0.05565  2.315643  0.077
O  O170  1  0.48794535  0.88021974  0.51628371  1  -1.093333  -0.085627  -0.31036  -0.509322  -0.055606  2.315771  -0.077
O  O171  1  0.48793740  0.61978343  0.98370327  1  -1.093246  -0.085498  -0.310336  -0.509427  -0.055559  2.315898  -0.077
O  O172  1  0.51204946  0.48371697  0.11978086  1  -1.093098  0.085633  -0.310364  -0.509403  0.055609  2.315711  0.077
O  O173  1  0.51206500  0.01629419  0.38021670  1  -1.093215  0.085492  -0.310381  -0.509422  0.055556  2.315989  0.077
O  O174  1  0.51210067  0.11978254  0.01631834  1  -1.093111  -0.085643  -0.310379  -0.509256  -0.05565  2.315676  -0.077
O  O175  1  0.51225685  0.38022241  0.48378973  1  -1.09433  0.085524  -0.310823  -0.509801  0.055577  2.31578  0.077
O  O176  1  0.08251385  0.57084435  0.57059625  1  -1.207321  0.001686  -0.578815  -0.748599  0.000993  2.061315  0.0
O  O177  1  0.08251589  0.92939717  0.92916089  1  -1.207728  -0.001699  -0.578825  -0.748649  -0.001002  2.061389  0.0
O  O178  1  0.08225266  0.92919876  0.57076834  1  -1.204165  0.00169  -0.578596  -0.748288  0.000996  2.059952  0.0
O  O179  1  0.08221474  0.57077369  0.92919954  1  -1.204251  0.00169  -0.57859  -0.748377  0.000996  2.060026  0.0
O  O180  1  0.91774935  0.42923192  0.07080126  1  -1.204179  -0.001691  -0.578608  -0.748307  -0.000997  2.059949  0.0
O  O181  1  0.91778765  0.07080273  0.42922832  1  -1.203885  -0.001692  -0.578573  -0.748383  -0.000997  2.059973  0.0
O  O182  1  0.91748847  0.07085893  0.07058322  1  -1.207494  0.0017  -0.578908  -0.748366  0.001002  2.061411  0.0
O  O183  1  0.91748044  0.42943965  0.42912203  1  -1.207295  -0.001688  -0.578801  -0.748353  -0.000994  2.061404  0.0
