# generated using pymatgen
data_MgH7(C4O)3
_symmetry_space_group_name_H-M   'P 1'
_cell_length_a   6.80212465
_cell_length_b   37.69806328
_cell_length_c   37.69384508
_cell_angle_alpha   119.64406356
_cell_angle_beta   93.44693864
_cell_angle_gamma   93.44287076
_symmetry_Int_Tables_number   1
_chemical_formula_structural   MgH7(C4O)3
_chemical_formula_sum   'Mg6 H42 C72 O18'
_cell_volume   8340.38512641
_cell_formula_units_Z   6
loop_
 _symmetry_equiv_pos_site_id
 _symmetry_equiv_pos_as_xyz
  1  'x, y, z'
loop_
 _atom_site_type_symbol
 _atom_site_label
 _atom_site_symmetry_multiplicity
 _atom_site_fract_x
 _atom_site_fract_y
 _atom_site_fract_z
 _atom_site_occupancy
 _atom_site_pbe_bader_charge
 _atom_site_pbe_bader_spin_density
 _atom_site_pbe_cm5_charge
 _atom_site_pbe_ddec_charge
 _atom_site_pbe_ddec_spin_density
 _atom_site_pbe_ddec_sum_bond_order
 _atom_site_pbe_magmom
Mg  Mg0  1  0.78663866  0.67089823  0.36310458  1  1.682987  0  0.909038  1.408289  0  1.33371  0
Mg  Mg1  1  0.61558558  0.33263975  0.63840054  1  1.684351  0  0.908407  1.408224  0  1.331607  0
Mg  Mg2  1  0.42361271  0.63694228  0.30783124  1  1.680406  0  0.909137  1.408587  0  1.332993  0
Mg  Mg3  1  0.97709136  0.36156795  0.69419764  1  1.68201  0  0.908554  1.407645  0  1.333081  0
Mg  Mg4  1  0.11571240  0.69218678  0.32913281  1  1.682407  0  0.909044  1.408511  0  1.333227  0
Mg  Mg5  1  0.28283207  0.30576579  0.66730989  1  1.683371  0  0.908526  1.407863  0  1.332863  0
H  H6  1  0.92940823  0.18971686  0.60137407  1  0.082275  0  0.103782  0.108194  0  1.014846  0
H  H7  1  0.85873466  0.11741036  0.56166529  1  0.033659  0  0.097455  0.095655  0  1.010008  0
H  H8  1  0.42989390  0.08416540  0.52210649  1  0.034184  0  0.095227  0.090941  0  1.019365  0
H  H9  1  0.35015041  0.01405972  0.48156609  1  0.058355  0  0.097372  0.095074  0  1.01229  0
H  H10  1  0.43241254  0.94284939  0.44895685  1  0.018738  0  0.098271  0.096643  0  1.009135  0
H  H11  1  0.03730164  0.98614024  0.50293674  1  0.05491  0  0.097521  0.095228  0  1.012998  0
H  H12  1  0.95519460  0.05730769  0.53548456  1  0.008707  0  0.098226  0.096676  0  1.009941  0
H  H13  1  0.95745688  0.91634525  0.46346365  1  0.036685  0  0.095208  0.090586  0  1.020571  0
H  H14  1  0.53096439  0.88200626  0.42280092  1  0.038799  0  0.097486  0.09586  0  1.008063  0
H  H15  1  0.46337289  0.80904788  0.38665834  1  0.072593  0  0.103452  0.107386  0  1.015761  0
H  H16  1  0.16520749  0.79096328  0.41055184  1  0.102961  0  0.106078  0.122376  0  1.008499  0
H  H17  1  0.06593630  0.86058550  0.43653118  1  0.047416  0  0.102299  0.097827  0  1.003861  0
H  H18  1  0.32711391  0.14113489  0.54862947  1  0.086666  0  0.102568  0.098438  0  1.002278  0
H  H19  1  0.23193365  0.21148613  0.57937198  1  0.096805  0  0.106083  0.12257  0  1.006565  0
H  H20  1  0.32824600  0.39867300  0.58835502  1  0.084392  0  0.103664  0.107818  0  1.014973  0
H  H21  1  0.29691355  0.43840181  0.55572032  1  0.049207  0  0.097401  0.09525  0  1.010377  0
H  H22  1  0.90746545  0.47792851  0.56209037  1  0.048145  0  0.095541  0.09072  0  1.019729  0
H  H23  1  0.86858209  0.51859168  0.53258101  1  0.04578  0  0.097469  0.095265  0  1.012101  0
H  H24  1  0.98355173  0.55115903  0.49395210  1  0.018825  0  0.098322  0.096756  0  1.009169  0
H  H25  1  0.53406738  0.49699367  0.48318677  1  0.058551  0  0.097489  0.095113  0  1.012123  0
H  H26  1  0.41913924  0.46445915  0.52179390  1  0.049867  0  0.098414  0.096661  0  1.01001  0
H  H27  1  0.49422577  0.53651377  0.45290822  1  0.029427  0  0.095041  0.090337  0  1.021128  0
H  H28  1  0.10837092  0.57717171  0.45919644  1  0.039805  0  0.097356  0.095411  0  1.00876  0
H  H29  1  0.07687290  0.61337849  0.42240245  1  0.068588  0  0.103662  0.107434  0  1.0152  0
H  H30  1  0.75466520  0.58938282  0.38036266  1  0.103099  0  0.106  0.122107  0  1.008522  0
H  H31  1  0.62927943  0.56334547  0.42394302  1  0.049631  0  0.102477  0.097998  0  1.00392  0
H  H32  1  0.77844254  0.45133280  0.59244087  1  0.061251  0  0.102628  0.098622  0  1.002917  0
H  H33  1  0.65261198  0.42064544  0.63211229  1  0.065222  0  0.106151  0.123081  0  1.005856  0
H  H34  1  0.73955939  0.41164806  0.81025460  1  0.064664  0  0.103455  0.107614  0  1.01521  0
H  H35  1  0.74106068  0.44427368  0.88260936  1  0.01839  0  0.097395  0.095272  0  1.010201  0
H  H36  1  0.34546120  0.43792501  0.91585737  1  0.0367  0  0.095191  0.09095  0  1.019663  0
H  H37  1  0.33616535  0.46742164  0.98599424  1  0.049269  0  0.097222  0.094969  0  1.012534  0
H  H38  1  0.48953556  0.50604460  0.05719090  1  0.046359  0  0.098322  0.09629  0  1.00942  0
H  H39  1  0.05091896  0.51681984  0.01384726  1  0.054568  0  0.097386  0.095595  0  1.011956  0
H  H40  1  0.89772699  0.47814174  0.94269452  1  0.0495  0  0.098319  0.096423  0  1.010219  0
H  H41  1  0.04127163  0.54709034  0.08362978  1  0.021016  0  0.09515  0.090187  0  1.020992  0
H  H42  1  0.64917382  0.54079150  0.11800790  1  0.031226  0  0.097375  0.095991  0  1.008155  0
H  H43  1  0.65457632  0.57759124  0.19100445  1  0.09624  0  0.103525  0.107087  0  1.015295  0
H  H44  1  0.37432855  0.61960487  0.20904232  1  0.087609  0  0.10632  0.122524  0  1.007715  0
H  H45  1  0.20535740  0.57603825  0.13943021  1  0.050544  0  0.102515  0.097938  0  1.003266  0
H  H46  1  0.18582404  0.40750039  0.85884766  1  0.055047  0  0.10269  0.098332  0  1.002935  0
H  H47  1  0.02041478  0.36781690  0.78848548  1  0.066896  0  0.106355  0.123259  0  1.005949  0
C  C48  1  0.52376420  0.24109187  0.60697246  1  0.588128  0  0.096131  0.367876  0  4.072578  0
C  C49  1  0.72440451  0.23427540  0.61325692  1  -0.049914  0  -0.042  -0.203909  0  3.973328  0
C  C50  1  0.77546016  0.19377108  0.59570854  1  -0.049235  0  -0.082957  -0.119737  0  3.949289  0
C  C51  1  0.63840629  0.15940401  0.57201276  1  -0.003415  0  -0.025675  0.079994  0  4.08696  0
C  C52  1  0.70201102  0.11840854  0.55412984  1  -0.0092  0  -0.096661  -0.132554  0  4.018979  0
C  C53  1  0.58618169  0.08276708  0.52959475  1  -0.080623  0  -0.100662  -0.145401  0  4.029248  0
C  C54  1  0.64522384  0.04146724  0.51117436  1  -0.01059  0  -0.016382  0.108  0  4.057423  0
C  C55  1  0.50161636  0.00793022  0.48634104  1  -0.021765  0  -0.09392  -0.135352  0  3.996195  0
C  C56  1  0.54817911  0.96772484  0.46790913  1  -0.027371  0  -0.094005  -0.127927  0  3.987662  0
C  C57  1  0.74228813  0.95870580  0.47331105  1  -0.0727  0  -0.016994  0.107502  0  4.057799  0
C  C58  1  0.88592816  0.99225479  0.49810447  1  0.07563  0  -0.094307  -0.135286  0  3.998087  0
C  C59  1  0.83945244  0.03244268  0.51650613  1  -0.101566  0  -0.094141  -0.128383  0  3.988601  0
C  C60  1  0.80166754  0.91746029  0.45533189  1  -0.016638  0  -0.100359  -0.144772  0  4.029067  0
C  C61  1  0.68763223  0.88153406  0.43092435  1  -0.083818  0  -0.096599  -0.132504  0  4.015605  0
C  C62  1  0.75385760  0.84082986  0.41457237  1  0.094526  0  -0.02546  0.07955  0  4.083662  0
C  C63  1  0.61825964  0.80583752  0.39272626  1  -0.03523  0  -0.082274  -0.117998  0  3.948179  0
C  C64  1  0.67176156  0.76576263  0.37795503  1  -0.004306  0  -0.043237  -0.206463  0  3.973556  0
C  C65  1  0.87340771  0.76009047  0.38511168  1  0.53605  0  0.096811  0.369917  0  4.070882  0
C  C66  1  0.01103529  0.79549412  0.40595024  1  -0.039918  0  -0.10632  -0.21461  0  3.990977  0
C  C67  1  0.95361194  0.83437484  0.42027886  1  -0.052665  0  -0.078565  -0.081063  0  3.969921  0
C  C68  1  0.51602783  0.73112247  0.35543114  1  1.491058  0  0.237945  0.677473  0  4.119288  0
C  C69  1  0.44019087  0.16686612  0.56664233  1  -0.066873  0  -0.078285  -0.081442  0  3.970241  0
C  C70  1  0.38517034  0.20618846  0.58359234  1  -0.018025  0  -0.105822  -0.213618  0  3.989938  0
C  C71  1  0.88169828  0.26804331  0.63796974  1  1.505397  0  0.237773  0.676703  0  4.118568  0
C  C72  1  0.91687860  0.39302965  0.63410244  1  0.594246  0  0.095889  0.368605  0  4.071235  0
C  C73  1  0.11131561  0.38676673  0.62101875  1  -0.027462  0  -0.042139  -0.205688  0  3.97411  0
C  C74  1  0.17991218  0.40432347  0.59806563  1  -0.003888  0  -0.082459  -0.117788  0  3.94908  0
C  C75  1  0.06641949  0.42799800  0.58737346  1  -0.02487  0  -0.025684  0.078615  0  4.086749  0
C  C76  1  0.14768390  0.44590469  0.56426115  1  -0.108681  0  -0.097033  -0.132244  0  4.019092  0
C  C77  1  0.05623275  0.47044179  0.55317894  1  -0.010533  0  -0.100274  -0.144484  0  4.029148  0
C  C78  1  0.13368725  0.48887357  0.53030868  1  0.063413  0  -0.016983  0.107035  0  4.058301  0
C  C79  1  0.01519340  0.51377387  0.52165257  1  -0.055161  0  -0.093843  -0.13502  0  3.995865  0
C  C80  1  0.08026261  0.53218777  0.49987128  1  -0.024659  0  -0.094016  -0.128635  0  3.986978  0
C  C81  1  0.26896729  0.52673011  0.48543187  1  -0.054652  0  -0.017114  0.108866  0  4.057327  0
C  C82  1  0.38757835  0.50188474  0.49416842  1  -0.030524  0  -0.093897  -0.135502  0  3.996731  0
C  C83  1  0.32250856  0.48346960  0.51592787  1  -0.091629  0  -0.094496  -0.128041  0  3.988387  0
C  C84  1  0.34655832  0.54467120  0.46215141  1  -0.015276  0  -0.100083  -0.145632  0  4.030328  0
C  C85  1  0.25689422  0.56904009  0.45058234  1  -0.05405  0  -0.096449  -0.131305  0  4.015654  0
C  C86  1  0.33927104  0.58535748  0.42619390  1  0.024252  0  -0.025927  0.078517  0  4.085349  0
C  C87  1  0.22563988  0.60726469  0.41310597  1  -0.067264  0  -0.082687  -0.117639  0  3.947657  0
C  C88  1  0.29395237  0.62207188  0.38782709  1  0.015851  0  -0.042327  -0.207036  0  3.974791  0
C  C89  1  0.48837821  0.61488451  0.37496257  1  0.571892  0  0.096552  0.370462  0  4.071927  0
C  C90  1  0.60505362  0.59397923  0.38947328  1  -0.015703  0  -0.105918  -0.214593  0  3.990802  0
C  C91  1  0.53328581  0.57963447  0.41401175  1  -0.062482  0  -0.078658  -0.080446  0  3.969682  0
C  C92  1  0.16073765  0.64463362  0.37574796  1  1.50764  0  0.238026  0.678413  0  4.118568  0
C  C93  1  0.87351684  0.43334432  0.60019641  1  -0.062104  0  -0.078472  -0.080831  0  3.970619  0
C  C94  1  0.80159822  0.41640497  0.62257849  1  -5e-05  0  -0.105702  -0.214587  0  3.990868  0
C  C95  1  0.24381048  0.36204210  0.63007223  1  1.480881  0  0.237956  0.677774  0  4.118284  0
C  C96  1  0.28257231  0.36584318  0.75886439  1  0.585941  0  0.096724  0.36924  0  4.071189  0
C  C97  1  0.49006816  0.37895221  0.76569428  1  0.015959  0  -0.04168  -0.20441  0  3.973698  0
C  C98  1  0.58156297  0.40193084  0.80621067  1  -0.122276  0  -0.082713  -0.118837  0  3.949026  0
C  C99  1  0.47888297  0.41263128  0.84059207  1  0.037327  0  -0.025849  0.079924  0  4.085188  0
C  C100  1  0.58334838  0.43573405  0.88160812  1  -0.038788  0  -0.0971  -0.132908  0  4.019211  0
C  C101  1  0.50313556  0.44680496  0.91724512  1  0.001983  0  -0.099579  -0.144396  0  4.029684  0
C  C102  1  0.60359306  0.46965189  0.95854513  1  -0.067959  0  -0.017187  0.107544  0  4.05776  0
C  C103  1  0.49371906  0.47832959  0.99210978  1  0.067376  0  -0.093316  -0.135138  0  3.997171  0
C  C104  1  0.58044739  0.50011711  0.03231469  1  -0.129814  0  -0.094601  -0.127697  0  3.987377  0
C  C105  1  0.78355785  0.51456145  0.04131582  1  -0.004764  0  -0.016103  0.108118  0  4.056968  0
C  C106  1  0.89346883  0.50581931  0.00774252  1  -0.086564  0  -0.094115  -0.136542  0  3.997273  0
C  C107  1  0.80681953  0.48400141  0.96755316  1  0.004071  0  -0.094437  -0.127722  0  3.988098  0
C  C108  1  0.88437503  0.53785607  0.08254590  1  -0.070719  0  -0.100622  -0.143877  0  4.029296  0
C  C109  1  0.80628868  0.54939523  0.11848172  1  0.004521  0  -0.096214  -0.132948  0  4.015769  0
C  C110  1  0.91309569  0.57377968  0.15919074  1  0.023662  0  -0.025502  0.078863  0  4.084403  0
C  C111  1  0.81260995  0.58689752  0.19419503  1  -0.047486  0  -0.08278  -0.117932  0  3.948026  0
C  C112  1  0.90615260  0.61219776  0.23427616  1  -0.031655  0  -0.042028  -0.204992  0  3.973768  0
C  C113  1  0.11345182  0.62504212  0.23995347  1  0.548113  0  0.096121  0.369183  0  4.072712  0
C  C114  1  0.21558666  0.61050073  0.20452891  1  -0.094453  0  -0.106159  -0.214604  0  3.989531  0
C  C115  1  0.11926557  0.58595915  0.16564988  1  0.033357  0  -0.078972  -0.080671  0  3.968919  0
C  C116  1  0.78492578  0.62428573  0.26890261  1  1.51886  0  0.23791  0.677996  0  4.118529  0
C  C117  1  0.27321660  0.39977964  0.83311380  1  -0.036658  0  -0.078656  -0.080922  0  3.970033  0
C  C118  1  0.17893171  0.37737156  0.79378222  1  -0.003086  0  -0.106167  -0.215658  0  3.990589  0
C  C119  1  0.61359732  0.36990733  0.73191834  1  1.514487  0  0.23706  0.6765  0  4.118391  0
O  O120  1  0.34107246  0.73679358  0.34679302  1  -1.237486  0  -0.355125  -0.642027  0  2.150791  0
O  O121  1  0.56079069  0.69449946  0.34495669  1  -1.297362  0  -0.401543  -0.769293  0  2.410387  0
O  O122  1  0.93961637  0.72345145  0.37323551  1  -1.305418  0  -0.450063  -0.77697  0  2.318117  0
O  O123  1  0.05561202  0.26092798  0.64534604  1  -1.239833  0  -0.354685  -0.64135  0  2.151189  0
O  O124  1  0.83964559  0.30544836  0.65183422  1  -1.295024  0  -0.402517  -0.770397  0  2.411624  0
O  O125  1  0.45928252  0.27830151  0.62195810  1  -1.31161  0  -0.448835  -0.775767  0  2.313554  0
O  O126  1  0.99450716  0.65330292  0.39009929  1  -1.239634  0  -0.354906  -0.642079  0  2.149384  0
O  O127  1  0.21590859  0.65510139  0.34958803  1  -1.296047  0  -0.401792  -0.769916  0  2.410384  0
O  O128  1  0.56655525  0.62676759  0.35021002  1  -1.31129  0  -0.450281  -0.777324  0  2.318358  0
O  O129  1  0.41037481  0.35466381  0.61558708  1  -1.239142  0  -0.354761  -0.642212  0  2.15162  0
O  O130  1  0.18773398  0.34814999  0.65358285  1  -1.290755  0  -0.40284  -0.770536  0  2.410286  0
O  O131  1  0.83737081  0.37800884  0.65629294  1  -1.307201  0  -0.448517  -0.775496  0  2.313494  0
O  O132  1  0.60429742  0.60997449  0.26320731  1  -1.248571  0  -0.355053  -0.642408  0  2.149293  0
O  O133  1  0.86625451  0.65041993  0.30553991  1  -1.305502  0  -0.401869  -0.770206  0  2.410433  0
O  O134  1  0.21629056  0.64979520  0.27658946  1  -1.309695  0  -0.450026  -0.777044  0  2.319599  0
O  O135  1  0.79459072  0.38441381  0.73901227  1  -1.243495  0  -0.354641  -0.641515  0  2.151378  0
O  O136  1  0.53409845  0.34637027  0.69451328  1  -1.299879  0  -0.402413  -0.770312  0  2.410442  0
O  O137  1  0.18083203  0.34364492  0.72165353  1  -1.307716  0  -0.44903  -0.77565  0  2.313496  0
