# generated using pymatgen
data_NiH8C10NO5
_symmetry_space_group_name_H-M   'P 1'
_cell_length_a   5.79853593
_cell_length_b   8.06547743
_cell_length_c   27.61310161
_cell_angle_alpha   90.00248844
_cell_angle_beta   89.99898152
_cell_angle_gamma   89.99839853
_symmetry_Int_Tables_number   1
_chemical_formula_structural   NiH8C10NO5
_chemical_formula_sum   'Ni4 H32 C40 N4 O20'
_cell_volume   1291.40844833
_cell_formula_units_Z   4
loop_
 _symmetry_equiv_pos_site_id
 _symmetry_equiv_pos_as_xyz
  1  'x, y, z'
loop_
 _atom_site_type_symbol
 _atom_site_label
 _atom_site_symmetry_multiplicity
 _atom_site_fract_x
 _atom_site_fract_y
 _atom_site_fract_z
 _atom_site_occupancy
 _atom_site_pbe_bader_charge
 _atom_site_pbe_bader_spin_density
 _atom_site_pbe_cm5_charge
 _atom_site_pbe_ddec_charge
 _atom_site_pbe_ddec_spin_density
 _atom_site_pbe_ddec_sum_bond_order
 _atom_site_pbe_magmom
Ni  Ni0  1  0.52107097  0.25374178  0.71770346  1  1.2722  0.732394  0.742806  0.922155  0.859791  2.721083  0.721
Ni  Ni1  1  0.47889859  0.25356503  0.28229016  1  1.272757  0.73234  0.742911  0.92198  0.85969  2.722051  0.721
Ni  Ni2  1  0.97894869  0.74626372  0.21770229  1  1.272257  0.732334  0.742843  0.922046  0.859721  2.721426  0.721
Ni  Ni3  1  0.02107347  0.74643671  0.78229361  1  1.272918  0.732356  0.74293  0.922176  0.859708  2.721999  0.721
H  H4  1  0.63426960  0.44379731  0.54472570  1  0.052182  -1.1e-05  0.10321  0.107034  -3e-06  1.011211  0.0
H  H5  1  0.36571744  0.44374613  0.45526876  1  0.052654  -1.1e-05  0.103195  0.107146  -3e-06  1.011078  0.0
H  H6  1  0.86572787  0.55618271  0.04471890  1  0.051804  -1.1e-05  0.103303  0.107256  -3e-06  1.011015  0.0
H  H7  1  0.13426819  0.55624265  0.95526781  1  0.052502  -1.1e-05  0.103215  0.107134  -3e-06  1.011263  0.0
H  H8  1  0.43472345  0.37096493  0.84087485  1  0.058785  -0.000893  0.106372  0.075344  -0.000831  0.947721  0.0
H  H9  1  0.56524507  0.37073470  0.15911861  1  0.058377  -0.00089  0.106455  0.075004  -0.000829  0.947949  0.0
H  H10  1  0.06528820  0.62907741  0.34086924  1  0.058251  -0.000892  0.106453  0.075372  -0.000831  0.947889  0.0
H  H11  1  0.93476431  0.62922524  0.65912354  1  0.058359  -0.000887  0.106501  0.075208  -0.000827  0.948004  0.0
H  H12  1  0.17905344  0.14335793  0.60645330  1  0.109527  9.7e-05  0.111176  0.119638  7.4e-05  1.011888  0.0
H  H13  1  0.82097105  0.14324527  0.39356327  1  0.110133  9.7e-05  0.111144  0.119586  7.4e-05  1.011754  0.0
H  H14  1  0.32096027  0.85663356  0.10645429  1  0.109539  9.7e-05  0.111209  0.119636  7.4e-05  1.012032  0.0
H  H15  1  0.67900177  0.85678412  0.89356645  1  0.109985  9.7e-05  0.111121  0.119577  7.4e-05  1.011654  0.0
H  H16  1  0.42997006  0.42049944  0.62481683  1  0.163221  -0.000114  0.121875  0.099301  -0.000156  1.035342  0.0
H  H17  1  0.57007410  0.42039457  0.37518491  1  0.162982  -0.000114  0.121836  0.098938  -0.000156  1.035455  0.0
H  H18  1  0.07004435  0.57948166  0.12480703  1  0.163258  -0.000114  0.121947  0.099303  -0.000156  1.035616  0.0
H  H19  1  0.92989803  0.57960305  0.87518219  1  0.163008  -0.000114  0.121896  0.099021  -0.000156  1.035558  0.0
H  H20  1  0.94838067  0.13027213  0.68217790  1  0.173505  -0.000175  0.134852  0.120884  -0.000311  1.024689  0.0
H  H21  1  0.05164297  0.13011812  0.31784013  1  0.171795  -0.000176  0.134756  0.12086  -0.000311  1.024511  0.0
H  H22  1  0.55165928  0.86969748  0.18217787  1  0.173999  -0.000176  0.134724  0.120616  -0.000311  1.025007  0.0
H  H23  1  0.44827774  0.86991208  0.81784901  1  0.172075  -0.000176  0.13464  0.120861  -0.000311  1.024662  0.0
H  H24  1  0.23739280  0.28388030  0.52487223  1  0.058738  -2.6e-05  0.101729  0.099592  -1.4e-05  1.013943  0.0
H  H25  1  0.76262182  0.28384451  0.47513801  1  0.058813  -2.6e-05  0.10168  0.099495  -1.4e-05  1.01409  0.0
H  H26  1  0.26258004  0.71610185  0.02487586  1  0.058625  -2.6e-05  0.101714  0.09955  -1.4e-05  1.013793  0.0
H  H27  1  0.73736083  0.71616943  0.97513601  1  0.058931  -2.6e-05  0.101738  0.099551  -1.4e-05  1.014156  0.0
H  H28  1  0.64502627  0.12954375  0.86104252  1  0.037603  0.000758  0.096029  0.113877  0.000329  1.006961  0.0
H  H29  1  0.35497318  0.12929668  0.13895487  1  0.036707  0.000761  0.095894  0.11365  0.000331  1.007127  0.0
H  H30  1  0.85502878  0.87054616  0.36102678  1  0.037108  0.000758  0.096054  0.113979  0.000329  1.006981  0.0
H  H31  1  0.14506006  0.87065040  0.63895737  1  0.037062  0.000759  0.095909  0.11371  0.00033  1.006844  0.0
H  H32  1  0.87291432  0.26296299  0.84322598  1  0.063194  0.000246  0.106144  0.133764  4.3e-05  0.970096  0.0
H  H33  1  0.12710584  0.26270727  0.15676436  1  0.063178  0.000245  0.106255  0.133817  4.2e-05  0.970142  0.0
H  H34  1  0.62711727  0.73710153  0.34322544  1  0.063653  0.000246  0.106182  0.133875  4.3e-05  0.970013  0.0
H  H35  1  0.37294741  0.73724165  0.65677263  1  0.063172  0.000246  0.106186  0.133692  4.3e-05  0.970006  0.0
C  C36  1  0.92238539  0.28963575  0.56773006  1  -0.008076  -0.001558  0.002419  0.142217  -0.00175  4.042363  -0.001
C  C37  1  0.07760719  0.28957753  0.43227293  1  -0.008943  -0.001557  0.002382  0.142049  -0.001749  4.042853  -0.001
C  C38  1  0.57761680  0.71034774  0.06772531  1  -0.007729  -0.001557  0.002429  0.142138  -0.001749  4.041942  -0.001
C  C39  1  0.42236681  0.71042267  0.93227425  1  -0.00774  -0.001555  0.002397  0.142142  -0.001746  4.043065  -0.001
C  C40  1  0.70821823  0.36947123  0.57382933  1  -0.074471  0.000428  -0.091296  -0.195444  0.000171  3.971126  0.0
C  C41  1  0.29178814  0.36942881  0.42616051  1  -0.073978  0.000429  -0.09135  -0.19567  0.000171  3.970896  0.0
C  C42  1  0.79179742  0.63050300  0.07382749  1  -0.074813  0.000428  -0.091437  -0.195766  0.000171  3.970907  0.0
C  C43  1  0.20820344  0.63056700  0.92616456  1  -0.073808  0.000428  -0.091266  -0.195564  0.000171  3.970789  0.0
C  C44  1  0.53581200  0.32066554  0.81022993  1  0.533082  0.012603  -0.017014  0.082815  0.007681  3.992089  0.011
C  C45  1  0.46419293  0.32044736  0.18975962  1  0.531091  0.012645  -0.01692  0.083693  0.007699  3.991282  0.011
C  C46  1  0.96420554  0.67936264  0.31022891  1  0.53224  0.012614  -0.017084  0.082738  0.007688  3.992108  0.011
C  C47  1  0.03580022  0.67950938  0.68976707  1  0.531307  0.012631  -0.016993  0.083189  0.007692  3.99177  0.011
C  C48  1  0.01159723  0.20455101  0.60776945  1  0.023878  0.000156  -0.076278  -0.166602  -3.2e-05  3.912899  0.0
C  C49  1  0.98845019  0.20440577  0.39225030  1  0.023322  0.000156  -0.076188  -0.166567  -3.2e-05  3.912825  0.0
C  C50  1  0.48840532  0.79544089  0.10777022  1  0.023623  0.000155  -0.076285  -0.166553  -3.3e-05  3.912834  0.0
C  C51  1  0.51150964  0.79563066  0.89226001  1  0.022787  0.000155  -0.076176  -0.166683  -3.3e-05  3.912461  0.0
C  C52  1  0.59411339  0.35921013  0.61786310  1  0.462655  -0.001433  0.047848  0.079621  -0.001633  3.940817  -0.001
C  C53  1  0.40589749  0.35913564  0.38213038  1  0.464111  -0.00143  0.047863  0.080028  -0.001629  3.94077  -0.001
C  C54  1  0.90591120  0.64075801  0.11785808  1  0.462753  -0.001431  0.047758  0.079611  -0.001632  3.940928  -0.001
C  C55  1  0.09406273  0.64086254  0.88212962  1  0.463558  -0.001429  0.047865  0.079949  -0.001629  3.940715  -0.001
C  C56  1  0.88618036  0.19694502  0.65057558  1  0.478852  -0.002048  0.067452  0.11731  -0.002436  3.866929  -0.001
C  C57  1  0.11385450  0.19679381  0.34944093  1  0.48048  -0.002047  0.067363  0.117176  -0.002436  3.865498  -0.001
C  C58  1  0.61383432  0.80303333  0.15057433  1  0.478821  -0.002046  0.067546  0.117519  -0.002434  3.866945  -0.001
C  C59  1  0.38607768  0.80324253  0.84944793  1  0.479147  -0.002046  0.067675  0.117343  -0.002434  3.865184  -0.001
C  C60  1  0.79809462  0.07175277  0.79245562  1  1.576545  0.000242  0.235114  0.668425  0.000155  4.050826  -0.001
C  C61  1  0.20191144  0.07154955  0.20754148  1  1.576563  0.000239  0.235116  0.668473  0.000152  4.050469  -0.001
C  C62  1  0.70192013  0.92827358  0.29245270  1  1.576639  0.000243  0.235263  0.668575  0.000158  4.050334  -0.001
C  C63  1  0.29810347  0.92842266  0.70754223  1  1.576038  0.000241  0.23511  0.6685  0.000155  4.051146  -0.001
C  C64  1  0.04951204  0.29282736  0.52211188  1  0.015553  -0.000639  -0.084409  -0.124241  -0.000749  3.976041  0.0
C  C65  1  0.95049109  0.29279967  0.47788965  1  -0.101553  -0.000644  -0.084377  -0.123932  -0.000749  3.976166  0.0
C  C66  1  0.45048149  0.70717128  0.02210875  1  -0.101407  -0.000641  -0.084402  -0.124076  -0.000746  3.975993  0.0
C  C67  1  0.54949847  0.70719901  0.97789009  1  0.015398  -0.000639  -0.084476  -0.124078  -0.000749  3.976446  0.0
C  C68  1  0.71756840  0.19767358  0.83020783  1  -0.041616  0.006117  -0.163125  -0.356595  0.003454  3.888911  0.005
C  C69  1  0.28248030  0.19747620  0.16978839  1  -0.040677  0.006123  -0.163168  -0.35665  0.003457  3.88894  0.005
C  C70  1  0.78247470  0.80236455  0.33020197  1  -0.041374  0.006118  -0.163203  -0.356873  0.003454  3.888904  0.005
C  C71  1  0.21758041  0.80249787  0.66979422  1  -0.040622  0.006124  -0.163083  -0.356477  0.003458  3.888322  0.005
C  C72  1  0.66124914  0.46395170  0.78525091  1  1.57611  -0.000318  0.222142  0.566785  -0.001805  4.085849  -0.003
C  C73  1  0.33871161  0.46376296  0.21475041  1  1.577128  -0.000327  0.222296  0.567021  -0.001804  4.085502  -0.003
C  C74  1  0.83874593  0.53607116  0.28524396  1  1.576672  -0.000315  0.22228  0.567111  -0.001804  4.085802  -0.003
C  C75  1  0.16127986  0.53622886  0.71475581  1  1.576547  -0.000321  0.222188  0.567208  -0.0018  4.085888  -0.003
N  N76  1  0.68130545  0.27271078  0.65544944  1  -1.183582  -0.002623  -0.315363  -0.171598  -0.00234  3.570359  -0.001
N  N77  1  0.31872225  0.27259130  0.34455393  1  -1.184262  -0.002616  -0.315126  -0.171338  -0.002334  3.56951  -0.001
N  N78  1  0.81870622  0.72727281  0.15544584  1  -1.183465  -0.002627  -0.315321  -0.171452  -0.002344  3.569879  -0.001
N  N79  1  0.18124055  0.72741995  0.84455877  1  -1.183219  -0.002615  -0.315411  -0.171522  -0.002334  3.570051  -0.001
O  O80  1  0.38447621  0.24431222  0.77775114  1  -0.916229  -0.001772  -0.34107  -0.449613  -0.007388  2.178791  0.0
O  O81  1  0.61549791  0.24413519  0.22224358  1  -0.915625  -0.001737  -0.341188  -0.44968  -0.007361  2.178599  0.0
O  O82  1  0.11555039  0.75569057  0.27774709  1  -0.915187  -0.00173  -0.34108  -0.449554  -0.007355  2.178741  0.0
O  O83  1  0.88449480  0.75587172  0.72224336  1  -0.915416  -0.001699  -0.341188  -0.449683  -0.007327  2.178803  0.0
O  O84  1  0.78759120  0.10087653  0.74786941  1  -1.104911  0.096858  -0.267875  -0.4971  0.054917  2.303344  0.086
O  O85  1  0.21238225  0.10070256  0.25213055  1  -1.104583  0.096934  -0.267855  -0.497069  0.054946  2.303395  0.086
O  O86  1  0.71241668  0.89912103  0.24786059  1  -1.104934  0.096902  -0.267951  -0.497156  0.054939  2.302862  0.086
O  O87  1  0.28759986  0.89928108  0.75213113  1  -1.104751  0.096989  -0.267896  -0.497179  0.054978  2.303595  0.086
O  O88  1  0.74982992  0.58032346  0.80919832  1  -1.129788  0.089542  -0.27311  -0.504505  0.05133  2.312817  0.082
O  O89  1  0.25010559  0.58010774  0.19079706  1  -1.129501  0.089561  -0.273196  -0.504759  0.051341  2.31311  0.082
O  O90  1  0.75012444  0.41972176  0.30919737  1  -1.129973  0.089585  -0.273256  -0.504789  0.051357  2.312395  0.082
O  O91  1  0.24990416  0.41987041  0.69080835  1  -1.129148  0.089554  -0.273054  -0.504779  0.051338  2.313267  0.082
O  O92  1  0.67523720  0.44823626  0.73891436  1  -1.052459  0.041002  -0.273788  -0.459465  0.02345  2.364718  0.038
O  O93  1  0.32473115  0.44802954  0.26107901  1  -1.05279  0.040955  -0.273872  -0.459633  0.023427  2.365978  0.038
O  O94  1  0.82477450  0.55177338  0.23891363  1  -1.052813  0.040975  -0.273825  -0.459539  0.023435  2.365345  0.038
O  O95  1  0.17523334  0.55196806  0.76108794  1  -1.053046  0.040932  -0.273973  -0.4599  0.023413  2.366056  0.038
O  O96  1  0.87686588  0.93789256  0.81175068  1  -1.086417  0.03107  -0.295889  -0.523594  0.018028  2.347451  0.028
O  O97  1  0.12312902  0.93771143  0.18823592  1  -1.086416  0.031114  -0.295869  -0.523546  0.018056  2.347152  0.028
O  O98  1  0.62313864  0.06213486  0.31174548  1  -1.086295  0.031085  -0.29591  -0.523597  0.018037  2.347741  0.028
O  O99  1  0.37687887  0.06224484  0.68824330  1  -1.086142  0.031107  -0.295791  -0.523442  0.018051  2.347134  0.028
