# generated using pymatgen
data_YPH24(C13O2)3
_symmetry_space_group_name_H-M   'P 1'
_cell_length_a   6.93686399
_cell_length_b   17.82479136
_cell_length_c   17.82521667
_cell_angle_alpha   100.60150316
_cell_angle_beta   99.85832367
_cell_angle_gamma   99.85963541
_symmetry_Int_Tables_number   1
_chemical_formula_structural   YPH24(C13O2)3
_chemical_formula_sum   'Y2 P2 H48 C78 O12'
_cell_volume   2087.14794406
_cell_formula_units_Z   2
loop_
 _symmetry_equiv_pos_site_id
 _symmetry_equiv_pos_as_xyz
  1  'x, y, z'
loop_
 _atom_site_type_symbol
 _atom_site_label
 _atom_site_symmetry_multiplicity
 _atom_site_fract_x
 _atom_site_fract_y
 _atom_site_fract_z
 _atom_site_occupancy
 _atom_site_hle17_bader_spin_density
 _atom_site_hle17_ddec_charge
 _atom_site_hle17_ddec_spin_density
 _atom_site_hle17_ddec_sum_bond_order
 _atom_site_hle17_magmom
 _atom_site_hse06_10hf_bader_spin_density
 _atom_site_hse06_10hf_ddec_charge
 _atom_site_hse06_10hf_ddec_spin_density
 _atom_site_hse06_10hf_ddec_sum_bond_order
 _atom_site_hse06_10hf_magmom
 _atom_site_hse06_bader_spin_density
 _atom_site_hse06_ddec_charge
 _atom_site_hse06_ddec_spin_density
 _atom_site_hse06_ddec_sum_bond_order
 _atom_site_hse06_magmom
 _atom_site_pbe_bader_spin_density
 _atom_site_pbe_cm5_charge
 _atom_site_pbe_ddec_charge
 _atom_site_pbe_ddec_spin_density
 _atom_site_pbe_ddec_sum_bond_order
 _atom_site_pbe_magmom
Y  Y0  1  0.78793438  0.50493932  0.47604857  1  0  1.980565  0  1.980039  0  0  1.799178  0  2.446602  0  0  1.875662  0  2.382283  0  0  1.327273  1.744444  0  2.490123  0
Y  Y1  1  0.28793496  0.47604539  0.50494421  1  0  1.980491  0  1.980105  0  0  1.799152  0  2.446626  0  0  1.875641  0  2.382304  0  0  1.327243  1.744459  0  2.490066  0
P  P2  1  0.28137436  0.07848979  0.92962970  1  0  0.219892  0  3.242547  0  0  0.159076  0  3.614267  0  0  0.16481  0  3.622117  0  0  0.037972  0.155596  0  3.608761  0
P  P3  1  0.78137116  0.92962815  0.07848309  1  0  0.219964  0  3.24275  0  0  0.159124  0  3.614438  0  0  0.164863  0  3.622296  0  0  0.037977  0.155645  0  3.608931  0
H  H4  1  0.64157595  0.08510215  0.85293018  1  0  0.088275  0  0.971763  0  0  0.097661  0  1.0365  0  0  0.099485  0  1.037312  0  0  0.097043  0.096359  0  1.035984  0
H  H5  1  0.14157306  0.85292504  0.08509882  1  0  0.088126  0  0.971728  0  0  0.097523  0  1.036464  0  0  0.099345  0  1.037279  0  0  0.096945  0.096221  0  1.035947  0
H  H6  1  0.11503055  0.91876731  0.85746781  1  0  0.086555  0  0.961334  0  0  0.095449  0  1.027844  0  0  0.098024  0  1.027281  0  0  0.096484  0.09358  0  1.028315  0
H  H7  1  0.61503981  0.85746829  0.91877070  1  0  0.08657  0  0.961382  0  0  0.095428  0  1.027928  0  0  0.098002  0  1.027365  0  0  0.096471  0.093559  0  1.028398  0
H  H8  1  0.42718794  0.25344186  0.96724015  1  0  0.091039  0  0.95788  0  0  0.102268  0  1.015361  0  0  0.105012  0  1.014821  0  0  0.098491  0.100325  0  1.015803  0
H  H9  1  0.92716603  0.96723349  0.25342598  1  0  0.091166  0  0.957758  0  0  0.102387  0  1.015238  0  0  0.105092  0  1.014739  0  0  0.098515  0.100441  0  1.015681  0
H  H10  1  0.64532545  0.05078268  0.01645932  1  0  0.062835  0  1.021937  0  0  0.062671  0  1.105205  0  0  0.06515  0  1.105652  0  0  0.084484  0.060877  0  1.10498  0
H  H11  1  0.14533182  0.01646404  0.05077957  1  0  0.062784  0  1.0221  0  0  0.062609  0  1.105375  0  0  0.065094  0  1.105805  0  0  0.084447  0.060813  0  1.105154  0
H  H12  1  0.00448991  0.17730401  0.95553356  1  0  0.08427  0  0.979325  0  0  0.0932  0  1.046918  0  0  0.094995  0  1.047601  0  0  0.095222  0.091889  0  1.046524  0
H  H13  1  0.50448412  0.95553479  0.17729312  1  0  0.08428  0  0.979279  0  0  0.093215  0  1.046852  0  0  0.095004  0  1.047558  0  0  0.095249  0.091905  0  1.046454  0
H  H14  1  0.30231132  0.10834502  0.76839379  1  0  0.090525  0  0.961954  0  0  0.102947  0  1.019185  0  0  0.105535  0  1.018606  0  0  0.099589  0.101117  0  1.019616  0
H  H15  1  0.80230249  0.76838867  0.10833897  1  0  0.090686  0  0.961837  0  0  0.103078  0  1.019077  0  0  0.105666  0  1.018499  0  0  0.09967  0.101254  0  1.0195  0
H  H16  1  0.73103330  0.98729920  0.75583536  1  0  0.094457  0  0.944279  0  0  0.107485  0  0.999927  0  0  0.110478  0  0.99894  0  0  0.102752  0.105347  0  1.000739  0
H  H17  1  0.23104116  0.75583544  0.98729424  1  0  0.09449  0  0.944251  0  0  0.107517  0  0.999888  0  0  0.110509  0  0.9989  0  0  0.102753  0.105378  0  1.000704  0
H  H18  1  0.20626776  0.82017855  0.76073044  1  0  0.08922  0  0.974852  0  0  0.099824  0  1.03946  0  0  0.101767  0  1.040202  0  0  0.099039  0.098429  0  1.039053  0
H  H19  1  0.70627903  0.76073210  0.82018097  1  0  0.089251  0  0.974843  0  0  0.099879  0  1.039423  0  0  0.10181  0  1.040179  0  0  0.09907  0.098478  0  1.039024  0
H  H20  1  0.72316396  0.33867674  0.05911605  1  0  0.092966  0  0.940626  0  0  0.106621  0  0.993709  0  0  0.109807  0  0.99239  0  0  0.104125  0.104412  0  0.994611  0
H  H21  1  0.22314757  0.05910421  0.33866337  1  0  0.093016  0  0.940478  0  0  0.10658  0  0.993663  0  0  0.109764  0  0.992346  0  0  0.104043  0.104373  0  0.994561  0
H  H22  1  0.94084963  0.13598754  0.10645538  1  0  0.089943  0  0.973515  0  0  0.100344  0  1.037603  0  0  0.102444  0  1.037914  0  0  0.09715  0.098821  0  1.037486  0
H  H23  1  0.44085737  0.10645675  0.13598726  1  0  0.08987  0  0.9735  0  0  0.100291  0  1.037567  0  0  0.10239  0  1.03788  0  0  0.09716  0.098783  0  1.037434  0
H  H24  1  0.83681979  0.25828627  0.87947720  1  0  0.090907  0  0.958213  0  0  0.102058  0  1.018506  0  0  0.104761  0  1.017739  0  0  0.100427  0.100154  0  1.019068  0
H  H25  1  0.33681804  0.87947845  0.25827796  1  0  0.090812  0  0.958238  0  0  0.101981  0  1.018523  0  0  0.104684  0  1.017757  0  0  0.100426  0.100078  0  1.01908  0
H  H26  1  0.12578673  0.18600899  0.69034536  1  0  0.095021  0  0.943549  0  0  0.10828  0  0.998246  0  0  0.111192  0  0.99726  0  0  0.10502  0.106239  0  0.998981  0
H  H27  1  0.62578993  0.69034246  0.18600875  1  0  0.095065  0  0.943575  0  0  0.108357  0  0.998232  0  0  0.111273  0  0.997242  0  0  0.105062  0.106301  0  0.998986  0
H  H28  1  0.85051143  0.37556037  0.19383205  1  0  0.099604  0  0.947523  0  0  0.111015  0  1.006285  0  0  0.11485  0  1.003883  0  0  0.104181  0.107215  0  1.009431  0
H  H29  1  0.35049434  0.19382013  0.37555518  1  0  0.099662  0  0.947427  0  0  0.111028  0  1.006237  0  0  0.114865  0  1.003834  0  0  0.10419  0.107231  0  1.009381  0
H  H30  1  0.23990825  0.22366457  0.12212748  1  0  0.090795  0  0.962465  0  0  0.100673  0  1.027165  0  0  0.103258  0  1.027006  0  0  0.09731  0.098792  0  1.027422  0
H  H31  1  0.73990895  0.12212988  0.22366083  1  0  0.090824  0  0.962369  0  0  0.100678  0  1.027106  0  0  0.103263  0  1.026948  0  0  0.097321  0.098797  0  1.027364  0
H  H32  1  0.12634376  0.45359704  0.30053475  1  0  0.10265  0  0.951368  0  0  0.111519  0  1.014389  0  0  0.114394  0  1.012772  0  0  0.110982  0.109415  0  1.01563  0
H  H33  1  0.62632542  0.30052320  0.45359809  1  0  0.102578  0  0.951316  0  0  0.111441  0  1.014353  0  0  0.114316  0  1.012736  0  0  0.110982  0.109362  0  1.015562  0
H  H34  1  0.51684996  0.30346660  0.22942070  1  0  0.100708  0  0.948623  0  0  0.110764  0  1.011004  0  0  0.113472  0  1.010362  0  0  0.105033  0.108765  0  1.011602  0
H  H35  1  0.01684487  0.22942431  0.30347027  1  0  0.10072  0  0.948583  0  0  0.110778  0  1.010956  0  0  0.113487  0  1.010312  0  0  0.10506  0.10878  0  1.011554  0
H  H36  1  0.22416420  0.78204231  0.63384667  1  0  0.093602  0  0.968661  0  0  0.104966  0  1.029421  0  0  0.108245  0  1.027409  0  0  0.101438  0.102556  0  1.031048  0
H  H37  1  0.72415752  0.63384769  0.78204295  1  0  0.093672  0  0.968712  0  0  0.105035  0  1.029452  0  0  0.108321  0  1.027436  0  0  0.101458  0.102624  0  1.031078  0
H  H38  1  0.84889162  0.87628927  0.73778934  1  0  0.087394  0  0.974121  0  0  0.097529  0  1.039029  0  0  0.10021  0  1.038434  0  0  0.097723  0.095568  0  1.039608  0
H  H39  1  0.34888631  0.73779084  0.87628661  1  0  0.087361  0  0.974109  0  0  0.097507  0  1.039017  0  0  0.100177  0  1.038431  0  0  0.097718  0.095546  0  1.039597  0
H  H40  1  0.31444664  0.67344641  0.54996266  1  0  0.106484  0  0.944114  0  0  0.114947  0  1.007112  0  0  0.118066  0  1.00501  0  0  0.114378  0.112671  0  1.008684  0
H  H41  1  0.81443502  0.54996033  0.67344882  1  0  0.106561  0  0.943959  0  0  0.114911  0  1.007088  0  0  0.118046  0  1.004971  0  0  0.114381  0.112644  0  1.008658  0
H  H42  1  0.93691844  0.76627354  0.65210149  1  0  0.091193  0  0.973909  0  0  0.09944  0  1.041078  0  0  0.102856  0  1.038255  0  0  0.101032  0.096942  0  1.043183  0
H  H43  1  0.43691424  0.65209931  0.76627199  1  0  0.091169  0  0.97378  0  0  0.099404  0  1.040967  0  0  0.102821  0  1.038146  0  0  0.101025  0.096904  0  1.043076  0
H  H44  1  0.59304330  0.25348960  0.78248861  1  0  0.090893  0  0.962287  0  0  0.10044  0  1.025208  0  0  0.10345  0  1.024397  0  0  0.098935  0.098325  0  1.025832  0
H  H45  1  0.09304041  0.78248918  0.25349052  1  0  0.090813  0  0.96219  0  0  0.100355  0  1.025141  0  0  0.103363  0  1.024334  0  0  0.098928  0.098244  0  1.025755  0
H  H46  1  0.08611577  0.30225108  0.66725254  1  0  0.096292  0  0.969428  0  0  0.104614  0  1.035596  0  0  0.108208  0  1.033159  0  0  0.101361  0.101808  0  1.03754  0
H  H47  1  0.58611606  0.66725281  0.30224596  1  0  0.096269  0  0.969446  0  0  0.104396  0  1.035532  0  0  0.107918  0  1.033089  0  0  0.10135  0.101779  0  1.037559  0
H  H48  1  0.40333751  0.32706563  0.70225600  1  0  0.09663  0  0.960539  0  0  0.105736  0  1.024054  0  0  0.109021  0  1.021404  0  0  0.10474  0.103305  0  1.02608  0
H  H49  1  0.90334535  0.70225821  0.32707187  1  0  0.09665  0  0.960568  0  0  0.105768  0  1.024036  0  0  0.109074  0  1.021372  0  0  0.104734  0.103291  0  1.026125  0
H  H50  1  0.89453015  0.37403600  0.58772339  1  0  0.119096  0  0.965196  0  0  0.124193  0  1.032184  0  0  0.127964  0  1.029515  0  0  0.115284  0.121473  0  1.034131  0
H  H51  1  0.39453627  0.58772322  0.37403603  1  0  0.11907  0  0.965222  0  0  0.124115  0  1.032275  0  0  0.127883  0  1.029615  0  0  0.115311  0.121408  0  1.034198  0
C  C52  1  0.36872132  0.00963554  0.86070018  1  0  -0.085165  0  3.766449  0  0  -0.048662  0  4.005701  0  0  -0.053036  0  4.030401  0  0  -0.026033  -0.045831  0  3.988944  0
C  C53  1  0.86872114  0.86069655  0.00963352  1  0  -0.085308  0  3.766461  0  0  -0.048822  0  4.005751  0  0  -0.053198  0  4.030453  0  0  -0.026099  -0.04599  0  3.988998  0
C  C54  1  0.51302120  0.14569601  0.98463814  1  0  -0.085039  0  3.754632  0  0  -0.049232  0  3.996666  0  0  -0.052393  0  4.020466  0  0  -0.028341  -0.047209  0  3.98049  0
C  C55  1  0.01301202  0.98463835  0.14568551  1  0  -0.085009  0  3.754522  0  0  -0.0492  0  3.996547  0  0  -0.05236  0  4.020336  0  0  -0.028293  -0.047176  0  3.980371  0
C  C56  1  0.16720039  0.13731262  0.86787651  1  0  -0.086386  0  3.76864  0  0  -0.05082  0  4.012606  0  0  -0.055142  0  4.037483  0  0  -0.026149  -0.047976  0  3.99565  0
C  C57  1  0.66718436  0.86787343  0.13730388  1  0  -0.086464  0  3.768721  0  0  -0.050815  0  4.012554  0  0  -0.055139  0  4.037434  0  0  -0.026192  -0.047966  0  3.995587  0
C  C58  1  0.54411196  0.02733771  0.83235250  1  0  -0.072489  0  3.762514  0  0  -0.090133  0  4.005347  0  0  -0.090732  0  4.026422  0  0  -0.086742  -0.089602  0  3.990978  0
C  C59  1  0.04411293  0.83234849  0.02733486  1  0  -0.072265  0  3.761966  0  0  -0.089894  0  4.004752  0  0  -0.090492  0  4.025828  0  0  -0.086632  -0.089362  0  3.990384  0
C  C60  1  0.24812349  0.93432825  0.83388361  1  0  -0.081267  0  3.76646  0  0  -0.099977  0  4.012467  0  0  -0.100779  0  4.033364  0  0  -0.08931  -0.099267  0  3.998229  0
C  C61  1  0.74812989  0.83388097  0.93432970  1  0  -0.081215  0  3.766616  0  0  -0.099891  0  4.012625  0  0  -0.100692  0  4.03352  0  0  -0.089245  -0.099179  0  3.998384  0
C  C62  1  0.53912487  0.22726292  0.99774792  1  0  -0.084915  0  3.772372  0  0  -0.103167  0  4.018751  0  0  -0.104717  0  4.040157  0  0  -0.092641  -0.102006  0  4.004181  0
C  C63  1  0.03910883  0.99774282  0.22725015  1  0  -0.08495  0  3.772178  0  0  -0.103177  0  4.018492  0  0  -0.104691  0  4.039908  0  0  -0.092625  -0.102014  0  4.003923  0
C  C64  1  0.66182716  0.11397778  0.02424117  1  0  -0.085146  0  3.774935  0  0  -0.100467  0  4.02026  0  0  -0.101999  0  4.040308  0  0  -0.094081  -0.099296  0  4.006661  0
C  C65  1  0.16182447  0.02424202  0.11397001  1  0  -0.085143  0  3.775261  0  0  -0.100454  0  4.020547  0  0  -0.101985  0  4.040602  0  0  -0.094028  -0.099284  0  4.006954  0
C  C66  1  0.03386494  0.17986531  0.89774723  1  0  -0.077642  0  3.768467  0  0  -0.095375  0  4.013756  0  0  -0.096203  0  4.034654  0  0  -0.08803  -0.094685  0  3.999491  0
C  C67  1  0.53386055  0.89774464  0.17985547  1  0  -0.077587  0  3.768486  0  0  -0.095334  0  4.013717  0  0  -0.096167  0  4.03461  0  0  -0.087982  -0.094641  0  3.99945  0
C  C68  1  0.20039403  0.14118295  0.79306009  1  0  -0.075616  0  3.769134  0  0  -0.094953  0  4.013445  0  0  -0.096063  0  4.035226  0  0  -0.088512  -0.094071  0  3.998579  0
C  C69  1  0.70038539  0.79305409  0.14117565  1  0  -0.075839  0  3.768956  0  0  -0.095195  0  4.01329  0  0  -0.096307  0  4.035073  0  0  -0.088511  -0.094304  0  3.998408  0
C  C70  1  0.59579364  0.97167940  0.77798178  1  0  -0.108764  0  3.727919  0  0  -0.125943  0  3.96945  0  0  -0.129232  0  3.990001  0  0  -0.087062  -0.123666  0  3.955436  0
C  C71  1  0.09579932  0.77797888  0.97167569  1  0  -0.10879  0  3.727757  0  0  -0.125971  0  3.969277  0  0  -0.129259  0  3.989826  0  0  -0.087032  -0.123692  0  3.955263  0
C  C72  1  0.29898715  0.87889657  0.77900686  1  0  -0.11206  0  3.730121  0  0  -0.130358  0  3.974744  0  0  -0.134096  0  3.996965  0  0  -0.091205  -0.127761  0  3.959549  0
C  C73  1  0.79899016  0.77900471  0.87889707  1  0  -0.112052  0  3.730124  0  0  -0.130363  0  3.974721  0  0  -0.134091  0  3.996945  0  0  -0.091216  -0.127762  0  3.959528  0
C  C74  1  0.70627838  0.27547687  0.05008210  1  0  -0.108171  0  3.742749  0  0  -0.12586  0  3.98677  0  0  -0.128785  0  4.007561  0  0  -0.088558  -0.123764  0  3.972473  0
C  C75  1  0.20626386  0.05007353  0.27546640  1  0  -0.108428  0  3.742974  0  0  -0.126004  0  3.987062  0  0  -0.128927  0  4.00784  0  0  -0.088555  -0.12391  0  3.972764  0
C  C76  1  0.82963283  0.16221647  0.07552553  1  0  -0.112331  0  3.736074  0  0  -0.128726  0  3.980319  0  0  -0.131018  0  3.999882  0  0  -0.090435  -0.127086  0  3.967031  0
C  C77  1  0.32962598  0.07552554  0.16221075  1  0  -0.112303  0  3.736147  0  0  -0.128664  0  3.980436  0  0  -0.130955  0  4.000003  0  0  -0.090528  -0.127037  0  3.967144  0
C  C78  1  0.93675562  0.22484271  0.85417077  1  0  -0.1107  0  3.740331  0  0  -0.128834  0  3.983784  0  0  -0.131954  0  4.004413  0  0  -0.089483  -0.126633  0  3.969674  0
C  C79  1  0.43674618  0.85417108  0.22483201  1  0  -0.110595  0  3.740049  0  0  -0.128723  0  3.983549  0  0  -0.131843  0  4.004183  0  0  -0.089547  -0.126513  0  3.969422  0
C  C80  1  0.10120097  0.18551612  0.74910609  1  0  -0.112321  0  3.739892  0  0  -0.130611  0  3.984844  0  0  -0.134188  0  4.006533  0  0  -0.089222  -0.128142  0  3.970009  0
C  C81  1  0.60118854  0.74910310  0.18551056  1  0  -0.112255  0  3.740131  0  0  -0.13053  0  3.985124  0  0  -0.134102  0  4.006809  0  0  -0.089305  -0.128061  0  3.970283  0
C  C82  1  0.47365119  0.89653539  0.74987946  1  0  0.056149  0  3.775677  0  0  0.07109  0  4.005737  0  0  0.071399  0  4.029652  0  0  -0.00456  0.070941  0  3.989329  0
C  C83  1  0.97365598  0.74987640  0.89653429  1  0  0.056117  0  3.775838  0  0  0.071047  0  4.005914  0  0  0.071359  0  4.029824  0  0  -0.004587  0.070898  0  3.989507  0
C  C84  1  0.85398582  0.24400412  0.09051931  1  0  0.046765  0  3.787546  0  0  0.061007  0  4.019894  0  0  0.061174  0  4.043604  0  0  -0.009755  0.060942  0  4.003634  0
C  C85  1  0.35397764  0.09051351  0.24399553  1  0  0.046874  0  3.787346  0  0  0.060972  0  4.019855  0  0  0.061139  0  4.043567  0  0  -0.009723  0.060908  0  4.003599  0
C  C86  1  0.96621574  0.22768843  0.77852314  1  0  0.053205  0  3.788705  0  0  0.068435  0  4.018231  0  0  0.068468  0  4.042569  0  0  -0.005464  0.068432  0  4.001625  0
C  C87  1  0.46620993  0.77851931  0.22767944  1  0  0.05311  0  3.788764  0  0  0.068217  0  4.018518  0  0  0.068244  0  4.042866  0  0  -0.00551  0.068229  0  4.001874  0
C  C88  1  0.02479438  0.29397098  0.14978540  1  0  0.059211  0  3.786901  0  0  0.072185  0  4.018435  0  0  0.073816  0  4.042542  0  0  -0.003404  0.071277  0  4.001655  0
C  C89  1  0.52478786  0.14978151  0.29396601  1  0  0.05933  0  3.786685  0  0  0.072389  0  4.018169  0  0  0.074022  0  4.042274  0  0  -0.003383  0.071479  0  4.001389  0
C  C90  1  0.99721623  0.36033485  0.19988381  1  0  -0.117815  0  3.733559  0  0  -0.137349  0  3.983878  0  0  -0.142212  0  4.004431  0  0  -0.08755  -0.133395  0  3.97009  0
C  C91  1  0.49721214  0.19987746  0.36033448  1  0  -0.117988  0  3.733463  0  0  -0.137489  0  3.983756  0  0  -0.142353  0  4.004307  0  0  -0.08762  -0.133538  0  3.969975  0
C  C92  1  0.21452641  0.27441275  0.16074669  1  0  -0.12361  0  3.739952  0  0  -0.140314  0  3.986424  0  0  -0.14512  0  4.007985  0  0  -0.092069  -0.137112  0  3.971811  0
C  C93  1  0.71452556  0.16074730  0.27441193  1  0  -0.123658  0  3.739901  0  0  -0.140347  0  3.986363  0  0  -0.145154  0  4.007923  0  0  -0.092064  -0.137147  0  3.971752  0
C  C94  1  0.15152141  0.40400851  0.26048067  1  0  -0.044979  0  3.722977  0  0  -0.071696  0  3.975194  0  0  -0.06979  0  3.994704  0  0  -0.075611  -0.072619  0  3.961514  0
C  C95  1  0.65150709  0.26047405  0.40400710  1  0  -0.044968  0  3.722723  0  0  -0.071668  0  3.974917  0  0  -0.069764  0  3.994433  0  0  -0.075608  -0.072609  0  3.96123  0
C  C96  1  0.37066449  0.31907831  0.22039576  1  0  -0.055353  0  3.736523  0  0  -0.080582  0  3.984232  0  0  -0.079164  0  4.004486  0  0  -0.078478  -0.081284  0  3.970545  0
C  C97  1  0.87065507  0.22039453  0.31907820  1  0  -0.055417  0  3.736504  0  0  -0.080652  0  3.984206  0  0  -0.079234  0  4.004459  0  0  -0.078494  -0.081356  0  3.97052  0
C  C98  1  0.33892890  0.38343403  0.27160204  1  0  -0.071093  0  3.769459  0  0  -0.049981  0  4.003409  0  0  -0.058918  0  4.025314  0  0  -0.016112  -0.044258  0  3.988771  0
C  C99  1  0.83892214  0.27160063  0.38343690  1  0  -0.070881  0  3.769174  0  0  -0.049714  0  4.003157  0  0  -0.05865  0  4.025061  0  0  -0.016016  -0.043998  0  3.988523  0
C  C100  1  0.49838047  0.42625992  0.33952215  1  0  0.682772  0  3.840769  0  0  0.635638  0  4.125744  0  0  0.672204  0  4.116175  0  0  0.224036  0.610714  0  4.131575  0
C  C101  1  0.99836850  0.33951647  0.42626619  1  0  0.682818  0  3.84077  0  0  0.635533  0  4.125962  0  0  0.6721  0  4.116392  0  0  0.223977  0.610623  0  4.131784  0
C  C102  1  0.52906867  0.83627355  0.69382092  1  0  0.063104  0  3.775237  0  0  0.076597  0  4.005645  0  0  0.078729  0  4.028771  0  0  -0.001742  0.075303  0  3.98978  0
C  C103  1  0.02906349  0.69382039  0.83627375  1  0  0.063069  0  3.775331  0  0  0.076546  0  4.005761  0  0  0.078681  0  4.028883  0  0  -0.001757  0.075253  0  3.989894  0
C  C104  1  0.38109454  0.77888092  0.63907508  1  0  -0.116634  0  3.726201  0  0  -0.134812  0  3.974297  0  0  -0.139714  0  3.995094  0  0  -0.086619  -0.131562  0  3.960191  0
C  C105  1  0.88108806  0.63907268  0.77888022  1  0  -0.116691  0  3.726409  0  0  -0.134856  0  3.97445  0  0  -0.139764  0  3.995259  0  0  -0.086604  -0.131603  0  3.960343  0
C  C106  1  0.73108264  0.83257813  0.69604227  1  0  -0.126378  0  3.753748  0  0  -0.142677  0  3.999495  0  0  -0.147353  0  4.0206  0  0  -0.092177  -0.139555  0  3.985109  0
C  C107  1  0.23107832  0.69603833  0.83257514  1  0  -0.126472  0  3.753792  0  0  -0.142779  0  3.999542  0  0  -0.147446  0  4.020666  0  0  -0.092259  -0.139656  0  3.985152  0
C  C108  1  0.43150286  0.71771723  0.59124477  1  0  -0.034218  0  3.708512  0  0  -0.061364  0  3.959802  0  0  -0.0591  0  3.979033  0  0  -0.071349  -0.062585  0  3.946686  0
C  C109  1  0.93148918  0.59124372  0.71771757  1  0  -0.034216  0  3.708359  0  0  -0.061293  0  3.959631  0  0  -0.059053  0  3.978867  0  0  -0.071348  -0.062528  0  3.946531  0
C  C110  1  0.78160235  0.77133699  0.64834955  1  0  -0.056234  0  3.750578  0  0  -0.080989  0  3.996951  0  0  -0.079761  0  4.017281  0  0  -0.080276  -0.081496  0  3.983106  0
C  C111  1  0.28159038  0.64834694  0.77133566  1  0  -0.056109  0  3.750516  0  0  -0.080869  0  3.996872  0  0  -0.079649  0  4.017201  0  0  -0.080208  -0.081372  0  3.983026  0
C  C112  1  0.63251318  0.71242516  0.59684968  1  0  -0.073281  0  3.765281  0  0  -0.049606  0  3.995853  0  0  -0.05906  0  4.018663  0  0  -0.015418  -0.043594  0  3.980607  0
C  C113  1  0.13250690  0.59684657  0.71242527  1  0  -0.073391  0  3.765247  0  0  -0.049612  0  3.995658  0  0  -0.05905  0  4.018462  0  0  -0.015441  -0.043611  0  3.980433  0
C  C114  1  0.68937668  0.64342906  0.55341302  1  0  0.679086  0  3.853102  0  0  0.631037  0  4.13926  0  0  0.667605  0  4.130156  0  0  0.221958  0.606138  0  4.144723  0
C  C115  1  0.18936863  0.55340912  0.64343045  1  0  0.679103  0  3.853232  0  0  0.631023  0  4.139408  0  0  0.667586  0  4.130308  0  0  0.221888  0.606124  0  4.144878  0
C  C116  1  0.85452661  0.27209411  0.73107542  1  0  0.067542  0  3.78122  0  0  0.081306  0  4.009226  0  0  0.083564  0  4.03309  0  0  0.000876  0.079927  0  3.992887  0
C  C117  1  0.35451735  0.73107396  0.27209000  1  0  0.067373  0  3.781321  0  0  0.08113  0  4.009393  0  0  0.08339  0  4.033249  0  0  0.000838  0.079757  0  3.993065  0
C  C118  1  0.66123981  0.28051818  0.74058922  1  0  -0.125236  0  3.754709  0  0  -0.140806  0  3.998191  0  0  -0.146209  0  4.019864  0  0  -0.091586  -0.137303  0  3.98348  0
C  C119  1  0.16124420  0.74058660  0.28051897  1  0  -0.125004  0  3.754828  0  0  -0.140601  0  3.99837  0  0  -0.146015  0  4.020072  0  0  -0.09155  -0.137066  0  3.983585  0
C  C120  1  0.93596779  0.30651122  0.67535364  1  0  -0.112  0  3.715639  0  0  -0.129729  0  3.962236  0  0  -0.134968  0  3.98294  0  0  -0.085718  -0.126011  0  3.947992  0
C  C121  1  0.43596466  0.67535202  0.30650818  1  0  -0.111871  0  3.71585  0  0  -0.12925  0  3.962102  0  0  -0.134383  0  3.982714  0  0  -0.085621  -0.125849  0  3.948151  0
C  C122  1  0.55306425  0.32079470  0.69528507  1  0  -0.055447  0  3.755997  0  0  -0.079502  0  4.000408  0  0  -0.077731  0  4.020786  0  0  -0.080143  -0.080388  0  3.986554  0
C  C123  1  0.05306485  0.69528576  0.32079535  1  0  -0.055492  0  3.75608  0  0  -0.079507  0  4.000467  0  0  -0.07776  0  4.020871  0  0  -0.080111  -0.080363  0  3.986568  0
C  C124  1  0.82874046  0.34751878  0.63028571  1  0  -0.045816  0  3.697691  0  0  -0.072842  0  3.949769  0  0  -0.070648  0  3.968781  0  0  -0.074898  -0.074019  0  3.936739  0
C  C125  1  0.32874514  0.63028657  0.34751658  1  0  -0.045824  0  3.697997  0  0  -0.072804  0  3.950022  0  0  -0.070607  0  3.969019  0  0  -0.07492  -0.073989  0  3.937038  0
C  C126  1  0.63533908  0.35426005  0.63946869  1  0  -0.081552  0  3.786847  0  0  -0.059256  0  4.020223  0  0  -0.069803  0  4.043946  0  0  -0.018425  -0.052451  0  4.00427  0
C  C127  1  0.13534508  0.63946863  0.35426343  1  0  -0.081738  0  3.786662  0  0  -0.059457  0  4.020176  0  0  -0.070012  0  4.04392  0  0  -0.018554  -0.052618  0  4.004159  0
C  C128  1  0.51347296  0.39431129  0.59053261  1  0  0.678219  0  3.845396  0  0  0.630703  0  4.130058  0  0  0.667545  0  4.120604  0  0  0.22206  0.605587  0  4.13587  0
C  C129  1  0.01346980  0.59053091  0.39431578  1  0  0.678523  0  3.845094  0  0  0.630818  0  4.130032  0  0  0.667654  0  4.120584  0  0  0.222128  0.605715  0  4.135819  0
O  O130  1  0.68040205  0.42368547  0.34271770  1  0  -0.623149  0  1.940997  0  0  -0.574083  0  2.167184  0  0  -0.601137  0  2.160608  0  0  -0.328601  -0.555267  0  2.171089  0
O  O131  1  0.18038972  0.34271043  0.42369070  1  0  -0.62305  0  1.941  0  0  -0.573988  0  2.167323  0  0  -0.601042  0  2.160748  0  0  -0.32854  -0.555182  0  2.171223  0
O  O132  1  0.44910040  0.46782871  0.39864209  1  0  -0.773293  0  2.141678  0  0  -0.702673  0  2.39776  0  0  -0.73613  0  2.388345  0  0  -0.415174  -0.679022  0  2.403308  0
O  O133  1  0.94909873  0.39863780  0.46783566  1  0  -0.773442  0  2.141665  0  0  -0.702785  0  2.397877  0  0  -0.736239  0  2.388454  0  0  -0.415236  -0.679146  0  2.403434  0
O  O134  1  0.87000954  0.64108861  0.55223630  1  0  -0.626428  0  1.945522  0  0  -0.576692  0  2.172666  0  0  -0.604004  0  2.166139  0  0  -0.329126  -0.557685  0  2.176555  0
O  O135  1  0.37000596  0.55223399  0.64109180  1  0  -0.626368  0  1.945449  0  0  -0.576719  0  2.172673  0  0  -0.604029  0  2.16615  0  0  -0.329091  -0.557718  0  2.176561  0
O  O136  1  0.55052025  0.58281814  0.51709805  1  0  -0.767601  0  2.136407  0  0  -0.697991  0  2.394301  0  0  -0.731618  0  2.385206  0  0  -0.410997  -0.674225  0  2.399631  0
O  O137  1  0.05051755  0.51709720  0.58282073  1  0  -0.767592  0  2.1365  0  0  -0.697945  0  2.394413  0  0  -0.731571  0  2.385323  0  0  -0.410958  -0.674184  0  2.399755  0
O  O138  1  0.59539258  0.43534007  0.54603166  1  0  -0.772535  0  2.078085  0  0  -0.701972  0  2.338649  0  0  -0.735009  0  2.327051  0  0  -0.419274  -0.678708  0  2.345825  0
O  O139  1  0.09540049  0.54602981  0.43534353  1  0  -0.772509  0  2.077765  0  0  -0.701934  0  2.338492  0  0  -0.734971  0  2.326891  0  0  -0.419236  -0.678665  0  2.345657  0
O  O140  1  0.32958346  0.38958370  0.59065330  1  0  -0.617218  0  1.955775  0  0  -0.562848  0  2.177759  0  0  -0.589837  0  2.169672  0  0  -0.336051  -0.544136  0  2.182706  0
O  O141  1  0.82959828  0.59065176  0.38958874  1  0  -0.617331  0  1.955861  0  0  -0.562915  0  2.177952  0  0  -0.589892  0  2.169848  0  0  -0.336108  -0.544213  0  2.182935  0
