# generated using pymatgen
data_MnH11C3N(ClO2)2
_symmetry_space_group_name_H-M   'P 1'
_cell_length_a   5.71719160
_cell_length_b   8.15263949
_cell_length_c   18.50086499
_cell_angle_alpha   96.50648058
_cell_angle_beta   90.00013172
_cell_angle_gamma   89.99972210
_symmetry_Int_Tables_number   1
_chemical_formula_structural   MnH11C3N(ClO2)2
_chemical_formula_sum   'Mn4 H44 C12 N4 Cl8 O16'
_cell_volume   856.77483244
_cell_formula_units_Z   4
loop_
 _symmetry_equiv_pos_site_id
 _symmetry_equiv_pos_as_xyz
  1  'x, y, z'
loop_
 _atom_site_type_symbol
 _atom_site_label
 _atom_site_symmetry_multiplicity
 _atom_site_fract_x
 _atom_site_fract_y
 _atom_site_fract_z
 _atom_site_occupancy
 _atom_site_hle17_ddec_charge
 _atom_site_hle17_ddec_spin_density
 _atom_site_hle17_ddec_sum_bond_order
 _atom_site_hle17_magmom
 _atom_site_hse06_10hf_ddec_charge
 _atom_site_hse06_10hf_ddec_spin_density
 _atom_site_hse06_10hf_ddec_sum_bond_order
 _atom_site_hse06_10hf_magmom
 _atom_site_hse06_ddec_charge
 _atom_site_hse06_ddec_spin_density
 _atom_site_hse06_ddec_sum_bond_order
 _atom_site_hse06_magmom
 _atom_site_pbe_cm5_charge
 _atom_site_pbe_ddec_charge
 _atom_site_pbe_ddec_spin_density
 _atom_site_pbe_ddec_sum_bond_order
 _atom_site_pbe_magmom
Mn  Mn0  1  0.92398500  0.26074069  0.67342494  1  1.153604  4.791258  1.805035  4.677  1.010228  4.721318  2.29011  4.546  1.067973  4.760597  2.221664  4.604  0.469005  0.96341  4.683736  2.341507  4.492
Mn  Mn1  1  0.42398491  0.73926135  0.82657606  1  1.153618  4.791253  1.805034  4.677  1.010237  4.721312  2.290142  4.546  1.067984  4.760592  2.221678  4.603  0.468975  0.963413  4.683727  2.341538  4.492
Mn  Mn2  1  0.07601323  0.73926289  0.32657582  1  1.153625  4.791255  1.805014  4.677  1.010198  4.721318  2.290177  4.546  1.067974  4.760599  2.221666  4.604  0.469005  0.963378  4.683738  2.341572  4.492
Mn  Mn3  1  0.57601682  0.26073973  0.17342187  1  1.153639  4.791258  1.805011  4.677  1.010214  4.721318  2.290185  4.546  1.068001  4.760598  2.221645  4.603  0.468977  0.963394  4.683733  2.341585  4.492
H  H4  1  0.57711301  0.46099566  0.69271478  1  0.421618  -0.000543  0.879541  0.0  0.389175  0.000112  0.95052  0.001  0.400477  -0.000115  0.93428  0.001  0.295764  0.381202  0.000321  0.961935  0.001
H  H5  1  0.07711419  0.53900499  0.80728321  1  0.421621  -0.000545  0.879461  0.0  0.38917  0.000112  0.950503  0.001  0.400471  -0.000116  0.934264  0.001  0.295776  0.381199  0.000321  0.961915  0.001
H  H6  1  0.42288697  0.53900544  0.30728477  1  0.421601  -0.000543  0.87956  0.0  0.389155  0.000112  0.950547  0.001  0.400456  -0.000115  0.934309  0.001  0.295757  0.381183  0.000321  0.96196  0.001
H  H7  1  0.92288929  0.46099487  0.19271629  1  0.421601  -0.000544  0.879513  0.0  0.389145  0.000112  0.950545  0.001  0.400446  -0.000115  0.934309  0.001  0.295763  0.381174  0.000321  0.961958  0.001
H  H8  1  0.48162568  0.35230707  0.62154133  1  0.403188  -0.000471  0.886842  0.001  0.37491  0.000154  0.961012  0.001  0.384413  -0.000124  0.947482  0.001  0.276099  0.368023  0.000399  0.970772  0.001
H  H9  1  0.98162635  0.64768983  0.87845839  1  0.403156  -0.000481  0.886875  0.001  0.374888  0.000154  0.961034  0.001  0.384389  -0.000124  0.947507  0.001  0.276087  0.368001  0.000399  0.970793  0.001
H  H10  1  0.51837604  0.64769280  0.37845871  1  0.403184  -0.000473  0.886833  0.001  0.374903  0.000154  0.961017  0.001  0.384407  -0.000124  0.947486  0.001  0.276079  0.368016  0.000399  0.970776  0.001
H  H11  1  0.01837888  0.35230757  0.12154153  1  0.403164  -0.000475  0.886854  0.001  0.374881  0.000154  0.961048  0.001  0.384385  -0.000124  0.947519  0.001  0.276076  0.367994  0.000399  0.970807  0.001
H  H12  1  0.36475127  0.10391194  0.69506368  1  0.403803  -5.4e-05  0.900532  0.001  0.373348  0.000608  0.971041  0.002  0.383745  0.000248  0.95588  0.002  0.271458  0.365756  0.000932  0.982077  0.002
H  H13  1  0.86475314  0.89608906  0.80493723  1  0.403838  -5.9e-05  0.900534  0.001  0.373364  0.000608  0.971033  0.002  0.383765  0.000248  0.955866  0.002  0.271427  0.365772  0.000932  0.982069  0.002
H  H14  1  0.63524521  0.89608793  0.30493636  1  0.403823  -5.1e-05  0.900581  0.001  0.37336  0.000608  0.971039  0.002  0.383757  0.000248  0.955879  0.002  0.271454  0.365768  0.000932  0.982076  0.002
H  H15  1  0.13524859  0.10391081  0.19506227  1  0.403837  -4.5e-05  0.90052  0.001  0.373364  0.000608  0.971024  0.002  0.383764  0.000248  0.955859  0.002  0.271433  0.365772  0.000932  0.98206  0.002
H  H16  1  0.20812226  0.08290671  0.76529534  1  0.409792  -2.8e-05  0.89721  0.001  0.379701  0.000698  0.962388  0.002  0.390112  0.000341  0.947364  0.002  0.267815  0.372194  0.001033  0.973171  0.002
H  H17  1  0.70811820  0.91709233  0.73470645  1  0.409821  -2.9e-05  0.897199  0.001  0.379732  0.000698  0.962346  0.002  0.390142  0.000341  0.947323  0.002  0.267803  0.372225  0.001033  0.973129  0.002
H  H18  1  0.79187597  0.91709192  0.23470463  1  0.409775  -2.6e-05  0.897283  0.001  0.37968  0.000698  0.962431  0.002  0.39009  0.000341  0.947409  0.002  0.267789  0.372173  0.001033  0.973213  0.002
H  H19  1  0.29187828  0.08290753  0.26529305  1  0.409822  -2.3e-05  0.897196  0.001  0.379721  0.000698  0.962365  0.002  0.390131  0.000341  0.947342  0.002  0.267797  0.372216  0.001033  0.973146  0.002
H  H20  1  0.51784181  0.45137544  0.92270337  1  0.11125  2.1e-05  0.951554  0.0  0.120518  0.000341  1.020017  0.0  0.123045  0.000194  1.018655  0.0  0.111662  0.118644  0.000497  1.02112  0.0
H  H21  1  0.01784817  0.54862666  0.57729681  1  0.111216  1.4e-05  0.9516  0.0  0.120519  0.000341  1.020042  0.0  0.123043  0.000194  1.018681  0.0  0.111684  0.118645  0.000497  1.021149  0.0
H  H22  1  0.48215817  0.54861949  0.07729643  1  0.1113  2e-05  0.951477  0.0  0.120519  0.000341  1.019979  0.0  0.123042  0.000194  1.018622  0.0  0.111668  0.118644  0.000497  1.021083  0.0
H  H23  1  0.98214831  0.45137938  0.42270352  1  0.111258  2.1e-05  0.951528  0.0  0.120527  0.000341  1.020003  0.0  0.123049  0.000194  1.018645  0.0  0.111679  0.118653  0.000497  1.021107  0.0
H  H24  1  0.33493942  0.29958266  0.87392833  1  0.126405  -8.8e-05  0.927831  0.0  0.137246  0.000266  0.989748  0.0  0.140274  6.1e-05  0.987685  0.0  0.118354  0.134857  0.000501  0.991643  0.0
H  H25  1  0.83494131  0.70041843  0.62607256  1  0.126459  -0.0001  0.927731  0.0  0.137309  0.000266  0.989666  0.0  0.140336  6.1e-05  0.987602  0.0  0.11835  0.134916  0.000502  0.991562  0.0
H  H26  1  0.66505881  0.70041228  0.12607201  1  0.126401  -8.7e-05  0.927836  0.0  0.137247  0.000266  0.989729  0.0  0.140273  6.1e-05  0.987668  0.0  0.118355  0.134857  0.000501  0.991623  0.0
H  H27  1  0.16506217  0.29958763  0.37392885  1  0.12644  -9.4e-05  0.927747  0.0  0.137294  0.000266  0.989669  0.0  0.140319  6.1e-05  0.987608  0.0  0.118358  0.134904  0.000502  0.991565  0.0
H  H28  1  0.51956408  0.15507094  0.95324101  1  0.292441  -0.000169  0.870421  0.0  0.272457  8.5e-05  0.93709  0.0  0.279815  -8.6e-05  0.931683  0.0  0.295445  0.267118  0.00025  0.941072  0.0
H  H29  1  0.01955940  0.84492990  0.54675749  1  0.292504  -0.000169  0.870354  0.0  0.272529  8.6e-05  0.936995  0.0  0.279888  -8.6e-05  0.931586  0.0  0.29549  0.267189  0.00025  0.940979  0.0
H  H30  1  0.48043415  0.84492274  0.04675765  1  0.29252  -0.000167  0.870401  0.0  0.272526  8.5e-05  0.937072  0.0  0.279883  -8.6e-05  0.931665  0.0  0.295502  0.267185  0.00025  0.941052  0.0
H  H31  1  0.98043883  0.15507366  0.45324164  1  0.292512  -0.000169  0.870397  0.0  0.272525  8.6e-05  0.93705  0.0  0.279884  -8.6e-05  0.931645  0.0  0.295484  0.267184  0.00025  0.941032  0.0
H  H32  1  0.68843007  0.11378291  0.87874521  1  0.299606  -0.000301  0.843382  0.0  0.279312  -0.000113  0.908524  0.0  0.28665  -0.000268  0.902667  0.0  0.318607  0.273864  7.2e-05  0.91316  0.0
H  H33  1  0.18842741  0.88621862  0.62125344  1  0.299552  -0.000302  0.843407  0.0  0.279264  -0.000113  0.908564  0.0  0.286602  -0.000268  0.902705  0.0  0.318604  0.273816  7.2e-05  0.913195  0.0
H  H34  1  0.31157165  0.88621201  0.12125351  1  0.299637  -0.000293  0.843366  0.0  0.279348  -0.000113  0.908497  0.0  0.286682  -0.000268  0.90265  0.0  0.318635  0.2739  7.2e-05  0.913131  0.0
H  H35  1  0.81157607  0.11378618  0.37874629  1  0.299639  -0.000305  0.843362  0.0  0.279343  -0.000113  0.908509  0.0  0.286679  -0.000268  0.902662  0.0  0.318632  0.273895  7.2e-05  0.913144  0.0
H  H36  1  0.96768027  0.32247961  0.92830497  1  0.114648  3.3e-05  0.938147  0.0  0.13203  0.000365  1.00384  0.0  0.133688  0.0002  1.002716  0.0  0.103852  0.130572  0.000541  1.0051  0.0
H  H37  1  0.46768395  0.67752228  0.57169605  1  0.114617  2.2e-05  0.938232  0.0  0.132018  0.000365  1.003886  0.0  0.133676  0.0002  1.002762  0.0  0.103837  0.13056  0.000541  1.005144  0.0
H  H38  1  0.03231796  0.67751288  0.07169742  1  0.114599  3e-05  0.938086  0.0  0.131982  0.000365  1.003805  0.0  0.133641  0.0002  1.00268  0.0  0.103817  0.130524  0.000541  1.005064  0.0
H  H39  1  0.53231428  0.32248129  0.42830416  1  0.1146  2.5e-05  0.938195  0.0  0.132019  0.000365  1.003846  0.0  0.133677  0.0002  1.002723  0.0  0.103825  0.130561  0.000541  1.00511  0.0
H  H40  1  0.92687431  0.16096173  0.98542028  1  0.121107  -4.6e-05  0.949622  0.0  0.13339  0.000275  1.020641  0.0  0.13544  0.000113  1.019595  0.0  0.096491  0.131656  0.000437  1.021809  0.0
H  H41  1  0.42687467  0.83904400  0.51458035  1  0.121164  -5.1e-05  0.949568  0.0  0.133431  0.000275  1.020587  0.0  0.135481  0.000113  1.019539  0.0  0.096501  0.131699  0.000437  1.021754  0.0
H  H42  1  0.07312043  0.83903322  0.01458060  1  0.121113  -4e-05  0.94953  0.0  0.133405  0.000275  1.020541  0.0  0.135454  0.000113  1.019498  0.0  0.096485  0.131671  0.000437  1.021711  0.0
H  H43  1  0.57312531  0.16095834  0.48541926  1  0.121142  -5.3e-05  0.949533  0.0  0.133421  0.000275  1.02056  0.0  0.13547  0.000113  1.019516  0.0  0.096496  0.13169  0.000437  1.021727  0.0
H  H44  1  0.78346561  0.35551389  0.00745254  1  0.111284  -0.000229  0.94592  0.0  0.131908  -0.000116  1.007025  0.0  0.132784  -0.000177  1.007195  0.0  0.105365  0.131169  -5.2e-05  1.007015  0.0
H  H45  1  0.28346919  0.64448809  0.49254688  1  0.111318  -0.000237  0.945868  0.0  0.131926  -0.000116  1.006984  0.0  0.132803  -0.000177  1.007155  0.0  0.105367  0.131187  -5.2e-05  1.006978  0.0
H  H46  1  0.21653262  0.64447858  0.99254768  1  0.111215  -0.000226  0.945853  0.0  0.131832  -0.000116  1.007002  0.0  0.132711  -0.000177  1.007166  0.0  0.105334  0.131091  -5.2e-05  1.006999  0.0
H  H47  1  0.71652904  0.35551425  0.50745327  1  0.111274  -0.000233  0.945862  0.0  0.131876  -0.000116  1.00701  0.0  0.132751  -0.000177  1.007182  0.0  0.105342  0.131136  -5.2e-05  1.007001  0.0
C  C48  1  0.51672438  0.33788689  0.88477682  1  -0.1477  0.001323  3.552686  0.001  -0.206298  0.002201  3.799855  0.002  -0.208339  0.001525  3.805329  0.002  -0.065208  -0.204821  0.002886  3.796453  0.002
C  C49  1  0.01673723  0.66211649  0.61522667  1  -0.147781  0.001348  3.552901  0.001  -0.206426  0.0022  3.8001  0.002  -0.208464  0.001521  3.805581  0.002  -0.065183  -0.204941  0.002885  3.796702  0.002
C  C50  1  0.48326860  0.66211544  0.11522280  1  -0.147773  0.00132  3.552739  0.001  -0.206316  0.0022  3.799861  0.002  -0.208358  0.001524  3.805342  0.002  -0.065209  -0.204837  0.002886  3.796463  0.002
C  C51  1  0.98326275  0.33788711  0.38477517  1  -0.147763  0.001313  3.552865  0.001  -0.206359  0.002202  3.80005  0.002  -0.208396  0.001519  3.805537  0.002  -0.065189  -0.204874  0.002885  3.796649  0.002
C  C52  1  0.84490004  0.26540998  0.96324851  1  -0.146212  0.000528  3.534607  0.0  -0.249963  0.001432  3.788547  0.001  -0.247301  0.000987  3.795199  0.001  -0.148487  -0.251612  0.001887  3.784467  0.001
C  C53  1  0.34490830  0.73459106  0.53675131  1  -0.146351  0.000555  3.53455  0.0  -0.250069  0.001432  3.788438  0.001  -0.247407  0.000987  3.795089  0.001  -0.148492  -0.251715  0.001887  3.784358  0.001
C  C54  1  0.15509819  0.73458374  0.03675286  1  -0.146067  0.000518  3.534309  0.0  -0.249847  0.001433  3.788295  0.001  -0.247186  0.000987  3.794951  0.001  -0.14843  -0.251499  0.001887  3.784217  0.001
C  C55  1  0.65509518  0.26541126  0.46324776  1  -0.146166  0.000551  3.534449  0.0  -0.249943  0.001432  3.788386  0.001  -0.247283  0.000987  3.795045  0.001  -0.148438  -0.251591  0.001887  3.784304  0.001
C  C56  1  0.62876153  0.36748853  0.81298646  1  0.703124  0.004049  3.819337  0.005  0.650008  0.008849  4.119685  0.009  0.685605  0.006349  4.111496  0.007  0.228851  0.625139  0.011516  4.124644  0.011
C  C57  1  0.12876814  0.63249835  0.68700929  1  0.702989  0.004039  3.819425  0.005  0.649886  0.008847  4.119793  0.009  0.685476  0.006348  4.111612  0.007  0.228789  0.625  0.011514  4.124771  0.011
C  C58  1  0.37122795  0.63250887  0.18701345  1  0.703173  0.004039  3.819266  0.005  0.65008  0.008849  4.119542  0.009  0.685679  0.006348  4.111358  0.007  0.228897  0.625196  0.011514  4.124522  0.011
C  C59  1  0.87123359  0.36750150  0.31298913  1  0.703224  0.004041  3.819273  0.005  0.650043  0.008845  4.119738  0.009  0.685631  0.006349  4.111563  0.007  0.228874  0.625157  0.011513  4.124719  0.011
N  N60  1  0.63798556  0.20506798  0.91915837  1  -0.219019  -6e-06  3.407433  0.0  -0.14957  0.000706  3.621534  0.001  -0.162082  0.000353  3.63184  0.001  -0.48096  -0.14098  0.001076  3.614644  0.001
N  N61  1  0.13798148  0.79493374  0.58084242  1  -0.218936  -5e-06  3.407318  0.0  -0.149492  0.000706  3.62144  0.001  -0.162002  0.000353  3.631741  0.001  -0.481001  -0.140903  0.001076  3.614549  0.001
N  N62  1  0.36201967  0.79492943  0.08084263  1  -0.219128  -1.3e-05  3.407523  0.0  -0.149689  0.000705  3.621659  0.001  -0.16219  0.000353  3.63193  0.001  -0.481036  -0.1411  0.001076  3.614768  0.001
N  N63  1  0.86202025  0.20507229  0.41915737  1  -0.21915  7e-06  3.407593  0.0  -0.149677  0.000705  3.621705  0.001  -0.162161  0.000354  3.631927  0.001  -0.481026  -0.141087  0.001076  3.614812  0.001
Cl  Cl64  1  0.67550533  0.01518387  0.63639983  1  -0.61238  0.043693  0.974513  0.026  -0.553963  0.056293  1.250254  0.028  -0.574225  0.048296  1.225196  0.023  -0.244088  -0.53781  0.063814  1.268086  0.034
Cl  Cl65  1  0.17550205  0.98481773  0.86360044  1  -0.612401  0.043692  0.974539  0.026  -0.553955  0.056292  1.25027  0.028  -0.57422  0.048296  1.225211  0.023  -0.244081  -0.537802  0.063813  1.268101  0.034
Cl  Cl66  1  0.32449290  0.98481848  0.36360087  1  -0.612394  0.043693  0.974516  0.026  -0.553948  0.056292  1.250244  0.028  -0.574219  0.048295  1.225181  0.023  -0.244088  -0.537794  0.063813  1.268076  0.034
Cl  Cl67  1  0.82449443  0.01517968  0.13640002  1  -0.612396  0.043692  0.97452  0.026  -0.553931  0.056292  1.250233  0.028  -0.574203  0.048296  1.225167  0.023  -0.244083  -0.53778  0.063813  1.268065  0.034
Cl  Cl68  1  0.16364631  0.23890742  0.56186229  1  -0.613545  0.045511  0.888914  0.027  -0.550881  0.057944  1.152405  0.029  -0.571179  0.04964  1.12977  0.024  -0.272172  -0.534564  0.065823  1.168371  0.035
Cl  Cl69  1  0.66364313  0.76109176  0.93813893  1  -0.61357  0.045513  0.888924  0.027  -0.5509  0.057946  1.152414  0.029  -0.571196  0.049642  1.129781  0.024  -0.272179  -0.534583  0.065824  1.168383  0.035
Cl  Cl70  1  0.83635367  0.76109493  0.43813840  1  -0.613554  0.045513  0.888943  0.027  -0.550875  0.057945  1.152433  0.029  -0.571181  0.049642  1.129798  0.024  -0.272167  -0.534557  0.065824  1.168399  0.035
Cl  Cl71  1  0.33635510  0.23890687  0.06186051  1  -0.613573  0.045516  0.888938  0.027  -0.550887  0.057948  1.152442  0.029  -0.571191  0.049644  1.1298  0.024  -0.272179  -0.534571  0.065828  1.168411  0.035
O  O72  1  0.61885201  0.41502245  0.64187643  1  -0.82864  0.027798  1.914656  0.018  -0.770694  0.036087  2.127909  0.023  -0.794419  0.032072  2.095471  0.02  -0.569037  -0.752784  0.039849  2.150651  0.026
O  O73  1  0.11885324  0.58497809  0.85812320  1  -0.828622  0.027814  1.914614  0.018  -0.770668  0.036086  2.127939  0.023  -0.794392  0.032072  2.095505  0.02  -0.569033  -0.752756  0.039848  2.150679  0.026
O  O74  1  0.38114797  0.58497865  0.35812312  1  -0.828633  0.027801  1.914646  0.018  -0.770677  0.036087  2.127923  0.023  -0.794408  0.032072  2.095485  0.02  -0.569019  -0.752764  0.039848  2.150662  0.026
O  O75  1  0.88114849  0.41502178  0.14187683  1  -0.828611  0.027804  1.914615  0.018  -0.770631  0.036087  2.127937  0.023  -0.794365  0.032072  2.095499  0.02  -0.56901  -0.752719  0.039849  2.150676  0.026
O  O76  1  0.77077733  0.26051352  0.78426675  1  -0.624232  0.029422  2.019294  0.021  -0.557405  0.037525  2.269877  0.026  -0.586235  0.033063  2.25784  0.023  -0.303417  -0.536483  0.04188  2.277979  0.03
O  O77  1  0.27078865  0.73948281  0.71573171  1  -0.624261  0.029434  2.018944  0.021  -0.557466  0.037528  2.269562  0.026  -0.586292  0.033066  2.257525  0.023  -0.303471  -0.536544  0.041883  2.277675  0.03
O  O78  1  0.22922265  0.73949129  0.21573353  1  -0.624287  0.029429  2.019343  0.021  -0.557451  0.037525  2.26992  0.026  -0.586284  0.033063  2.257875  0.023  -0.303462  -0.536527  0.041879  2.278033  0.03
O  O79  1  0.72922183  0.26051951  0.28426682  1  -0.624327  0.029436  2.019071  0.021  -0.557465  0.037524  2.269675  0.026  -0.586299  0.033064  2.257635  0.023  -0.303452  -0.53654  0.041879  2.27779  0.03
O  O80  1  0.56425028  0.49656516  0.78537322  1  -0.648504  0.028308  2.096885  0.017  -0.574058  0.035629  2.349944  0.023  -0.605866  0.031673  2.338029  0.019  -0.299245  -0.550673  0.039322  2.357477  0.026
O  O81  1  0.06425450  0.50344049  0.71462662  1  -0.648334  0.028303  2.097042  0.017  -0.573873  0.035627  2.350073  0.023  -0.60569  0.031672  2.338193  0.019  -0.299187  -0.55049  0.03932  2.357615  0.026
O  O82  1  0.43574445  0.50343224  0.21462670  1  -0.648502  0.028309  2.096777  0.017  -0.574092  0.03563  2.349883  0.023  -0.605888  0.031674  2.337922  0.019  -0.299255  -0.550702  0.039323  2.357424  0.026
O  O83  1  0.93574723  0.49656554  0.28537262  1  -0.648498  0.028311  2.096953  0.017  -0.573996  0.035628  2.350009  0.023  -0.605829  0.031672  2.338143  0.019  -0.299256  -0.550608  0.03932  2.35755  0.026
O  O84  1  0.21658234  0.13774681  0.72007255  1  -0.831604  0.029988  1.966196  0.018  -0.771394  0.039342  2.174354  0.024  -0.794369  0.035057  2.139123  0.021  -0.576138  -0.753862  0.043282  2.19942  0.027
O  O85  1  0.71657376  0.86225963  0.77993122  1  -0.831671  0.029998  1.966181  0.018  -0.771441  0.039342  2.174319  0.024  -0.794418  0.035059  2.139084  0.021  -0.576092  -0.753913  0.043284  2.199386  0.027
O  O86  1  0.78341414  0.86225430  0.27992809  1  -0.831596  0.029981  1.966297  0.018  -0.771371  0.039342  2.174392  0.024  -0.794352  0.035057  2.13916  0.021  -0.576117  -0.75384  0.043282  2.199458  0.027
O  O87  1  0.28342447  0.13774147  0.22006833  1  -0.831679  0.029966  1.966206  0.018  -0.771442  0.039341  2.17437  0.024  -0.794426  0.035058  2.139135  0.021  -0.576082  -0.753914  0.043282  2.199436  0.027
