# generated using pymatgen
data_AgH24C34N2O4F3
_symmetry_space_group_name_H-M   'P 1'
_cell_length_a   10.35693543
_cell_length_b   13.19406071
_cell_length_c   14.43913364
_cell_angle_alpha   71.05172310
_cell_angle_beta   86.00075394
_cell_angle_gamma   75.49605803
_symmetry_Int_Tables_number   1
_chemical_formula_structural   AgH24C34N2O4F3
_chemical_formula_sum   'Ag2 H48 C68 N4 O8 F6'
_cell_volume   1806.57033582
_cell_formula_units_Z   2
loop_
 _symmetry_equiv_pos_site_id
 _symmetry_equiv_pos_as_xyz
  1  'x, y, z'
loop_
 _atom_site_type_symbol
 _atom_site_label
 _atom_site_symmetry_multiplicity
 _atom_site_fract_x
 _atom_site_fract_y
 _atom_site_fract_z
 _atom_site_occupancy
 _atom_site_hle17_bader_spin_density
 _atom_site_hle17_ddec_charge
 _atom_site_hle17_ddec_spin_density
 _atom_site_hle17_ddec_sum_bond_order
 _atom_site_hle17_magmom
 _atom_site_hse06_10hf_bader_spin_density
 _atom_site_hse06_10hf_ddec_charge
 _atom_site_hse06_10hf_ddec_spin_density
 _atom_site_hse06_10hf_ddec_sum_bond_order
 _atom_site_hse06_10hf_magmom
 _atom_site_hse06_bader_spin_density
 _atom_site_hse06_ddec_charge
 _atom_site_hse06_ddec_spin_density
 _atom_site_hse06_ddec_sum_bond_order
 _atom_site_hse06_magmom
 _atom_site_pbe_bader_spin_density
 _atom_site_pbe_cm5_charge
 _atom_site_pbe_ddec_charge
 _atom_site_pbe_ddec_spin_density
 _atom_site_pbe_ddec_sum_bond_order
 _atom_site_pbe_magmom
Ag  Ag0  1  0.08292052  0.09009752  0.46520374  1  0  0.500469  0  1.465369  0  0  0.350781  0  1.916037  0  0  0.381224  0  1.869863  0  0  0.468537  0.330088  0  1.947819  0
Ag  Ag1  1  0.91708067  0.90990050  0.53479484  1  0  0.500539  0  1.465316  0  0  0.350842  0  1.91601  0  0  0.381285  0  1.869837  0  0  0.468565  0.330156  0  1.947795  0
H  H2  1  0.99881995  0.06269120  0.67800113  1  0  0.090603  0  0.947047  0  0  0.102006  0  1.005517  0  0  0.104171  0  1.003573  0  0  0.118384  0.100261  0  1.007245  0
H  H3  1  0.00117955  0.93730929  0.32199472  1  0  0.090577  0  0.947039  0  0  0.101974  0  1.005523  0  0  0.104141  0  1.003575  0  0  0.118386  0.100229  0  1.007249  0
H  H4  1  0.80085096  0.13645653  0.76949815  1  0  0.104282  0  0.935808  0  0  0.117942  0  0.986188  0  0  0.120091  0  0.98738  0  0  0.111008  0.116442  0  0.985424  0
H  H5  1  0.19915359  0.86354316  0.23050048  1  0  0.104326  0  0.935932  0  0  0.117926  0  0.986364  0  0  0.120072  0  0.987561  0  0  0.111056  0.116428  0  0.985599  0
H  H6  1  0.60183504  0.27048279  0.67268815  1  0  0.095785  0  1.005659  0  0  0.099198  0  1.079789  0  0  0.100817  0  1.080315  0  0  0.104582  0.097987  0  1.079437  0
H  H7  1  0.39816880  0.72951607  0.32731076  1  0  0.095813  0  1.005591  0  0  0.099197  0  1.079754  0  0  0.100827  0  1.080272  0  0  0.104558  0.097988  0  1.079404  0
H  H8  1  0.82175756  0.25979999  0.41042479  1  0  0.086917  0  0.955512  0  0  0.096337  0  1.0218  0  0  0.097235  0  1.021925  0  0  0.116286  0.09557  0  1.021933  0
H  H9  1  0.17824145  0.74019884  0.58957434  1  0  0.086933  0  0.955533  0  0  0.096359  0  1.021817  0  0  0.097256  0  1.021943  0  0  0.116293  0.095592  0  1.021951  0
H  H10  1  0.55972184  0.32195385  0.41455157  1  0  0.062118  0  0.945162  0  0  0.074111  0  1.011865  0  0  0.07429  0  1.010424  0  0  0.100522  0.073907  0  1.012972  0
H  H11  1  0.44027763  0.67804663  0.58544775  1  0  0.062147  0  0.945069  0  0  0.074149  0  1.011775  0  0  0.074332  0  1.010341  0  0  0.100529  0.073946  0  1.012881  0
H  H12  1  0.49218965  0.37173823  0.51370022  1  0  0.077881  0  0.941928  0  0  0.083547  0  1.013853  0  0  0.085197  0  1.011914  0  0  0.104549  0.082281  0  1.015399  0
H  H13  1  0.50780984  0.62825894  0.48630145  1  0  0.077888  0  0.941955  0  0  0.08357  0  1.013875  0  0  0.085221  0  1.011938  0  0  0.104569  0.082306  0  1.01542  0
H  H14  1  0.39834052  0.44871818  0.34247253  1  0  0.10194  0  0.97446  0  0  0.115413  0  1.032845  0  0  0.118196  0  1.031691  0  0  0.104057  0.113465  0  1.033662  0
H  H15  1  0.60165990  0.55128231  0.65752813  1  0  0.101932  0  0.974422  0  0  0.11538  0  1.032848  0  0  0.118182  0  1.031672  0  0  0.104055  0.113433  0  1.033666  0
H  H16  1  0.29134388  0.58327792  0.19070299  1  0  0.097801  0  0.937288  0  0  0.111117  0  0.991804  0  0  0.113778  0  0.99085  0  0  0.105764  0.109283  0  0.992386  0
H  H17  1  0.70865924  0.41672011  0.80929619  1  0  0.097743  0  0.937324  0  0  0.111105  0  0.991797  0  0  0.113769  0  0.99084  0  0  0.105759  0.10927  0  0.99238  0
H  H18  1  0.28731630  0.75096566  0.04775114  1  0  0.095506  0  0.937237  0  0  0.108146  0  0.991057  0  0  0.111485  0  0.989157  0  0  0.103048  0.105776  0  0.992376  0
H  H19  1  0.71268682  0.24903237  0.95224735  1  0  0.095448  0  0.937245  0  0  0.108073  0  0.991088  0  0  0.111436  0  0.989161  0  0  0.103014  0.105703  0  0.992406  0
H  H20  1  0.38802520  0.90530005  0.95473147  1  0  0.083208  0  0.962057  0  0  0.09537  0  1.021947  0  0  0.098168  0  1.020613  0  0  0.093482  0.093324  0  1.023036  0
H  H21  1  0.61197497  0.09470126  0.04526966  1  0  0.083222  0  0.96202  0  0  0.095379  0  1.021921  0  0  0.098178  0  1.020587  0  0  0.093482  0.093333  0  1.023012  0
H  H22  1  0.60129801  0.92119686  0.01388611  1  0  0.076944  0  0.971571  0  0  0.088741  0  1.032729  0  0  0.091115  0  1.031925  0  0  0.094351  0.087021  0  1.033401  0
H  H23  1  0.39870094  0.07880527  0.98611552  1  0  0.077016  0  0.971495  0  0  0.088755  0  1.032718  0  0  0.091127  0  1.031918  0  0  0.094363  0.087036  0  1.033392  0
H  H24  1  0.71067027  0.78515074  0.16631770  1  0  0.092017  0  0.954113  0  0  0.103076  0  1.012086  0  0  0.106088  0  1.011057  0  0  0.098931  0.101037  0  1.012629  0
H  H25  1  0.28933041  0.21484892  0.83368250  1  0  0.092057  0  0.954099  0  0  0.103118  0  1.012071  0  0  0.106129  0  1.011043  0  0  0.098941  0.101078  0  1.012615  0
H  H26  1  0.79343688  0.45367827  0.25091105  1  0  0.09421  0  0.970283  0  0  0.102338  0  1.034973  0  0  0.105223  0  1.033879  0  0  0.093846  0.100352  0  1.035655  0
H  H27  1  0.20656235  0.54631973  0.74909179  1  0  0.094234  0  0.970219  0  0  0.102364  0  1.0349  0  0  0.105249  0  1.033805  0  0  0.09387  0.100379  0  1.035584  0
H  H28  1  0.00767828  0.32200654  0.25267614  1  0  0.09206  0  0.967262  0  0  0.102195  0  1.02942  0  0  0.10551  0  1.026826  0  0  0.095231  0.099693  0  1.031527  0
H  H29  1  0.99231999  0.67799145  0.74732605  1  0  0.09211  0  0.967234  0  0  0.102229  0  1.029404  0  0  0.105545  0  1.026807  0  0  0.095246  0.099729  0  1.03151  0
H  H30  1  0.21246092  0.33886630  0.32437679  1  0  0.079939  0  0.95423  0  0  0.090798  0  1.014407  0  0  0.094097  0  1.012893  0  0  0.09131  0.088528  0  1.015317  0
H  H31  1  0.78753904  0.66113253  0.67562438  1  0  0.079924  0  0.954268  0  0  0.090803  0  1.014415  0  0  0.094103  0  1.0129  0  0  0.091311  0.088534  0  1.015325  0
H  H32  1  0.19474012  0.48990641  0.39704309  1  0  0.088779  0  0.953459  0  0  0.099401  0  1.015618  0  0  0.102328  0  1.014409  0  0  0.096854  0.097197  0  1.016715  0
H  H33  1  0.80525983  0.51009242  0.60295878  1  0  0.08881  0  0.953425  0  0  0.099422  0  1.015595  0  0  0.10235  0  1.014386  0  0  0.096855  0.097219  0  1.016691  0
H  H34  1  0.06145100  0.64788566  0.44057041  1  0  0.094678  0  0.956789  0  0  0.105215  0  1.018437  0  0  0.107402  0  1.018597  0  0  0.099914  0.10379  0  1.018044  0
H  H35  1  0.93854991  0.35211317  0.55943279  1  0  0.094627  0  0.956862  0  0  0.105197  0  1.018481  0  0  0.107385  0  1.018638  0  0  0.099908  0.103773  0  1.018085  0
H  H36  1  0.84645358  0.77847264  0.44394968  1  0  0.087648  0  1.0062  0  0  0.092619  0  1.088954  0  0  0.096955  0  1.084748  0  0  0.09064  0.089418  0  1.09224  0
H  H37  1  0.15354517  0.22152701  0.55604991  1  0  0.087695  0  1.006152  0  0  0.092645  0  1.088925  0  0  0.096979  0  1.084718  0  0  0.090649  0.089443  0  1.092212  0
H  H38  1  0.68577136  0.90671744  0.38042663  1  0  0.085788  0  0.967763  0  0  0.099869  0  1.03136  0  0  0.100503  0  1.030105  0  0  0.10616  0.099159  0  1.03258  0
H  H39  1  0.31423081  0.09328058  0.61957121  1  0  0.085823  0  0.967767  0  0  0.099909  0  1.03134  0  0  0.100543  0  1.030087  0  0  0.106167  0.099199  0  1.032561  0
H  H40  1  0.59683521  0.84146577  0.48402520  1  0  0.063923  0  0.909216  0  0  0.078771  0  0.968212  0  0  0.079302  0  0.967255  0  0  0.101773  0.07824  0  0.969168  0
H  H41  1  0.40316427  0.15853472  0.51597273  1  0  0.063943  0  0.909227  0  0  0.078788  0  0.968217  0  0  0.079319  0  0.967259  0  0  0.101761  0.078257  0  0.969175  0
H  H42  1  0.54395116  0.97526103  0.20989666  1  0  0.100762  0  0.933278  0  0  0.111821  0  0.9939  0  0  0.11386  0  0.9928  0  0  0.110787  0.110279  0  0.994901  0
H  H43  1  0.45605071  0.02474113  0.79010137  1  0  0.100754  0  0.933309  0  0  0.11183  0  0.993922  0  0  0.11387  0  0.99282  0  0  0.110799  0.110287  0  0.994922  0
H  H44  1  0.33183592  0.11330473  0.13703233  1  0  0.104384  0  0.950717  0  0  0.117118  0  1.004159  0  0  0.119236  0  1.00493  0  0  0.110447  0.115581  0  1.003769  0
H  H45  1  0.66816476  0.88669493  0.86296787  1  0  0.104345  0  0.950679  0  0  0.117085  0  1.004125  0  0  0.119204  0  1.004896  0  0  0.110438  0.115547  0  1.003734  0
H  H46  1  0.14532291  0.15508834  0.24986889  1  0  0.095341  0  0.940673  0  0  0.108551  0  0.997382  0  0  0.110546  0  0.995323  0  0  0.121772  0.106712  0  0.999504  0
H  H47  1  0.85467803  0.84491050  0.75013015  1  0  0.095229  0  0.940636  0  0  0.108455  0  0.997338  0  0  0.110452  0  0.995276  0  0  0.121734  0.106618  0  0.99946  0
H  H48  1  0.37147029  0.94921379  0.49532125  1  0  0.092048  0  0.956807  0  0  0.098878  0  1.026791  0  0  0.101213  0  1.025398  0  0  0.113677  0.097028  0  1.028071  0
H  H49  1  0.62853258  0.05078506  0.50467770  1  0  0.092093  0  0.956785  0  0  0.098891  0  1.026809  0  0  0.101227  0  1.025416  0  0  0.113681  0.097042  0  1.028088  0
C  C50  1  0.19069944  0.87858073  0.68498840  1  0  0.473314  0  4.100238  0  0  0.427033  0  4.403198  0  0  0.455816  0  4.398151  0  0  0.173682  0.407521  0  4.405906  0
C  C51  1  0.80929398  0.12142054  0.31501166  1  0  0.473348  0  4.100064  0  0  0.426869  0  4.403199  0  0  0.455712  0  4.39819  0  0  0.173564  0.407362  0  4.405889  0
C  C52  1  0.31274862  0.79399666  0.74818022  1  0  0.663579  0  3.627862  0  0  0.598296  0  3.967119  0  0  0.626408  0  3.938605  0  0  0.285416  0.577982  0  3.987854  0
C  C53  1  0.68723933  0.20601282  0.25182946  1  0  0.662899  0  3.628802  0  0  0.598044  0  3.967428  0  0  0.625902  0  3.939354  0  0  0.285249  0.577729  0  3.988155  0
C  C54  1  0.91194516  0.12463424  0.64020193  1  0  0.117107  0  3.701489  0  0  0.083873  0  3.946549  0  0  0.090983  0  3.965829  0  0  0.04591  0.07923  0  3.933675  0
C  C55  1  0.08805457  0.87536543  0.35979554  1  0  0.117163  0  3.701422  0  0  0.083931  0  3.946465  0  0  0.091039  0  3.965743  0  0  0.045914  0.07929  0  3.933589  0
C  C56  1  0.80156115  0.16491500  0.68974966  1  0  -0.108223  0  3.737671  0  0  -0.118052  0  3.98613  0  0  -0.126182  0  4.009791  0  0  -0.079896  -0.112681  0  3.96987  0
C  C57  1  0.19844001  0.83508633  0.31024795  1  0  -0.108217  0  3.737884  0  0  -0.118007  0  3.986342  0  0  -0.126135  0  4.01  0  0  -0.07994  -0.112636  0  3.970084  0
C  C58  1  0.69157434  0.24048968  0.63612376  1  0  -0.04063  0  3.689174  0  0  -0.070632  0  3.940851  0  0  -0.066959  0  3.960969  0  0  -0.062309  -0.072559  0  3.926701  0
C  C59  1  0.30842586  0.75951164  0.36387390  1  0  -0.040772  0  3.689276  0  0  -0.070734  0  3.940885  0  0  -0.067071  0  3.960995  0  0  -0.062317  -0.072661  0  3.926741  0
C  C60  1  0.69619845  0.27572863  0.53404366  1  0  0.01981  0  3.731619  0  0  0.041325  0  3.973458  0  0  0.035414  0  3.99662  0  0  -0.008746  0.044947  0  3.957804  0
C  C61  1  0.30380515  0.72427106  0.46595293  1  0  0.019952  0  3.731686  0  0  0.041516  0  3.97345  0  0  0.035607  0  3.996629  0  0  -0.008632  0.045142  0  3.957799  0
C  C62  1  0.81169787  0.23316974  0.48980706  1  0  0.081121  0  3.665035  0  0  0.042353  0  3.907182  0  0  0.048847  0  3.927747  0  0  0.047624  0.037754  0  3.89394  0
C  C63  1  0.18830476  0.76682994  0.51019027  1  0  0.081041  0  3.665176  0  0  0.042229  0  3.907327  0  0  0.048746  0  3.927847  0  0  0.047562  0.03763  0  3.894088  0
C  C64  1  0.58199202  0.35575386  0.47036528  1  0  0.05244  0  3.625978  0  0  -0.010431  0  3.886162  0  0  -0.001013  0  3.889794  0  0  -0.060697  -0.016795  0  3.883807  0
C  C65  1  0.41800891  0.64424498  0.52963446  1  0  0.052383  0  3.625885  0  0  -0.010569  0  3.886136  0  0  -0.001174  0  3.889801  0  0  -0.060739  -0.016934  0  3.883784  0
C  C66  1  0.56163071  0.52696926  0.33725603  1  0  0.228336  0  3.789912  0  0  0.211241  0  4.060301  0  0  0.222324  0  4.07519  0  0  0.083834  0.203676  0  4.049992  0
C  C67  1  0.43836876  0.47303122  0.66274398  1  0  0.228357  0  3.789891  0  0  0.211268  0  4.060278  0  0  0.222349  0  4.075165  0  0  0.083877  0.203705  0  4.049966  0
C  C68  1  0.44361199  0.51585145  0.30175136  1  0  -0.1899  0  3.800625  0  0  -0.213564  0  4.061444  0  0  -0.218424  0  4.081115  0  0  -0.107208  -0.210001  0  4.047693  0
C  C69  1  0.55638773  0.48414821  0.69824819  1  0  -0.189858  0  3.800451  0  0  -0.213502  0  4.061282  0  0  -0.218378  0  4.080952  0  0  -0.107169  -0.209941  0  4.047531  0
C  C70  1  0.38385388  0.59135414  0.21627516  1  0  -0.087278  0  3.76219  0  0  -0.106151  0  4.013287  0  0  -0.105729  0  4.032886  0  0  -0.08652  -0.106697  0  3.999979  0
C  C71  1  0.61614730  0.40864387  0.78372481  1  0  -0.087294  0  3.762083  0  0  -0.106211  0  4.013198  0  0  -0.105792  0  4.032804  0  0  -0.08658  -0.106756  0  3.999889  0
C  C72  1  0.43942540  0.68042038  0.16184458  1  0  0.050541  0  3.790881  0  0  0.061167  0  4.025877  0  0  0.059309  0  4.050781  0  0  -0.014038  0.062338  0  4.009417  0
C  C73  1  0.56057702  0.31957682  0.83815280  1  0  0.050535  0  3.790774  0  0  0.061151  0  4.025791  0  0  0.059291  0  4.050702  0  0  -0.014082  0.062322  0  4.009326  0
C  C74  1  0.37883683  0.75983288  0.07412880  1  0  -0.113219  0  3.757871  0  0  -0.128952  0  4.005273  0  0  -0.130211  0  4.025641  0  0  -0.091257  -0.128047  0  3.991477  0
C  C75  1  0.62116604  0.24016598  0.92587015  1  0  -0.113067  0  3.757705  0  0  -0.128775  0  4.005092  0  0  -0.130053  0  4.025456  0  0  -0.091167  -0.127871  0  3.991293  0
C  C76  1  0.43528282  0.84552640  0.02231044  1  0  -0.087483  0  3.822587  0  0  -0.106637  0  4.08037  0  0  -0.109286  0  4.102893  0  0  -0.10657  -0.104754  0  4.065001  0
C  C77  1  0.56471761  0.15447409  0.97768953  1  0  -0.087519  0  3.822681  0  0  -0.106682  0  4.080437  0  0  -0.109333  0  4.102969  0  0  -0.106557  -0.104799  0  4.065068  0
C  C78  1  0.55608677  0.85410196  0.05583224  1  0  -0.088978  0  3.82408  0  0  -0.101072  0  4.078297  0  0  -0.102687  0  4.100379  0  0  -0.103543  -0.099884  0  4.063233  0
C  C79  1  0.44391705  0.14589690  0.94416875  1  0  -0.089063  0  3.82426  0  0  -0.101093  0  4.078458  0  0  -0.102708  0  4.100538  0  0  -0.103589  -0.099907  0  4.063394  0
C  C80  1  0.61724449  0.77867124  0.14091593  1  0  -0.111006  0  3.756308  0  0  -0.132347  0  4.006809  0  0  -0.134541  0  4.02682  0  0  -0.096366  -0.13083  0  3.993256  0
C  C81  1  0.38275765  0.22132678  0.85908468  1  0  -0.111094  0  3.756255  0  0  -0.132447  0  4.006737  0  0  -0.134642  0  4.026746  0  0  -0.096379  -0.13093  0  3.993183  0
C  C82  1  0.56043155  0.69061853  0.19723123  1  0  0.039174  0  3.749509  0  0  0.051554  0  3.978931  0  0  0.052733  0  4.00165  0  0  -0.003377  0.050492  0  3.963776  0
C  C83  1  0.43956817  0.30938113  0.80276763  1  0  0.039224  0  3.749284  0  0  0.051622  0  3.978717  0  0  0.052802  0  4.00143  0  0  -0.003328  0.05056  0  3.963559  0
C  C84  1  0.62032900  0.61342212  0.28668615  1  0  -0.08174  0  3.749587  0  0  -0.079506  0  3.997277  0  0  -0.082373  0  4.018082  0  0  -0.019585  -0.077345  0  3.982782  0
C  C85  1  0.37967244  0.38657507  0.71331336  1  0  -0.08174  0  3.749533  0  0  -0.07958  0  3.997284  0  0  -0.082445  0  4.018084  0  0  -0.019618  -0.077421  0  3.982788  0
C  C86  1  0.74317292  0.62353937  0.32661470  1  0  -0.080284  0  3.752891  0  0  -0.082326  0  4.006166  0  0  -0.085439  0  4.027246  0  0  -0.022189  -0.080192  0  3.991743  0
C  C87  1  0.25682729  0.37645864  0.67338532  1  0  -0.080296  0  3.752905  0  0  -0.082272  0  4.006121  0  0  -0.085394  0  4.027225  0  0  -0.022167  -0.080137  0  3.991694  0
C  C88  1  0.86791207  0.54811625  0.32408224  1  0  0.041846  0  3.756059  0  0  0.051097  0  3.987412  0  0  0.052589  0  4.010599  0  0  -0.006508  0.050644  0  3.971267  0
C  C89  1  0.13208596  0.45188256  0.67591972  1  0  0.041863  0  3.756049  0  0  0.051091  0  3.98738  0  0  0.052584  0  4.010566  0  0  -0.006544  0.050638  0  3.971237  0
C  C90  1  0.88106512  0.46188348  0.28277541  1  0  -0.113222  0  3.743353  0  0  -0.136381  0  3.996616  0  0  -0.13924  0  4.017374  0  0  -0.099052  -0.134496  0  3.982198  0
C  C91  1  0.11893607  0.53811453  0.71722456  1  0  -0.11326  0  3.743531  0  0  -0.136417  0  3.996788  0  0  -0.139276  0  4.017545  0  0  -0.099082  -0.134533  0  3.982375  0
C  C92  1  0.00233574  0.38849905  0.28313810  1  0  -0.081615  0  3.801461  0  0  -0.093099  0  4.053628  0  0  -0.0942  0  4.074664  0  0  -0.100068  -0.091922  0  4.039009  0
C  C93  1  0.99766786  0.61150065  0.71685849  1  0  -0.08167  0  3.801647  0  0  -0.093143  0  4.053812  0  0  -0.094246  0  4.07485  0  0  -0.100064  -0.091966  0  4.039196  0
C  C94  1  0.11743057  0.39810196  0.32397895  1  0  -0.09512  0  3.82061  0  0  -0.110423  0  4.076378  0  0  -0.113775  0  4.098595  0  0  -0.106748  -0.108064  0  4.060893  0
C  C95  1  0.88256964  0.60189604  0.67602246  1  0  -0.095091  0  3.820701  0  0  -0.110402  0  4.076455  0  0  -0.113756  0  4.098674  0  0  -0.106738  -0.108044  0  4.060973  0
C  C96  1  0.10825427  0.48160997  0.36365969  1  0  -0.103484  0  3.7603  0  0  -0.121097  0  4.007732  0  0  -0.122309  0  4.029508  0  0  -0.09333  -0.120137  0  3.99301  0
C  C97  1  0.89174544  0.51838968  0.63634125  1  0  -0.103469  0  3.760289  0  0  -0.121086  0  4.007736  0  0  -0.122298  0  4.029513  0  0  -0.093332  -0.120125  0  3.993014  0
C  C98  1  0.98489381  0.55812589  0.36469501  1  0  0.039248  0  3.804897  0  0  0.055576  0  4.032271  0  0  0.053092  0  4.056869  0  0  -0.015977  0.057185  0  4.015397  0
C  C99  1  0.01510421  0.44187292  0.63530625  1  0  0.039142  0  3.804951  0  0  0.055486  0  4.032318  0  0  0.053005  0  4.056912  0  0  -0.01598  0.057096  0  4.015443  0
C  C100  1  0.97328762  0.64276821  0.40694047  1  0  -0.07726  0  3.762259  0  0  -0.098274  0  4.011461  0  0  -0.097158  0  4.032506  0  0  -0.088735  -0.099092  0  3.997107  0
C  C101  1  0.02671426  0.35723063  0.59306199  1  0  -0.077141  0  3.762381  0  0  -0.098189  0  4.011585  0  0  -0.097073  0  4.032627  0  0  -0.088703  -0.099007  0  3.997228  0
C  C102  1  0.85272939  0.71571148  0.40887285  1  0  -0.19748  0  3.812252  0  0  -0.21623  0  4.068646  0  0  -0.223517  0  4.09045  0  0  -0.114415  -0.2114  0  4.054621  0
C  C103  1  0.14727179  0.28428653  0.59112782  1  0  -0.197561  0  3.81222  0  0  -0.216299  0  4.068641  0  0  -0.22358  0  4.09044  0  0  -0.114432  -0.211468  0  4.054614  0
C  C104  1  0.73750984  0.70637593  0.36828257  1  0  0.222708  0  3.790538  0  0  0.206801  0  4.056719  0  0  0.217915  0  4.072361  0  0  0.077689  0.198601  0  4.046596  0
C  C105  1  0.26249012  0.29362290  0.63171721  1  0  0.22275  0  3.79062  0  0  0.206822  0  4.056755  0  0  0.217939  0  4.072395  0  0  0.077697  0.198624  0  4.046629  0
C  C106  1  0.60089154  0.86845977  0.40330850  1  0  0.045195  0  3.628342  0  0  -0.019115  0  3.88423  0  0  -0.010332  0  3.888927  0  0  -0.061385  -0.024912  0  3.881061  0
C  C107  1  0.39910941  0.13153907  0.59668985  1  0  0.045074  0  3.62856  0  0  -0.019291  0  3.884372  0  0  -0.010509  0  3.889067  0  0  -0.061424  -0.025091  0  3.881207  0
C  C108  1  0.47518566  0.95145022  0.35832587  1  0  0.0272  0  3.735792  0  0  0.049578  0  3.977951  0  0  0.044191  0  4.002124  0  0  -0.004315  0.052842  0  3.961929  0
C  C109  1  0.52481769  0.04855030  0.64167187  1  0  0.027116  0  3.735925  0  0  0.049677  0  3.977868  0  0  0.044293  0  4.002038  0  0  -0.004305  0.052939  0  3.961845  0
C  C110  1  0.46244612  0.99889441  0.25651236  1  0  -0.02517  0  3.669945  0  0  -0.056874  0  3.923671  0  0  -0.053224  0  3.941977  0  0  -0.057176  -0.059325  0  3.911611  0
C  C111  1  0.53755525  0.00110939  0.74348728  1  0  -0.025006  0  3.669912  0  0  -0.056804  0  3.923636  0  0  -0.053155  0  3.941942  0  0  -0.057106  -0.059254  0  3.911574  0
C  C112  1  0.34472341  0.07436135  0.21591883  1  0  -0.113214  0  3.749487  0  0  -0.122489  0  3.996197  0  0  -0.130134  0  4.019468  0  0  -0.079247  -0.117563  0  3.980666  0
C  C113  1  0.65527458  0.92564078  0.78408147  1  0  -0.113245  0  3.749446  0  0  -0.122531  0  3.996198  0  0  -0.130177  0  4.019471  0  0  -0.079308  -0.117605  0  3.980667  0
C  C114  1  0.24159372  0.10004662  0.27784972  1  0  0.111704  0  3.697551  0  0  0.080254  0  3.937289  0  0  0.086638  0  3.958111  0  0  0.047342  0.075997  0  3.923487  0
C  C115  1  0.75840503  0.89995303  0.72214988  1  0  0.11181  0  3.697424  0  0  0.080394  0  3.937162  0  0  0.086777  0  3.957984  0  0  0.047377  0.076134  0  3.923359  0
C  C116  1  0.36830531  0.98315957  0.41543439  1  0  0.059002  0  3.674347  0  0  0.020037  0  3.918406  0  0  0.02526  0  3.9399  0  0  0.041425  0.016785  0  3.904009  0
C  C117  1  0.63169513  0.01684092  0.58456349  1  0  0.05904  0  3.674358  0  0  0.020059  0  3.918407  0  0  0.025289  0  3.939883  0  0  0.041475  0.016807  0  3.904006  0
N  N118  1  0.91644049  0.15818394  0.54143218  1  0  -0.305897  0  3.404856  0  0  -0.206485  0  3.67482  0  0  -0.227727  0  3.693496  0  0  -0.354024  -0.191957  0  3.661848  0
N  N119  1  0.08356044  0.84181490  0.45856686  1  0  -0.305945  0  3.404739  0  0  -0.206498  0  3.674672  0  0  -0.227743  0  3.693352  0  0  -0.354033  -0.191969  0  3.661702  0
N  N120  1  0.25349538  0.05564755  0.37604169  1  0  -0.287314  0  3.367286  0  0  -0.194301  0  3.643252  0  0  -0.214829  0  3.663419  0  0  -0.348987  -0.180452  0  3.629306  0
N  N121  1  0.74650653  0.94435130  0.62395730  1  0  -0.287358  0  3.367217  0  0  -0.194436  0  3.643297  0  0  -0.214964  0  3.663464  0  0  -0.349015  -0.180586  0  3.62935  0
O  O122  1  0.22068613  0.96228113  0.62404517  1  0  -0.59793  0  2.058818  0  0  -0.558859  0  2.316639  0  0  -0.582328  0  2.306227  0  0  -0.335581  -0.54209  0  2.323232  0
O  O123  1  0.77932632  0.03771203  0.37594046  1  0  -0.597796  0  2.058981  0  0  -0.558642  0  2.316794  0  0  -0.582105  0  2.306364  0  0  -0.335466  -0.541899  0  2.323426  0
O  O124  1  0.08031615  0.85408654  0.70379810  1  0  -0.588014  0  1.998187  0  0  -0.559353  0  2.240805  0  0  -0.58104  0  2.230351  0  0  -0.334536  -0.54367  0  2.247353  0
O  O125  1  0.91968301  0.14592803  0.29618809  1  0  -0.588111  0  1.997764  0  0  -0.559418  0  2.240458  0  0  -0.581102  0  2.229985  0  0  -0.334548  -0.54373  0  2.246997  0
O  O126  1  0.62375427  0.45654490  0.42304486  1  0  -0.280261  0  2.327302  0  0  -0.209956  0  2.56565  0  0  -0.228938  0  2.570287  0  0  -0.176709  -0.196294  0  2.561958  0
O  O127  1  0.37624471  0.54345392  0.57695774  1  0  -0.280311  0  2.32736  0  0  -0.209967  0  2.565717  0  0  -0.228933  0  2.570356  0  0  -0.176766  -0.196306  0  2.562025  0
O  O128  1  0.61374626  0.77558831  0.36853505  1  0  -0.292967  0  2.359448  0  0  -0.218177  0  2.595394  0  0  -0.237455  0  2.600934  0  0  -0.178039  -0.20452  0  2.591194  0
O  O129  1  0.38625371  0.22441052  0.63146404  1  0  -0.292947  0  2.359484  0  0  -0.218122  0  2.595407  0  0  -0.237399  0  2.600946  0  0  -0.178037  -0.204467  0  2.591207  0
F  F130  1  0.33178683  0.82367483  0.82794049  1  0  -0.25677  0  1.140556  0  0  -0.221608  0  1.303116  0  0  -0.231283  0  1.286295  0  0  -0.112437  -0.214589  0  1.314928  0
F  F131  1  0.66819839  0.17634705  0.17206082  1  0  -0.25669  0  1.140782  0  0  -0.221621  0  1.3032  0  0  -0.231232  0  1.286473  0  0  -0.112482  -0.214601  0  1.315013  0
F  F132  1  0.29786782  0.68850804  0.78262353  1  0  -0.242355  0  1.152613  0  0  -0.208029  0  1.314568  0  0  -0.217077  0  1.297745  0  0  -0.107869  -0.201523  0  1.326389  0
F  F133  1  0.70210259  0.31150790  0.21739959  1  0  -0.24219  0  1.152711  0  0  -0.20795  0  1.314524  0  0  -0.216936  0  1.297797  0  0  -0.107873  -0.201447  0  1.326342  0
F  F134  1  0.43008959  0.78997052  0.69708257  1  0  -0.270561  0  1.143772  0  0  -0.233126  0  1.305158  0  0  -0.242158  0  1.28894  0  0  -0.121414  -0.226623  0  1.316526  0
F  F135  1  0.56990336  0.21001581  0.30293852  1  0  -0.270197  0  1.144123  0  0  -0.232916  0  1.305391  0  0  -0.241888  0  1.289276  0  0  -0.121183  -0.226412  0  1.316757  0
