# generated using pymatgen
data_MnH11(C5O2)3
_symmetry_space_group_name_H-M   'P 1'
_cell_length_a   8.47480445
_cell_length_b   13.26021807
_cell_length_c   29.56367683
_cell_angle_alpha   89.99983808
_cell_angle_beta   90.00072333
_cell_angle_gamma   84.51390534
_symmetry_Int_Tables_number   1
_chemical_formula_structural   MnH11(C5O2)3
_chemical_formula_sum   'Mn8 H88 C120 O48'
_cell_volume   3307.08160884
_cell_formula_units_Z   8
loop_
 _symmetry_equiv_pos_site_id
 _symmetry_equiv_pos_as_xyz
  1  'x, y, z'
loop_
 _atom_site_type_symbol
 _atom_site_label
 _atom_site_symmetry_multiplicity
 _atom_site_fract_x
 _atom_site_fract_y
 _atom_site_fract_z
 _atom_site_occupancy
 _atom_site_pbe_bader_charge
 _atom_site_pbe_bader_spin_density
 _atom_site_pbe_cm5_charge
 _atom_site_pbe_ddec_charge
 _atom_site_pbe_ddec_spin_density
 _atom_site_pbe_ddec_sum_bond_order
 _atom_site_pbe_magmom
Mn  Mn0  1  0.00996648  0.95115946  0.12330678  1  1.512161  4.52191  0.620152  1.039437  4.655355  2.335072  4.429
Mn  Mn1  1  0.99004298  0.54882606  0.62330416  1  1.512078  4.52196  0.620145  1.039407  4.655374  2.334957  4.429
Mn  Mn2  1  0.99003850  0.04883521  0.87668908  1  1.512104  4.521913  0.620146  1.039438  4.655224  2.335093  4.429
Mn  Mn3  1  0.00996338  0.45116554  0.37669271  1  1.512007  4.521885  0.620135  1.039471  4.655253  2.335022  4.429
Mn  Mn4  1  0.41748241  0.93263972  0.15909639  1  1.536711  4.52191  0.637903  1.084216  4.651394  2.295008  4.434
Mn  Mn5  1  0.58253916  0.56736625  0.65908954  1  1.536698  4.521851  0.638019  1.08433  4.651331  2.295005  4.433
Mn  Mn6  1  0.58252475  0.06735790  0.84090150  1  1.536475  4.521985  0.637915  1.084187  4.651449  2.295001  4.434
Mn  Mn7  1  0.41747700  0.43263859  0.34090631  1  1.536893  4.521875  0.637967  1.084183  4.651395  2.295064  4.434
H  H8  1  0.94452274  0.70701372  0.12878091  1  0.112125  0.000203  0.106098  0.113192  -0.00029  1.061244  0.0
H  H9  1  0.05551283  0.79297385  0.62878198  1  0.112818  0.000203  0.106101  0.113165  -0.00029  1.061168  0.0
H  H10  1  0.05544216  0.29297935  0.87121766  1  0.112157  0.000203  0.106126  0.113226  -0.00029  1.061194  0.0
H  H11  1  0.94451078  0.20702544  0.37121489  1  0.112332  0.000203  0.106134  0.113267  -0.00029  1.061134  0.0
H  H12  1  0.87465343  0.49119619  0.23513339  1  0.09046  0.000408  0.111667  0.13119  -0.000188  0.99176  0.0
H  H13  1  0.12537132  0.00881081  0.73512766  1  0.090018  0.000408  0.111617  0.131153  -0.000188  0.991652  0.0
H  H14  1  0.12534984  0.50880685  0.76487464  1  0.090319  0.000408  0.111669  0.131197  -0.000188  0.991608  0.0
H  H15  1  0.87465612  0.99118382  0.26487124  1  0.090132  0.000408  0.111652  0.131212  -0.000188  0.991843  0.0
H  H16  1  0.28119469  0.66412711  0.23706395  1  0.111567  0.000672  0.105588  0.114952  -0.000199  1.012948  0.0
H  H17  1  0.71880660  0.83589940  0.73705488  1  0.111935  0.000672  0.105696  0.114986  -0.000199  1.012892  0.0
H  H18  1  0.71880318  0.33588669  0.76292953  1  0.111771  0.000671  0.105535  0.11484  -0.000199  1.012998  0.0
H  H19  1  0.28119359  0.16411506  0.26293624  1  0.111621  0.000672  0.105597  0.114959  -0.000199  1.012923  0.0
H  H20  1  0.81901176  0.59052629  0.09213917  1  0.055947  1.4e-05  0.099553  0.06621  1e-05  1.010632  0.0
H  H21  1  0.18103047  0.90944244  0.59214021  1  0.056038  1.4e-05  0.099591  0.066311  1e-05  1.010676  0.0
H  H22  1  0.18093936  0.40947935  0.90787292  1  0.055411  1.4e-05  0.099582  0.066264  1e-05  1.010471  0.0
H  H23  1  0.81899750  0.09054387  0.40785903  1  0.055784  1.4e-05  0.099608  0.066297  1e-05  1.01076  0.0
H  H24  1  0.68133410  0.68160076  0.12016142  1  0.079564  0.000419  0.104745  0.089663  -0.000246  0.999733  0.0
H  H25  1  0.31872411  0.81837777  0.62016681  1  0.079388  0.000419  0.104758  0.089659  -0.000246  1.000126  0.0
H  H26  1  0.31860342  0.31839555  0.87985642  1  0.0796  0.000419  0.10478  0.089596  -0.000245  0.999916  0.0
H  H27  1  0.68131437  0.18161043  0.37983345  1  0.079567  0.000419  0.10478  0.08967  -0.000246  0.999872  0.0
H  H28  1  0.72454854  0.45862557  0.04883392  1  0.074722  4e-06  0.097281  0.098638  4e-06  1.03568  0.0
H  H29  1  0.27546074  0.04136443  0.54883850  1  0.074125  4e-06  0.097287  0.098664  4e-06  1.035607  0.0
H  H30  1  0.27542629  0.54139734  0.95116904  1  0.075543  4e-06  0.09727  0.098617  4e-06  1.03568  0.0
H  H31  1  0.72454988  0.95863457  0.45116514  1  0.074138  4e-06  0.097258  0.098596  4e-06  1.035717  0.0
H  H32  1  0.50441230  0.36565759  0.02158392  1  0.042879  2.4e-05  0.095037  0.092463  2.2e-05  1.044892  0.0
H  H33  1  0.49558477  0.13433832  0.52158682  1  0.043006  2.4e-05  0.095053  0.092486  2.2e-05  1.044769  0.0
H  H34  1  0.49556733  0.63436440  0.97841566  1  0.042578  2.4e-05  0.095038  0.092473  2.2e-05  1.044796  0.0
H  H35  1  0.50441902  0.86567526  0.47842155  1  0.043116  2.4e-05  0.09503  0.092484  2.3e-05  1.044938  0.0
H  H36  1  0.18860949  0.53122267  0.11567843  1  0.06695  6.5e-05  0.093278  0.091245  2.2e-05  1.049833  0.0
H  H37  1  0.81141014  0.96878368  0.61567527  1  0.066828  6.5e-05  0.093329  0.091364  2.2e-05  1.049827  0.0
H  H38  1  0.81137055  0.46873666  0.88433772  1  0.067978  6.5e-05  0.093341  0.091439  2.2e-05  1.049811  0.0
H  H39  1  0.18860062  0.03123192  0.38433073  1  0.067265  6.5e-05  0.09333  0.091431  2.2e-05  1.049647  0.0
H  H40  1  0.41179053  0.62094292  0.14376189  1  0.082863  0.00036  0.101763  0.108701  -0.000176  1.028471  0.0
H  H41  1  0.58825580  0.87905322  0.64376378  1  0.082402  0.00036  0.101805  0.108777  -0.000176  1.028285  0.0
H  H42  1  0.58818192  0.37902422  0.85626238  1  0.08249  0.00036  0.101794  0.108741  -0.000176  1.028482  0.0
H  H43  1  0.41176135  0.12095461  0.35624222  1  0.08278  0.00036  0.101758  0.108779  -0.000176  1.028304  0.0
H  H44  1  0.07553808  0.27432379  0.95319702  1  0.07068  0.0001  0.102087  0.103989  -0.00029  1.022597  0.0
H  H45  1  0.92445458  0.22570844  0.45319754  1  0.070774  0.0001  0.102075  0.103886  -0.00029  1.022599  0.0
H  H46  1  0.92446130  0.72568466  0.04680695  1  0.070476  0.0001  0.102007  0.103785  -0.00029  1.022627  0.0
H  H47  1  0.07554988  0.77429455  0.54680306  1  0.070775  0.0001  0.10206  0.103877  -0.00029  1.022612  0.0
H  H48  1  0.29335150  0.36756434  0.98224753  1  0.065688  3e-05  0.096078  0.089216  2.4e-05  1.057591  0.0
H  H49  1  0.70664919  0.13245458  0.48224298  1  0.065241  3.1e-05  0.096049  0.089177  2.4e-05  1.057411  0.0
H  H50  1  0.70664959  0.63243576  0.01775915  1  0.065672  3e-05  0.096111  0.089237  2.4e-05  1.057515  0.0
H  H51  1  0.29334920  0.86755090  0.51775761  1  0.065703  3.1e-05  0.096048  0.089164  2.4e-05  1.057566  0.0
H  H52  1  0.06989982  0.38790869  0.11317118  1  0.035946  4.8e-05  0.100381  0.103321  2.9e-05  1.004801  0.0
H  H53  1  0.93010188  0.11209697  0.61316960  1  0.036052  4.8e-05  0.100458  0.103353  2.9e-05  1.004678  0.0
H  H54  1  0.93008744  0.61208585  0.88683009  1  0.035926  4.8e-05  0.100464  0.103379  2.9e-05  1.004702  0.0
H  H55  1  0.06989826  0.88791826  0.38683403  1  0.035925  4.8e-05  0.100427  0.103335  2.9e-05  1.004754  0.0
H  H56  1  0.84801130  0.30042280  0.08309419  1  0.043725  0.00033  0.097067  0.08861  0.000149  1.041533  0.0
H  H57  1  0.15198649  0.19958623  0.58309541  1  0.043653  0.00033  0.09707  0.088624  0.000149  1.041496  0.0
H  H58  1  0.15198112  0.69958364  0.91690369  1  0.043781  0.00033  0.097071  0.088647  0.000149  1.041316  0.0
H  H59  1  0.84801039  0.80042458  0.41690315  1  0.043652  0.00033  0.097094  0.088673  0.000149  1.041448  0.0
H  H60  1  0.59659884  0.18357487  0.94278796  1  0.120615  0.000253  0.112341  0.122295  -0.000248  1.039728  0.0
H  H61  1  0.40340686  0.31643057  0.44279423  1  0.120876  0.000253  0.112267  0.122301  -0.000248  1.039827  0.0
H  H62  1  0.40338604  0.81643863  0.05721297  1  0.120851  0.000253  0.11232  0.122324  -0.000248  1.039623  0.0
H  H63  1  0.59660665  0.68356003  0.55720196  1  0.121234  0.000253  0.112197  0.122239  -0.000248  1.039936  0.0
H  H64  1  0.16820121  0.06267142  0.98594698  1  0.123757  0.000362  0.111746  0.122177  -0.000451  1.00783  0.0
H  H65  1  0.83181202  0.43733872  0.48594586  1  0.123477  0.000363  0.111817  0.122316  -0.000451  1.007741  0.0
H  H66  1  0.83179235  0.93733573  0.01405091  1  0.123056  0.000363  0.111725  0.122158  -0.000451  1.007818  0.0
H  H67  1  0.16819775  0.56265503  0.51404932  1  0.122971  0.000363  0.111762  0.122264  -0.000451  1.007572  0.0
H  H68  1  0.51859049  0.12435461  0.08477449  1  0.101599  0.000512  0.111085  0.123105  -0.000288  1.010663  0.0
H  H69  1  0.48144386  0.37565689  0.58477870  1  0.101712  0.000512  0.111092  0.123208  -0.000288  1.010414  0.0
H  H70  1  0.48140047  0.87563754  0.91522407  1  0.101574  0.000512  0.111074  0.123084  -0.000288  1.010618  0.0
H  H71  1  0.51856761  0.62434736  0.41521546  1  0.101549  0.000512  0.111092  0.123142  -0.000287  1.010421  0.0
H  H72  1  0.86065228  0.16772447  0.97249010  1  0.110715  0.000214  0.113877  0.097642  -0.000202  0.977822  0.0
H  H73  1  0.13937489  0.33227999  0.47248930  1  0.11088  0.000213  0.113884  0.097556  -0.000203  0.978027  0.0
H  H74  1  0.13934313  0.83227205  0.02751387  1  0.110654  0.000214  0.113844  0.097552  -0.000203  0.977947  0.0
H  H75  1  0.86063858  0.66771136  0.52750554  1  0.110851  0.000213  0.113814  0.097526  -0.000203  0.97793  0.0
H  H76  1  0.74027093  0.28520034  0.97452135  1  0.080697  6e-05  0.10934  0.085941  -4.6e-05  0.972857  0.0
H  H77  1  0.25974601  0.21479918  0.47452825  1  0.081188  6e-05  0.109335  0.085896  -4.6e-05  0.972863  0.0
H  H78  1  0.25973505  0.71479731  0.02547755  1  0.080976  6e-05  0.109327  0.085925  -4.6e-05  0.972767  0.0
H  H79  1  0.74026751  0.78519141  0.52547370  1  0.080896  6e-05  0.109298  0.085871  -4.6e-05  0.972848  0.0
H  H80  1  0.80184537  0.12855628  0.09089400  1  0.645739  0.000512  0.315937  0.393321  7e-05  0.927275  0.001
H  H81  1  0.19817371  0.37143911  0.59089313  1  0.645828  0.000512  0.315888  0.393219  7e-05  0.927462  0.001
H  H82  1  0.19815118  0.87144095  0.90910490  1  0.645752  0.000512  0.315958  0.39337  7e-05  0.927217  0.001
H  H83  1  0.80182724  0.62856325  0.40910645  1  0.645837  0.000512  0.31586  0.393192  7e-05  0.927473  0.001
H  H84  1  0.88597750  0.15809240  0.13520797  1  0.623485  0.000746  0.338278  0.412497  0.00038  0.857203  0.0
H  H85  1  0.11404969  0.34189937  0.63520751  1  0.623256  0.000746  0.338288  0.412605  0.00038  0.857092  0.0
H  H86  1  0.11401640  0.84190945  0.86479093  1  0.623544  0.000747  0.338285  0.412508  0.00038  0.857144  0.0
H  H87  1  0.88596136  0.65809283  0.36479275  1  0.623351  0.000746  0.338303  0.412604  0.00038  0.857093  0.0
H  H88  1  0.56010112  0.07813388  0.20447588  1  0.624171  0.001857  0.339821  0.418335  0.000648  0.854372  0.001
H  H89  1  0.43993311  0.42186997  0.70447142  1  0.624196  0.001858  0.339852  0.418436  0.000648  0.854347  0.001
H  H90  1  0.43989605  0.92187239  0.79552066  1  0.624041  0.001858  0.339836  0.418292  0.000648  0.854455  0.001
H  H91  1  0.56009480  0.57813596  0.29552410  1  0.624092  0.001858  0.339829  0.418371  0.000648  0.854327  0.001
H  H92  1  0.68007388  0.05575574  0.16392804  1  0.639075  0.002052  0.307693  0.401625  0.000998  0.917107  0.002
H  H93  1  0.31994697  0.44424435  0.66392346  1  0.639352  0.00205  0.307663  0.401656  0.000998  0.917106  0.002
H  H94  1  0.31993186  0.94424570  0.83607052  1  0.638015  0.002055  0.307757  0.401714  0.000997  0.916982  0.002
H  H95  1  0.68006583  0.55575759  0.33607578  1  0.639238  0.00205  0.307614  0.401546  0.000998  0.917226  0.002
C  C96  1  0.11948683  0.69374283  0.18144031  1  -0.007945  3.3e-05  -0.018406  -0.018296  -0.001267  4.014718  -0.001
C  C97  1  0.88052954  0.80626769  0.68143559  1  -0.008547  3.2e-05  -0.01843  -0.018612  -0.001268  4.014923  -0.001
C  C98  1  0.88049517  0.30626020  0.81855960  1  -0.007807  3e-05  -0.018398  -0.018281  -0.001271  4.014901  -0.001
C  C99  1  0.11947928  0.19374119  0.31855722  1  -0.008425  3.1e-05  -0.018387  -0.018177  -0.00127  4.014729  -0.001
C  C100  1  0.98179535  0.66735594  0.15972302  1  -0.070074  0.009549  -0.099161  -0.231781  0.007467  3.952168  0.006
C  C101  1  0.01823852  0.83264280  0.65972087  1  -0.070496  0.009549  -0.099075  -0.231494  0.007467  3.951841  0.006
C  C102  1  0.01818438  0.33264567  0.84027892  1  -0.070031  0.009547  -0.099219  -0.231823  0.007465  3.952534  0.006
C  C103  1  0.98177778  0.16735978  0.34027363  1  -0.070264  0.009549  -0.099084  -0.231786  0.007468  3.95226  0.006
C  C104  1  0.89636170  0.59220956  0.17848412  1  0.475984  -0.001097  0.081139  0.254197  -0.001426  4.085831  -0.001
C  C105  1  0.10366601  0.90778775  0.67848217  1  0.476192  -0.001098  0.081204  0.254231  -0.001427  4.085997  -0.001
C  C106  1  0.10362419  0.40778805  0.82152324  1  0.475885  -0.001098  0.081076  0.253794  -0.001427  4.086137  -0.001
C  C107  1  0.89636006  0.09220994  0.32151774  1  0.47587  -0.001098  0.081167  0.254205  -0.001428  4.085973  -0.001
C  C108  1  0.94443377  0.54715724  0.21984614  1  -0.048438  0.011113  -0.08977  -0.200462  0.00849  3.927828  0.006
C  C109  1  0.05557775  0.95284488  0.71984396  1  -0.048208  0.011118  -0.089698  -0.200377  0.008493  3.927422  0.006
C  C110  1  0.05556808  0.45284962  0.78015783  1  -0.047954  0.011119  -0.089745  -0.200144  0.008494  3.9271  0.006
C  C111  1  0.94443094  0.04714739  0.28015392  1  -0.047734  0.011124  -0.089805  -0.200406  0.008498  3.927404  0.006
C  C112  1  0.08302652  0.57263289  0.24058859  1  0.033101  0.001082  -0.019437  -0.022103  -0.000239  4.023787  0.0
C  C113  1  0.91697365  0.92737627  0.74058215  1  0.032274  0.001082  -0.019301  -0.02198  -0.00024  4.02381  0.0
C  C114  1  0.91697562  0.42736943  0.75941370  1  0.032712  0.001082  -0.019467  -0.022264  -0.00024  4.023977  0.0
C  C115  1  0.08303090  0.07262521  0.25941202  1  0.0325  0.001081  -0.019421  -0.02208  -0.000241  4.023766  0.0
C  C116  1  0.17237594  0.64486823  0.22115269  1  -0.028419  0.011257  -0.088335  -0.13267  0.008205  3.957593  0.007
C  C117  1  0.82763264  0.85514380  0.72114467  1  -0.027494  0.011257  -0.088487  -0.132586  0.008206  3.957754  0.007
C  C118  1  0.82760530  0.35514691  0.77884756  1  -0.028603  0.011259  -0.088179  -0.132462  0.008207  3.957718  0.007
C  C119  1  0.17238030  0.14485587  0.27884882  1  -0.027947  0.01126  -0.08833  -0.132696  0.008208  3.957736  0.007
C  C120  1  0.21054431  0.77430586  0.16194860  1  1.522701  0.033377  0.222463  0.582827  0.034487  4.179574  0.028
C  C121  1  0.78947744  0.72569933  0.66194738  1  1.522588  0.033378  0.22218  0.582437  0.034492  4.179885  0.028
C  C122  1  0.78942950  0.22569595  0.83804083  1  1.523105  0.033363  0.222594  0.583021  0.034478  4.179705  0.028
C  C123  1  0.21053517  0.27430564  0.33804645  1  1.522997  0.033381  0.222151  0.582378  0.034494  4.18011  0.028
C  C124  1  0.13949003  0.52178238  0.28354955  1  1.559953  0.021597  0.234517  0.621241  0.020763  4.147676  0.019
C  C125  1  0.86051416  0.97823086  0.78354250  1  1.560004  0.021598  0.234431  0.621102  0.020764  4.147692  0.019
C  C126  1  0.86052125  0.47822490  0.71645104  1  1.55976  0.021592  0.234491  0.62113  0.020757  4.147684  0.019
C  C127  1  0.13948879  0.02175860  0.21645403  1  1.559704  0.021594  0.234427  0.621114  0.02076  4.147865  0.019
C  C128  1  0.71766645  0.60021777  0.11563369  1  0.377456  0.000239  -0.065484  -0.021862  0.000173  3.8973  0.0
C  C129  1  0.28238308  0.89976412  0.61563342  1  0.377279  0.000239  -0.06551  -0.021917  0.000173  3.897828  0.0
C  C130  1  0.28229348  0.39977925  0.88438010  1  0.377902  0.000239  -0.065469  -0.021809  0.000173  3.897699  0.0
C  C131  1  0.71764835  0.10022358  0.38436615  1  0.37776  0.000239  -0.065607  -0.022026  0.000173  3.897931  0.0
C  C132  1  0.58315650  0.54564435  0.09836972  1  -0.014581  9.7e-05  -0.021415  0.071104  5.8e-05  4.002564  0.0
C  C133  1  0.41687580  0.95435488  0.59837022  1  -0.013838  9.7e-05  -0.021298  0.071376  5.8e-05  4.002372  0.0
C  C134  1  0.41681527  0.45435226  0.90164169  1  -0.012144  9.7e-05  -0.020908  0.07156  5.8e-05  4.002334  0.0
C  C135  1  0.58315031  0.04564206  0.40162868  1  -0.014541  9.7e-05  -0.021398  0.071117  5.8e-05  4.002604  0.0
C  C136  1  0.60702261  0.47407600  0.06370261  1  -0.088929  6.7e-05  -0.094762  -0.133778  5e-05  4.00651  0.0
C  C137  1  0.39298758  0.02592895  0.56370765  1  -0.088173  6.7e-05  -0.094732  -0.133814  5e-05  4.006474  0.0
C  C138  1  0.39294954  0.52593342  0.93630305  1  -0.091682  6.7e-05  -0.094928  -0.133953  5e-05  4.006311  0.0
C  C139  1  0.60701991  0.97408223  0.43630106  1  -0.088327  6.7e-05  -0.09469  -0.133552  5e-05  4.006246  0.0
C  C140  1  0.48257109  0.42221468  0.04811945  1  -0.008665  9.5e-05  -0.0946  -0.122858  8.1e-05  3.983329  0.0
C  C141  1  0.51744153  0.07777823  0.54811979  1  -0.009238  9.5e-05  -0.094797  -0.123056  8.2e-05  3.983617  0.0
C  C142  1  0.51740362  0.57779163  0.95188385  1  -0.007396  9.5e-05  -0.094658  -0.122807  8.1e-05  3.983237  0.0
C  C143  1  0.48256899  0.92222229  0.45188249  1  -0.009279  9.5e-05  -0.094819  -0.123212  8.1e-05  3.983699  0.0
C  C144  1  0.32997891  0.44048002  0.06671596  1  -0.058106  5.7e-05  -0.010609  0.062244  4.8e-05  4.001119  0.0
C  C145  1  0.67003307  0.05951731  0.56671249  1  -0.057723  5.7e-05  -0.010373  0.06243  4.8e-05  4.001063  0.0
C  C146  1  0.67000770  0.55950625  0.93329376  1  -0.057673  5.7e-05  -0.010438  0.062149  4.8e-05  4.001362  0.0
C  C147  1  0.32997229  0.94049018  0.43329080  1  -0.057622  5.7e-05  -0.010321  0.062432  4.8e-05  4.0011  0.0
C  C148  1  0.30643993  0.51326926  0.10131779  1  -0.002784  0.000171  -0.093786  -0.127002  0.000102  3.97916  0.0
C  C149  1  0.69357948  0.98673040  0.60131722  1  -0.002893  0.000171  -0.093952  -0.127234  0.000102  3.979456  0.0
C  C150  1  0.69354166  0.48670284  0.89869768  1  -0.003631  0.000171  -0.09397  -0.127162  0.000102  3.979656  0.0
C  C151  1  0.30643208  0.01329121  0.39868912  1  -0.003519  0.000171  -0.093977  -0.127322  0.000102  3.979156  0.0
C  C152  1  0.43115729  0.56490681  0.11689555  1  -0.060938  0.000291  -0.089504  -0.117289  0.000122  3.968376  0.0
C  C153  1  0.56887736  0.93508692  0.61689527  1  -0.06068  0.00029  -0.089466  -0.117278  0.000122  3.96831  0.0
C  C154  1  0.56881582  0.43506861  0.88312433  1  -0.062485  0.000291  -0.089816  -0.11765  0.000122  3.968666  0.0
C  C155  1  0.43115197  0.06491519  0.38310532  1  -0.060573  0.000291  -0.089397  -0.117171  0.000122  3.968362  0.0
C  C156  1  0.07365613  0.30069411  0.98816965  1  -0.017163  0.000169  -0.09157  -0.128567  9.9e-05  3.991549  0.0
C  C157  1  0.92634682  0.19933071  0.48816953  1  -0.017396  0.000169  -0.09157  -0.128556  9.9e-05  3.991656  0.0
C  C158  1  0.92633805  0.69930320  0.01183534  1  -0.017026  0.000169  -0.091414  -0.128191  9.9e-05  3.991036  0.0
C  C159  1  0.07365134  0.80067854  0.51183174  1  -0.017643  0.000169  -0.091503  -0.128457  9.9e-05  3.991485  0.0
C  C160  1  0.19642433  0.35245491  0.00466734  1  -0.006718  0.000117  -0.091809  -0.124495  9.8e-05  3.988174  0.0
C  C161  1  0.80358041  0.14755745  0.50466593  1  -0.006324  0.000118  -0.091658  -0.124232  9.8e-05  3.987813  0.0
C  C162  1  0.80357365  0.64753849  0.99533697  1  -0.006877  0.000117  -0.091859  -0.124688  9.8e-05  3.98808  0.0
C  C163  1  0.19643021  0.85244155  0.49533635  1  -0.006732  0.000118  -0.091686  -0.124282  9.8e-05  3.987612  0.0
C  C164  1  0.19827341  0.38554977  0.04980819  1  -0.044594  5.8e-05  -0.009828  0.067566  4.1e-05  3.99938  0.0
C  C165  1  0.80173591  0.11445909  0.54980648  1  -0.044485  5.8e-05  -0.009883  0.067428  4e-05  3.99959  0.0
C  C166  1  0.80171978  0.61444456  0.95019511  1  -0.044747  5.8e-05  -0.009892  0.067668  4.1e-05  3.999309  0.0
C  C167  1  0.19826561  0.88555306  0.45019445  1  -0.044684  5.8e-05  -0.009888  0.067464  4.1e-05  3.999559  0.0
C  C168  1  0.07151539  0.36439246  0.07779231  1  0.056528  0.000179  -0.093052  -0.126746  0.000103  3.982639  0.0
C  C169  1  0.92847596  0.13562136  0.57778968  1  0.057165  0.000179  -0.093112  -0.126609  0.000103  3.982831  0.0
C  C170  1  0.92848036  0.63559876  0.92221234  1  0.057583  0.000179  -0.093103  -0.126757  0.000103  3.982741  0.0
C  C171  1  0.07151433  0.86440024  0.42221260  1  0.05711  0.000179  -0.093105  -0.126658  0.000103  3.982798  0.0
C  C172  1  0.94746311  0.31309673  0.06110691  1  -0.126017  0.00017  -0.101449  -0.14774  -2.8e-05  4.035467  0.0
C  C173  1  0.05253739  0.18691010  0.56110711  1  -0.126211  0.00017  -0.101655  -0.148085  -2.8e-05  4.035486  0.0
C  C174  1  0.05252856  0.68690294  0.93889469  1  -0.126251  0.00017  -0.101568  -0.148015  -2.8e-05  4.035342  0.0
C  C175  1  0.94746233  0.81309306  0.43889213  1  -0.125868  0.00017  -0.101554  -0.147927  -2.8e-05  4.035116  0.0
C  C176  1  0.94711789  0.28062857  0.01609054  1  -0.071648  0.000163  -0.015222  0.083323  5.6e-05  3.977921  0.0
C  C177  1  0.05288016  0.21938546  0.51609137  1  -0.072254  0.000163  -0.015119  0.083424  5.6e-05  3.977859  0.0
C  C178  1  0.05287236  0.71937493  0.98391140  1  -0.072212  0.000163  -0.015084  0.083561  5.6e-05  3.977622  0.0
C  C179  1  0.94712544  0.78061824  0.48390956  1  -0.072169  0.000163  -0.015223  0.083217  5.7e-05  3.978001  0.0
C  C180  1  0.57449203  0.15973246  0.01556870  1  0.443031  -0.002088  0.08229  0.248542  -0.002593  4.069963  -0.002
C  C181  1  0.42551954  0.34027279  0.51557309  1  0.443922  -0.002089  0.082367  0.248519  -0.002595  4.069791  -0.002
C  C182  1  0.42548964  0.84027587  0.98443156  1  0.443055  -0.002088  0.082351  0.24871  -0.002593  4.069467  -0.002
C  C183  1  0.57449629  0.65971847  0.48442479  1  0.443396  -0.002089  0.082364  0.248633  -0.002596  4.069603  -0.002
C  C184  1  0.52404210  0.15989165  0.97050936  1  -0.047574  0.013022  -0.093309  -0.223559  0.009995  3.943385  0.008
C  C185  1  0.47596689  0.34011875  0.47051181  1  -0.047473  0.013026  -0.093379  -0.223832  0.009998  3.943494  0.008
C  C186  1  0.47594412  0.84011954  0.02949191  1  -0.047638  0.013022  -0.093316  -0.22364  0.009995  3.94308  0.008
C  C187  1  0.52403909  0.65987890  0.52948303  1  -0.047579  0.013031  -0.093298  -0.223902  0.010002  3.943716  0.008
C  C188  1  0.37623570  0.12575506  0.96021980  1  0.017103  -0.000583  -0.019251  -0.030838  -0.00183  4.011948  -0.002
C  C189  1  0.62376719  0.37425110  0.46022240  1  0.017032  -0.000582  -0.019162  -0.030436  -0.001829  4.011828  -0.002
C  C190  1  0.62375678  0.87425062  0.03977741  1  0.017063  -0.00058  -0.01927  -0.030891  -0.001827  4.011864  -0.002
C  C191  1  0.37623542  0.62574366  0.53977176  1  0.017273  -0.000584  -0.019159  -0.030281  -0.001832  4.011617  -0.002
C  C192  1  0.28137592  0.09054376  0.99417957  1  -0.068668  0.013543  -0.079469  -0.118334  0.010089  3.947462  0.008
C  C193  1  0.71863640  0.40946787  0.49417773  1  -0.067683  0.013547  -0.079589  -0.118627  0.010093  3.947114  0.008
C  C194  1  0.71861029  0.90946743  0.00581832  1  -0.067969  0.013543  -0.079537  -0.118423  0.010089  3.947325  0.008
C  C195  1  0.28137071  0.59053050  0.50581204  1  -0.067952  0.013548  -0.079645  -0.118687  0.010093  3.94741  0.008
C  C196  1  0.33462643  0.08917124  0.03888509  1  -0.000986  -0.001567  -0.015356  -0.014524  -0.002974  3.997605  -0.002
C  C197  1  0.66539045  0.41084120  0.53888486  1  -0.00222  -0.001571  -0.015304  -0.014324  -0.002979  3.997273  -0.003
C  C198  1  0.66536870  0.91082982  0.96111144  1  -0.000963  -0.001567  -0.015221  -0.014096  -0.002975  3.997197  -0.002
C  C199  1  0.33461666  0.58915717  0.46110863  1  -0.001107  -0.001573  -0.015206  -0.014171  -0.002981  3.997697  -0.003
C  C200  1  0.47930571  0.12520143  0.04969251  1  0.003516  0.015683  -0.085339  -0.187124  0.012069  3.920755  0.009
C  C201  1  0.52071631  0.37481226  0.54969518  1  0.003046  0.015688  -0.085389  -0.187261  0.012073  3.92035  0.009
C  C202  1  0.52068241  0.87479836  0.95030672  1  0.003418  0.015683  -0.08542  -0.187322  0.012068  3.920456  0.009
C  C203  1  0.47929611  0.62519573  0.45030000  1  0.00301  0.015696  -0.085354  -0.187273  0.012079  3.920021  0.009
C  C204  1  0.32060159  0.12503220  0.91229230  1  1.556354  0.039268  0.231565  0.60826  0.037941  4.165044  0.034
C  C205  1  0.67940081  0.37496677  0.41229443  1  1.556325  0.039285  0.231557  0.608045  0.037957  4.165176  0.034
C  C206  1  0.67940050  0.87497088  0.08770558  1  1.556409  0.039272  0.231438  0.608049  0.037946  4.165283  0.034
C  C207  1  0.32061545  0.62501769  0.58770041  1  1.556153  0.03928  0.231317  0.607593  0.037958  4.165433  0.034
C  C208  1  0.24230333  0.04462582  0.07531851  1  1.543259  0.027495  0.224275  0.593067  0.028414  4.1755  0.024
C  C209  1  0.75774031  0.45538164  0.57531213  1  1.542657  0.027506  0.224061  0.592486  0.028421  4.175977  0.024
C  C210  1  0.75768219  0.95535898  0.92467193  1  1.543523  0.027493  0.224023  0.592213  0.028417  4.176754  0.024
C  C211  1  0.24227619  0.54461790  0.42467797  1  1.544087  0.027494  0.224182  0.592491  0.028418  4.176102  0.024
C  C212  1  0.81451591  0.22965502  0.99516341  1  0.379618  0.000238  -0.054225  -0.011703  2.7e-05  3.875724  0.0
C  C213  1  0.18550153  0.27035113  0.49516624  1  0.3793  0.000238  -0.054195  -0.011462  2.7e-05  3.875629  0.0
C  C214  1  0.18547462  0.77034394  0.00483820  1  0.37944  0.000239  -0.054293  -0.01173  2.7e-05  3.875742  0.0
C  C215  1  0.81451265  0.72964774  0.50483165  1  0.379722  0.000238  -0.053974  -0.011194  2.7e-05  3.875617  0.0
O  O216  1  0.15927111  0.81926111  0.12544558  1  -1.215609  0.087511  -0.325204  -0.605706  0.061052  2.347204  0.039
O  O217  1  0.84075555  0.68073435  0.62544764  1  -1.215878  0.087503  -0.32509  -0.605543  0.061044  2.347221  0.039
O  O218  1  0.84070726  0.18072469  0.87454250  1  -1.215484  0.087529  -0.325306  -0.605927  0.061072  2.3471  0.039
O  O219  1  0.15926692  0.31926423  0.37454957  1  -1.215717  0.087491  -0.325035  -0.605556  0.061046  2.347354  0.039
O  O220  1  0.33555826  0.79613166  0.18213338  1  -1.178913  0.084887  -0.303889  -0.546236  0.059118  2.253731  0.043
O  O221  1  0.66445900  0.70386524  0.68213038  1  -1.178366  0.084877  -0.303791  -0.546105  0.059123  2.253782  0.043
O  O222  1  0.66441270  0.20387780  0.81785774  1  -1.17939  0.084861  -0.303874  -0.546223  0.059101  2.253665  0.043
O  O223  1  0.33555371  0.29613822  0.31786616  1  -1.178944  0.084912  -0.303809  -0.546088  0.059121  2.253867  0.043
O  O224  1  0.28847118  0.51022189  0.28956633  1  -1.170967  0.069925  -0.308068  -0.56275  0.047404  2.309105  0.033
O  O225  1  0.71152602  0.98979383  0.78956143  1  -1.170867  0.069903  -0.308169  -0.562906  0.047413  2.309091  0.033
O  O226  1  0.71153408  0.48978712  0.71042817  1  -1.170772  0.069931  -0.308211  -0.562897  0.047409  2.308981  0.033
O  O227  1  0.28847541  0.01020097  0.21043950  1  -1.171145  0.069928  -0.308127  -0.562879  0.047411  2.309165  0.033
O  O228  1  0.03409356  0.49400165  0.31074322  1  -1.213349  0.079313  -0.322228  -0.593855  0.054697  2.335199  0.032
O  O229  1  0.96591085  0.00600628  0.81073481  1  -1.213395  0.079334  -0.322206  -0.593755  0.054698  2.335365  0.032
O  O230  1  0.96591582  0.50599815  0.68926042  1  -1.213499  0.079296  -0.322211  -0.593747  0.054685  2.335269  0.032
O  O231  1  0.03410745  0.99398339  0.18925834  1  -1.212869  0.079313  -0.32215  -0.593716  0.054699  2.335436  0.032
O  O232  1  0.76606864  0.55716363  0.15907630  1  -1.05837  -0.000287  -0.186514  -0.20588  -0.000407  2.502454  0.0
O  O233  1  0.23396223  0.94282616  0.65907614  1  -1.058613  -0.000287  -0.186695  -0.206142  -0.000407  2.502581  0.0
O  O234  1  0.23391181  0.44282663  0.84093444  1  -1.05832  -0.000287  -0.186555  -0.205707  -0.000407  2.502507  0.0
O  O235  1  0.76605915  0.05717095  0.34092242  1  -1.058361  -0.000287  -0.186533  -0.205952  -0.000407  2.502619  0.0
O  O236  1  0.71735231  0.19026163  0.02965446  1  -1.095185  -0.000278  -0.179255  -0.217394  -0.000587  2.565688  0.0
O  O237  1  0.28266203  0.30974719  0.52965872  1  -1.095876  -0.000279  -0.179193  -0.217385  -0.000588  2.565919  0.0
O  O238  1  0.28263187  0.80974434  0.97034511  1  -1.095313  -0.000278  -0.179187  -0.217404  -0.000587  2.565394  0.0
O  O239  1  0.71734437  0.69026252  0.47033951  1  -1.095776  -0.000279  -0.179345  -0.217546  -0.000588  2.565745  0.0
O  O240  1  0.41663298  0.14418772  0.88096788  1  -1.209235  0.076347  -0.319118  -0.58012  0.051231  2.371671  0.03
O  O241  1  0.58335863  0.35581035  0.38096867  1  -1.209269  0.076386  -0.319168  -0.580171  0.051249  2.371665  0.03
O  O242  1  0.58336206  0.85581485  0.11903068  1  -1.209157  0.076368  -0.319124  -0.580176  0.051241  2.371667  0.03
O  O243  1  0.41664886  0.64418197  0.61902753  1  -1.209327  0.076384  -0.319085  -0.579946  0.05124  2.371727  0.03
O  O244  1  0.17713403  0.10785564  0.90548539  1  -1.215457  0.094229  -0.320472  -0.574919  0.06611  2.393743  0.046
O  O245  1  0.82286417  0.39214881  0.40548768  1  -1.215431  0.094228  -0.320455  -0.57479  0.066111  2.394015  0.046
O  O246  1  0.82285199  0.89215857  0.09451182  1  -1.215564  0.094254  -0.320369  -0.574651  0.066108  2.394106  0.046
O  O247  1  0.17715944  0.60783161  0.59450885  1  -1.215126  0.094237  -0.320357  -0.574618  0.066113  2.394041  0.046
O  O248  1  0.10614589  0.01586278  0.06608466  1  -1.185324  0.079857  -0.309718  -0.552401  0.054086  2.261768  0.039
O  O249  1  0.89389658  0.48413800  0.56607366  1  -1.184934  0.079858  -0.309582  -0.552045  0.054078  2.261767  0.039
O  O250  1  0.89385328  0.98411172  0.93390274  1  -1.18566  0.079865  -0.309681  -0.552031  0.054085  2.261892  0.039
O  O251  1  0.10610414  0.51586815  0.43391848  1  -1.186047  0.07989  -0.309708  -0.552178  0.054092  2.261529  0.039
O  O252  1  0.30374862  0.03612642  0.11474472  1  -1.224106  0.086981  -0.317499  -0.615314  0.063144  2.401441  0.039
O  O253  1  0.69633658  0.46388683  0.61474317  1  -1.223973  0.087019  -0.317495  -0.615174  0.063162  2.401715  0.039
O  O254  1  0.69623562  0.96385993  0.88524979  1  -1.2241  0.086976  -0.31736  -0.614904  0.063134  2.402236  0.039
O  O255  1  0.30367584  0.53612116  0.38525032  1  -1.224532  0.08701  -0.317545  -0.615087  0.063152  2.4019  0.039
O  O256  1  0.82474533  0.10661115  0.12227817  1  -1.2449  0.038358  -0.531147  -0.741502  0.028387  2.081532  0.017
O  O257  1  0.17527635  0.39338392  0.62227753  1  -1.244713  0.038353  -0.531123  -0.741523  0.028391  2.081537  0.017
O  O258  1  0.17525819  0.89338810  0.87772039  1  -1.244926  0.03835  -0.531162  -0.741556  0.028389  2.081415  0.017
O  O259  1  0.82472128  0.60661478  0.37772239  1  -1.244799  0.038342  -0.531111  -0.741492  0.028385  2.081472  0.017
O  O260  1  0.60550097  0.02521622  0.18423291  1  -1.236654  0.056242  -0.546734  -0.74651  0.04068  2.052859  0.024
O  O261  1  0.39453391  0.47478172  0.68422484  1  -1.236891  0.05622  -0.546754  -0.746714  0.040686  2.052869  0.024
O  O262  1  0.39449880  0.97478618  0.81576464  1  -1.235478  0.056236  -0.546818  -0.746548  0.04068  2.052868  0.024
O  O263  1  0.60548826  0.52522140  0.31577034  1  -1.236722  0.056233  -0.546672  -0.74647  0.04068  2.052919  0.024
