# generated using pymatgen
data_Co2H18C24N4O9
_symmetry_space_group_name_H-M   'P 1'
_cell_length_a   11.18675718
_cell_length_b   13.30164191
_cell_length_c   25.85942819
_cell_angle_alpha   89.99885917
_cell_angle_beta   90.00012776
_cell_angle_gamma   89.99965672
_symmetry_Int_Tables_number   1
_chemical_formula_structural   Co2H18C24N4O9
_chemical_formula_sum   'Co8 H72 C96 N16 O36'
_cell_volume   3847.94079330
_cell_formula_units_Z   4
loop_
 _symmetry_equiv_pos_site_id
 _symmetry_equiv_pos_as_xyz
  1  'x, y, z'
loop_
 _atom_site_type_symbol
 _atom_site_label
 _atom_site_symmetry_multiplicity
 _atom_site_fract_x
 _atom_site_fract_y
 _atom_site_fract_z
 _atom_site_occupancy
 _atom_site_pbe_bader_charge
 _atom_site_pbe_bader_spin_density
 _atom_site_pbe_cm5_charge
 _atom_site_pbe_ddec_charge
 _atom_site_pbe_ddec_spin_density
 _atom_site_pbe_ddec_sum_bond_order
 _atom_site_pbe_magmom
Co  Co0  1  0.34946677  0.44381512  0.92390425  1  1.305528  2.61062  0.674884  0.920679  2.823855  2.47093  2.594
Co  Co1  1  0.60132740  0.55725135  0.85871982  1  1.316972  2.632184  0.681922  0.929029  2.85142  2.485582  2.615
Co  Co2  1  0.15053074  0.55618138  0.42391263  1  1.30581  2.610627  0.674917  0.920786  2.823854  2.470614  2.594
Co  Co3  1  0.89867628  0.44274283  0.35871684  1  1.316862  2.632139  0.681971  0.929144  2.851365  2.485533  2.615
Co  Co4  1  0.65052188  0.94380898  0.57609020  1  1.305617  2.610645  0.674975  0.920882  2.823883  2.470772  2.594
Co  Co5  1  0.39868271  0.05725541  0.64128670  1  1.316607  2.632135  0.681879  0.928962  2.851364  2.485769  2.615
Co  Co6  1  0.84946602  0.05617812  0.07608610  1  1.305802  2.610659  0.674896  0.920758  2.823899  2.470801  2.594
Co  Co7  1  0.10130707  0.94275204  0.14128528  1  1.316678  2.632193  0.681822  0.928879  2.851412  2.485645  2.615
H  H8  1  0.35109571  0.58643712  0.85856565  1  0.651413  0.000276  0.288626  0.38128  0.000293  0.965423  0.001
H  H9  1  0.42775953  0.63583741  0.90703518  1  0.648182  0.00034  0.288323  0.371629  0.000434  0.983836  0.001
H  H10  1  0.09224111  0.49266859  0.95286701  1  0.099499  0.001555  0.116183  0.086684  0.000192  1.01225  0.001
H  H11  1  0.34098351  0.06257075  0.75469712  1  0.090474  0.002241  0.117983  0.084759  0.000795  0.995492  0.001
H  H12  1  0.53285590  0.25183447  0.65839519  1  0.130357  0.002004  0.120596  0.092625  0.000558  1.011474  0.001
H  H13  1  0.80212587  0.69902559  0.83136051  1  0.104485  0.002123  0.118599  0.086714  0.00071  0.992246  0.001
H  H14  1  0.98102210  0.62177097  0.00562695  1  0.09259  0.00093  0.113418  0.126853  0.000457  0.992682  0.0
H  H15  1  0.75869672  0.28502771  0.92070874  1  0.114279  0.000996  0.110578  0.118307  0.000466  1.002646  0.0
H  H16  1  0.85328150  0.14241554  0.97031811  1  0.095946  0.001683  0.11647  0.086222  0.000272  1.016478  0.001
H  H17  1  0.41894510  0.59378489  0.00639985  1  0.087615  0.001724  0.118427  0.09553  0.000474  1.001934  0.001
H  H18  1  0.02759312  0.69323360  0.82994637  1  0.110899  0.001016  0.112543  0.12357  0.000446  0.990733  0.001
H  H19  1  0.68556635  0.22705086  0.10558425  1  0.125319  0.001946  0.118612  0.092109  0.000634  1.002648  0.001
H  H20  1  0.56638191  0.37560719  0.73008526  1  0.106592  0.001306  0.111828  0.120975  0.000624  1.000858  0.001
H  H21  1  0.32140803  0.72754501  0.06093629  1  0.072077  0.001268  0.110914  0.120378  0.000571  0.999906  0.0
H  H22  1  0.57639022  0.36858266  0.06085279  1  0.087777  0.001299  0.110304  0.118382  0.000605  0.993749  0.0
H  H23  1  0.36613983  0.18040956  0.83050601  1  0.129448  0.001065  0.111715  0.122232  0.000439  0.997273  0.001
H  H24  1  0.77860095  0.39034544  0.84583494  1  0.113361  0.00184  0.118732  0.08858  0.000466  1.002992  0.001
H  H25  1  0.00289454  0.37272548  0.84993336  1  0.102279  0.001282  0.109463  0.118121  0.000584  0.998741  0.001
H  H26  1  0.14891934  0.41354763  0.35857278  1  0.651452  0.000276  0.288542  0.381236  0.000294  0.965471  0.001
H  H27  1  0.07223969  0.36415900  0.40704236  1  0.64821  0.000341  0.288414  0.371842  0.000435  0.983497  0.001
H  H28  1  0.40777533  0.50733806  0.45286840  1  0.099431  0.001555  0.116175  0.086556  0.000192  1.012356  0.001
H  H29  1  0.15903546  0.93743532  0.25470625  1  0.090134  0.002241  0.11805  0.084835  0.000794  0.995476  0.001
H  H30  1  0.96713511  0.74819830  0.15840578  1  0.130803  0.002005  0.120571  0.092556  0.000558  1.011738  0.001
H  H31  1  0.69788304  0.30098695  0.33137116  1  0.104707  0.002124  0.118618  0.086735  0.00071  0.992154  0.001
H  H32  1  0.51900118  0.37823314  0.50562279  1  0.09212  0.000931  0.113417  0.126768  0.000457  0.992744  0.0
H  H33  1  0.74133589  0.71498061  0.42070167  1  0.113999  0.000997  0.110583  0.118332  0.000466  1.002568  0.0
H  H34  1  0.64672008  0.85758259  0.47030794  1  0.095824  0.001683  0.11655  0.086219  0.000272  1.016424  0.001
H  H35  1  0.08107793  0.40620374  0.50640166  1  0.087707  0.001725  0.118482  0.095648  0.000475  1.00199  0.001
H  H36  1  0.47241106  0.30677857  0.32995877  1  0.110833  0.001015  0.112491  0.123492  0.000445  0.990843  0.001
H  H37  1  0.81442528  0.77295615  0.60558020  1  0.125123  0.001947  0.118577  0.092062  0.000634  1.002711  0.001
H  H38  1  0.93362467  0.62441228  0.23009321  1  0.106852  0.001306  0.111882  0.121041  0.000624  1.001  0.001
H  H39  1  0.17862155  0.27244526  0.56093491  1  0.071733  0.001268  0.110934  0.120313  0.000571  1.000201  0.0
H  H40  1  0.92361994  0.63142533  0.56085261  1  0.087735  0.0013  0.110253  0.118353  0.000605  0.993724  0.0
H  H41  1  0.13386166  0.81959056  0.33051555  1  0.129342  0.001065  0.11176  0.122272  0.000439  0.997336  0.001
H  H42  1  0.72139641  0.60967256  0.34584671  1  0.11315  0.001842  0.118667  0.088428  0.000467  1.003001  0.001
H  H43  1  0.49709275  0.62727916  0.34993593  1  0.102057  0.001281  0.109465  0.118144  0.000584  0.998648  0.001
H  H44  1  0.64891687  0.08643236  0.64143748  1  0.650814  0.000278  0.288558  0.38123  0.000293  0.965433  0.001
H  H45  1  0.57225629  0.13584094  0.59295816  1  0.648181  0.000342  0.288286  0.371454  0.000436  0.983992  0.001
H  H46  1  0.90774631  0.99265022  0.54712578  1  0.099459  0.001556  0.116155  0.086462  0.000192  1.012574  0.001
H  H47  1  0.65907215  0.56258057  0.74529891  1  0.090065  0.002241  0.11796  0.084681  0.000794  0.995626  0.001
H  H48  1  0.46712693  0.75179418  0.84158459  1  0.130847  0.002005  0.120597  0.092631  0.000558  1.011758  0.001
H  H49  1  0.19787610  0.19902211  0.66862639  1  0.104675  0.002123  0.118647  0.08675  0.00071  0.992171  0.001
H  H50  1  0.01896080  0.12175729  0.49436647  1  0.092895  0.00093  0.113414  0.126784  0.000457  0.992696  0.0
H  H51  1  0.24129929  0.78502582  0.57929352  1  0.114181  0.000996  0.110604  0.118304  0.000466  1.002644  0.0
H  H52  1  0.14672175  0.64241305  0.52968599  1  0.095816  0.001683  0.116496  0.086204  0.000272  1.016523  0.001
H  H53  1  0.58103709  0.09377435  0.49360120  1  0.087437  0.001725  0.118464  0.095537  0.000475  1.001956  0.001
H  H54  1  0.97240085  0.19322155  0.67004870  1  0.110652  0.001015  0.112523  0.123434  0.000445  0.990722  0.001
H  H55  1  0.31443637  0.72704991  0.39441853  1  0.125077  0.001946  0.118617  0.09208  0.000634  1.002702  0.001
H  H56  1  0.43361169  0.87558263  0.76990061  1  0.106432  0.001307  0.111851  0.121068  0.000624  1.00091  0.001
H  H57  1  0.67857235  0.22754736  0.43906803  1  0.071559  0.001269  0.110863  0.120296  0.000571  0.999918  0.0
H  H58  1  0.42360258  0.86858993  0.43914816  1  0.087841  0.0013  0.110284  0.118363  0.000605  0.993724  0.0
H  H59  1  0.63389892  0.68041041  0.66948417  1  0.129103  0.001065  0.111773  0.12228  0.000439  0.997182  0.001
H  H60  1  0.22140149  0.89033097  0.65415889  1  0.113187  0.001841  0.118684  0.088463  0.000467  1.003019  0.001
H  H61  1  0.99710533  0.87272069  0.65007303  1  0.102277  0.001281  0.109443  0.118243  0.000584  0.998717  0.001
H  H62  1  0.85106511  0.91355671  0.14144433  1  0.651007  0.000278  0.288476  0.381088  0.000294  0.965659  0.001
H  H63  1  0.92773348  0.86414401  0.09297062  1  0.648225  0.000342  0.288202  0.371335  0.000436  0.984181  0.001
H  H64  1  0.59222534  0.00732522  0.04712580  1  0.099782  0.001556  0.116161  0.08652  0.000192  1.012286  0.001
H  H65  1  0.84093898  0.43743907  0.24530444  1  0.089938  0.002242  0.117974  0.084758  0.000795  0.995486  0.001
H  H66  1  0.03285049  0.24819874  0.34160259  1  0.130511  0.002005  0.120562  0.092524  0.000558  1.01163  0.001
H  H67  1  0.30212722  0.80097526  0.16864324  1  0.104719  0.002122  0.118561  0.086683  0.00071  0.992178  0.001
H  H68  1  0.48101653  0.87822595  0.99436343  1  0.092414  0.00093  0.113374  0.126732  0.000457  0.992847  0.0
H  H69  1  0.25872234  0.21497501  0.07928693  1  0.114191  0.000996  0.110619  0.118406  0.000467  1.002635  0.0
H  H70  1  0.35329693  0.35758369  0.02967533  1  0.095648  0.001682  0.11647  0.086156  0.000271  1.016598  0.001
H  H71  1  0.91893780  0.90619056  0.99360400  1  0.087456  0.001725  0.118495  0.095582  0.000474  1.001873  0.001
H  H72  1  0.52760095  0.80677168  0.17006330  1  0.111176  0.001014  0.112497  0.123472  0.000445  0.990859  0.001
H  H73  1  0.18556367  0.27296728  0.89441406  1  0.125187  0.001947  0.118563  0.092135  0.000635  1.002631  0.001
H  H74  1  0.06637519  0.12442059  0.26991449  1  0.106911  0.001306  0.111833  0.121027  0.000624  1.000909  0.001
H  H75  1  0.82139868  0.77243394  0.93906631  1  0.071738  0.001268  0.110952  0.120349  0.000571  1.000004  0.0
H  H76  1  0.07637982  0.13143680  0.93914581  1  0.087761  0.0013  0.110239  0.118333  0.000605  0.993763  0.0
H  H77  1  0.86611539  0.31960013  0.16949286  1  0.129332  0.001065  0.111758  0.122192  0.00044  0.997296  0.001
H  H78  1  0.27860623  0.10966396  0.15416849  1  0.113408  0.001841  0.118705  0.088498  0.000467  1.00286  0.001
H  H79  1  0.50290619  0.12726730  0.15007251  1  0.102352  0.001281  0.109443  0.118258  0.000583  0.998836  0.001
C  C80  1  0.13929305  0.54605388  0.97751077  1  0.484081  -0.008726  0.040555  0.084407  -0.00997  3.960128  -0.005
C  C81  1  0.39045515  0.13291539  0.75112864  1  0.442937  -0.004642  0.044329  0.082694  -0.005417  3.970372  -0.002
C  C82  1  0.49750532  0.23842945  0.69706315  1  0.436416  -0.00604  0.048506  0.100622  -0.007142  3.932178  -0.003
C  C83  1  0.85052352  0.62807703  0.83407828  1  0.460914  -0.004722  0.045565  0.089401  -0.005555  3.964632  -0.002
C  C84  1  0.07823949  0.61727309  0.00656470  1  -0.014514  0.005723  -0.080613  -0.147266  0.002711  3.953928  0.005
C  C85  1  0.73982992  0.27388699  0.96160606  1  -0.047329  0.006764  -0.079604  -0.141765  0.003085  3.952692  0.005
C  C86  1  0.08038096  0.76513485  0.06746281  1  1.544202  -0.001843  0.212475  0.566314  -0.002635  4.195415  0.0
C  C87  1  0.79242459  0.19544338  0.98869486  1  0.480408  -0.009551  0.044332  0.083974  -0.011021  3.962962  -0.006
C  C88  1  0.48322049  0.36224774  0.82872629  1  1.570929  -0.00813  0.217717  0.588297  -0.009882  4.162415  -0.004
C  C89  1  0.32228257  0.60269905  0.00752198  1  0.5299  -0.008904  0.046051  0.101318  -0.009767  3.936365  -0.005
C  C90  1  0.97473379  0.62486358  0.83382313  1  -0.030856  0.003783  -0.080392  -0.151706  0.00153  3.958376  0.004
C  C91  1  0.69787270  0.24264519  0.06455233  1  0.383464  -0.009512  0.045353  0.086921  -0.01054  3.953464  -0.006
C  C92  1  0.46815372  0.28737515  0.78572958  1  0.012161  -0.000587  0.003595  0.016646  -0.003373  3.943341  0.002
C  C93  1  0.03202930  0.53233445  0.84077226  1  -0.007358  -0.005276  0.001528  0.01617  -0.006653  3.955141  -0.003
C  C94  1  0.65970645  0.33769161  0.98708267  1  -0.01896  -0.006658  0.004449  0.024342  -0.009404  3.93501  -0.003
C  C95  1  0.51605033  0.30681869  0.73678488  1  -0.021866  0.002358  -0.077063  -0.136352  0.000578  3.942066  0.003
C  C96  1  0.14350937  0.68479407  0.03702097  1  -0.01775  -0.008952  -0.00172  0.009527  -0.010583  3.955326  -0.005
C  C97  1  0.26799141  0.67607602  0.03771869  1  -0.018046  0.005276  -0.07758  -0.135444  0.002332  3.939439  0.004
C  C98  1  0.63848518  0.32075873  0.03969753  1  0.056248  0.007993  -0.082005  -0.152182  0.003657  3.967061  0.006
C  C99  1  0.59663867  0.41948676  0.95758853  1  1.600478  0.005948  0.2196  0.590679  0.004199  4.172825  0.005
C  C100  1  0.40443585  0.19783886  0.79281563  1  -0.029875  0.00195  -0.079293  -0.143311  0.000366  3.950302  0.002
C  C101  1  0.83757669  0.45522305  0.84281485  1  0.455629  -0.0055  0.047591  0.097964  -0.006839  3.957733  -0.003
C  C102  1  0.96113354  0.44593963  0.84452110  1  -0.032409  0.003529  -0.082218  -0.150133  0.00137  3.961899  0.003
C  C103  1  0.16535842  0.52750973  0.84857105  1  1.584639  -0.000412  0.209752  0.568286  -0.001099  4.205003  0.001
C  C104  1  0.36072531  0.45395106  0.47751150  1  0.516359  -0.008738  0.040455  0.084331  -0.009968  3.960263  -0.005
C  C105  1  0.10955398  0.86709532  0.25113999  1  0.443374  -0.004631  0.044101  0.08241  -0.005404  3.970508  -0.002
C  C106  1  0.00249011  0.76159614  0.19707162  1  0.435694  -0.006033  0.048579  0.10057  -0.007133  3.93266  -0.003
C  C107  1  0.64947645  0.37193240  0.33408661  1  0.461004  -0.004699  0.045642  0.089459  -0.005531  3.96419  -0.002
C  C108  1  0.42178354  0.38273132  0.50656049  1  -0.047374  0.005738  -0.080681  -0.147201  0.002711  3.953856  0.005
C  C109  1  0.76018593  0.72612050  0.46160198  1  -0.047306  0.00677  -0.079647  -0.141839  0.003088  3.952351  0.005
C  C110  1  0.41963614  0.23485592  0.56745161  1  1.544077  -0.001843  0.212556  0.56647  -0.002635  4.195698  0.0
C  C111  1  0.70757799  0.80455930  0.48868955  1  0.481011  -0.009552  0.044341  0.084026  -0.01102  3.962768  -0.006
C  C112  1  0.01677027  0.63776147  0.32873835  1  1.570895  -0.00812  0.217762  0.588295  -0.009872  4.161929  -0.004
C  C113  1  0.17773690  0.39729479  0.50752242  1  0.530032  -0.008909  0.045908  0.10095  -0.00977  3.93673  -0.005
C  C114  1  0.52526618  0.37514736  0.33383131  1  -0.031251  0.003772  -0.080398  -0.151602  0.001524  3.958217  0.004
C  C115  1  0.80212049  0.75735815  0.56454882  1  0.383735  -0.009513  0.045369  0.086853  -0.01054  3.953195  -0.006
C  C116  1  0.03184218  0.71263723  0.28573741  1  0.008644  -0.000572  0.003323  0.016281  -0.00336  3.943361  0.002
C  C117  1  0.46796062  0.46767204  0.34077721  1  -0.00708  -0.005246  0.001497  0.016226  -0.00662  3.954875  -0.003
C  C118  1  0.84030774  0.66231114  0.48708087  1  -0.018976  -0.006657  0.004491  0.024423  -0.009402  3.934835  -0.003
C  C119  1  0.98395182  0.69319902  0.23679141  1  -0.017978  0.002353  -0.077074  -0.136277  0.000577  3.942495  0.003
C  C120  1  0.35651114  0.31520314  0.53701546  1  -0.017578  -0.008955  -0.001598  0.009421  -0.010585  3.955506  -0.005
C  C121  1  0.23203268  0.32391440  0.53771568  1  -0.01801  0.005276  -0.077642  -0.135172  0.002332  3.939937  0.004
C  C122  1  0.86151682  0.67924782  0.53969603  1  0.056582  0.007996  -0.082005  -0.152235  0.003658  3.967124  0.006
C  C123  1  0.90337001  0.58049834  0.45759149  1  1.600863  0.005959  0.219422  0.590517  0.004206  4.173198  0.005
C  C124  1  0.09557081  0.80217024  0.29282454  1  -0.030258  0.001951  -0.079123  -0.143074  0.000368  3.950184  0.002
C  C125  1  0.66241618  0.54479131  0.34282297  1  0.455806  -0.00548  0.047803  0.098416  -0.006818  3.957573  -0.003
C  C126  1  0.53885577  0.55406639  0.34452553  1  -0.032667  0.00352  -0.082219  -0.150281  0.001366  3.961727  0.003
C  C127  1  0.33463781  0.47250097  0.34857041  1  1.584906  -0.000405  0.209698  0.568203  -0.001095  4.204878  0.001
C  C128  1  0.86069479  0.04604136  0.52248427  1  0.483134  -0.008723  0.040575  0.084446  -0.009969  3.960459  -0.005
C  C129  1  0.60957589  0.63290202  0.74886473  1  0.443338  -0.004606  0.044253  0.082641  -0.00538  3.970745  -0.002
C  C130  1  0.50248386  0.73839574  0.80292450  1  0.43546  -0.006001  0.048602  0.100641  -0.0071  3.932697  -0.003
C  C131  1  0.14947000  0.12807165  0.66591283  1  0.46121  -0.004696  0.045528  0.089185  -0.005527  3.96414  -0.002
C  C132  1  0.92174433  0.11726080  0.49343186  1  -0.013488  0.005722  -0.08051  -0.146846  0.002711  3.953614  0.005
C  C133  1  0.26016170  0.77388433  0.53839593  1  -0.04736  0.006769  -0.079696  -0.141776  0.003088  3.952721  0.005
C  C134  1  0.91959736  0.26513546  0.43254886  1  1.544889  -0.001845  0.21275  0.567146  -0.002636  4.195374  0.0
C  C135  1  0.20757115  0.69544355  0.51130676  1  0.480171  -0.009549  0.044317  0.083962  -0.011018  3.963099  -0.006
C  C136  1  0.51678035  0.86224387  0.67125623  1  1.570611  -0.008127  0.218026  0.588394  -0.009879  4.161467  -0.004
C  C137  1  0.67769957  0.10269482  0.49247550  1  0.529041  -0.008909  0.046025  0.101262  -0.009769  3.936171  -0.005
C  C138  1  0.02525171  0.12484830  0.66617342  1  -0.031175  0.003768  -0.08043  -0.151484  0.001522  3.95784  0.004
C  C139  1  0.30211650  0.74264421  0.43544913  1  0.383748  -0.009516  0.04539  0.087114  -0.010544  3.953333  -0.006
C  C140  1  0.53185390  0.78734848  0.71426376  1  0.009007  -0.000523  0.003367  0.016206  -0.003315  3.943096  0.002
C  C141  1  0.96795326  0.03232434  0.65922794  1  -0.007202  -0.005239  0.001497  0.01638  -0.006612  3.955122  -0.003
C  C142  1  0.34028830  0.83769178  0.51291750  1  -0.019009  -0.006654  0.004547  0.024526  -0.009402  3.934712  -0.003
C  C143  1  0.48394642  0.80679263  0.76320865  1  -0.017122  0.002346  -0.077058  -0.136361  0.000574  3.942614  0.003
C  C144  1  0.85646504  0.18479081  0.46298224  1  -0.018258  -0.008954  -0.001912  0.008952  -0.010585  3.95567  -0.005
C  C145  1  0.73198842  0.17607418  0.46228152  1  -0.016228  0.005278  -0.077474  -0.135137  0.002332  3.939676  0.004
C  C146  1  0.36150348  0.82075950  0.46030352  1  0.056479  0.007998  -0.082087  -0.152405  0.003659  3.967064  0.006
C  C147  1  0.40336178  0.91949373  0.54241313  1  1.601022  0.00596  0.219492  0.590622  0.004208  4.172825  0.005
C  C148  1  0.59559921  0.69781966  0.70717786  1  -0.030555  0.001941  -0.079276  -0.143038  0.000363  3.949985  0.002
C  C149  1  0.16241456  0.95521103  0.65718064  1  0.455967  -0.005473  0.047738  0.098249  -0.00681  3.957673  -0.003
C  C150  1  0.03885420  0.94593358  0.65548183  1  -0.03289  0.003516  -0.08212  -0.150412  0.001364  3.962086  0.003
C  C151  1  0.83464385  0.02749009  0.65143345  1  1.585481  -0.00041  0.209851  0.568397  -0.001101  4.204973  0.001
C  C152  1  0.63928299  0.95393579  0.02248355  1  0.483627  -0.008724  0.040535  0.084539  -0.009968  3.959867  -0.005
C  C153  1  0.89042900  0.36710244  0.24887102  1  0.443907  -0.004635  0.044169  0.082355  -0.00541  3.970658  -0.002
C  C154  1  0.99749986  0.26159459  0.30293545  1  0.435902  -0.006032  0.048582  0.100742  -0.007132  3.932067  -0.003
C  C155  1  0.35053599  0.87192282  0.16592745  1  0.460992  -0.004694  0.045757  0.089636  -0.005527  3.9643  -0.002
C  C156  1  0.57822788  0.88272216  0.99343072  1  -0.014336  0.005721  -0.080532  -0.147098  0.002709  3.953676  0.005
C  C157  1  0.23985167  0.22612110  0.03839192  1  -0.047304  0.00677  -0.079772  -0.142082  0.003087  3.952954  0.005
C  C158  1  0.58038704  0.73486865  0.93254034  1  1.544036  -0.001848  0.212609  0.566701  -0.00264  4.195699  0.0
C  C159  1  0.29244029  0.30455992  0.01130200  1  0.4802  -0.009555  0.04436  0.084252  -0.011023  3.962635  -0.006
C  C160  1  0.98321520  0.13776435  0.17126457  1  1.571261  -0.008123  0.217843  0.588389  -0.009875  4.161715  -0.004
C  C161  1  0.82227800  0.89727689  0.99247637  1  0.530198  -0.008906  0.046011  0.10129  -0.009768  3.9365  -0.005
C  C162  1  0.47474892  0.87514616  0.16618658  1  -0.030844  0.003765  -0.080345  -0.151617  0.001521  3.958148  0.004
C  C163  1  0.19788018  0.25737364  0.93544406  1  0.384413  -0.009523  0.04544  0.086941  -0.010551  3.953505  -0.006
C  C164  1  0.96814455  0.21264754  0.21427132  1  0.012482  -0.000567  0.00337  0.016247  -0.003355  3.943148  0.002
C  C165  1  0.53205116  0.96766630  0.15923432  1  -0.008153  -0.005238  0.001513  0.016407  -0.006613  3.955076  -0.003
C  C166  1  0.15971600  0.16231840  0.01291484  1  -0.018285  -0.006663  0.004496  0.024386  -0.009411  3.935064  -0.003
C  C167  1  0.01604310  0.19320559  0.26321598  1  -0.021477  0.002359  -0.076998  -0.136331  0.000581  3.942363  0.003
C  C168  1  0.64350612  0.81520009  0.96297953  1  -0.01778  -0.008951  -0.001695  0.009567  -0.010582  3.955375  -0.005
C  C169  1  0.76798183  0.82390622  0.96228193  1  -0.018292  0.005273  -0.077638  -0.135297  0.002331  3.939891  0.004
C  C170  1  0.13848529  0.17925740  0.96030074  1  0.055918  0.008  -0.081945  -0.152197  0.00366  3.967103  0.006
C  C171  1  0.09663999  0.08051681  0.04241395  1  1.601034  0.005944  0.21958  0.590608  0.004196  4.172603  0.005
C  C172  1  0.90441530  0.30218115  0.20718405  1  -0.030797  0.001954  -0.079163  -0.142847  0.00037  3.950041  0.002
C  C173  1  0.33759228  0.04478078  0.15718941  1  0.455514  -0.005472  0.047854  0.09852  -0.006809  3.957393  -0.003
C  C174  1  0.46114995  0.05405905  0.15548675  1  -0.032709  0.003512  -0.082255  -0.150643  0.001362  3.962206  0.003
C  C175  1  0.66536232  0.97249860  0.15143682  1  1.584879  -0.000412  0.209592  0.567996  -0.001103  4.20507  0.001
N  N176  1  0.43517926  0.15268067  0.70374662  1  -1.210137  0.058162  -0.327217  -0.258945  0.031282  3.59464  0.05
N  N177  1  0.77249323  0.17976377  0.03947170  1  -1.220099  0.063044  -0.324288  -0.239491  0.033509  3.580059  0.054
N  N178  1  0.25969347  0.53936794  0.97711680  1  -1.245662  0.060348  -0.324101  -0.256729  0.031711  3.568089  0.054
N  N179  1  0.78248266  0.54506480  0.83927523  1  -1.212732  0.059901  -0.326859  -0.247789  0.03183  3.576353  0.049
N  N180  1  0.06481620  0.84733564  0.20375813  1  -1.209993  0.058175  -0.327119  -0.258732  0.031282  3.594838  0.05
N  N181  1  0.72749268  0.82023077  0.53946747  1  -1.22042  0.063059  -0.324346  -0.239376  0.033513  3.579604  0.054
N  N182  1  0.24032310  0.46062650  0.47711929  1  -1.245296  0.060345  -0.323922  -0.256349  0.031706  3.567869  0.054
N  N183  1  0.71750751  0.45494819  0.33928200  1  -1.212683  0.059895  -0.326991  -0.248149  0.031823  3.576195  0.049
N  N184  1  0.56482303  0.65266269  0.79623921  1  -1.210088  0.058174  -0.327154  -0.258877  0.031285  3.594713  0.05
N  N185  1  0.22749552  0.67976296  0.46052770  1  -1.220073  0.063058  -0.324318  -0.239588  0.033514  3.579955  0.054
N  N186  1  0.74029531  0.03936354  0.52287830  1  -1.246216  0.060347  -0.324147  -0.256734  0.031708  3.567716  0.054
N  N187  1  0.21750608  0.04505626  0.66071827  1  -1.212741  0.05987  -0.326874  -0.24789  0.031812  3.57611  0.049
N  N188  1  0.93516781  0.34733844  0.29624961  1  -1.210438  0.058186  -0.327187  -0.258846  0.031291  3.594558  0.05
N  N189  1  0.27250755  0.32024340  0.96052050  1  -1.220402  0.063066  -0.324367  -0.239569  0.033521  3.579963  0.054
N  N190  1  0.75968426  0.96061434  0.02287492  1  -1.245195  0.060339  -0.324064  -0.256932  0.031703  3.567557  0.054
N  N191  1  0.28249989  0.95493691  0.16072966  1  -1.212437  0.059859  -0.327014  -0.248259  0.031809  3.576321  0.049
O  O192  1  0.41923443  0.57224120  0.88452147  1  -1.266602  0.106485  -0.559678  -0.80331  0.057535  2.41329  0.092
O  O193  1  0.96718306  0.76837733  0.06473075  1  -1.127186  0.004648  -0.313574  -0.53476  0.001736  2.177868  0.004
O  O194  1  0.22924438  0.59849362  0.83141682  1  -1.165139  0.004545  -0.323871  -0.531084  0.001441  2.117339  0.004
O  O195  1  0.20157479  0.45206280  0.87509254  1  -1.166306  0.065983  -0.318002  -0.576338  0.034334  2.367415  0.054
O  O196  1  0.55185583  0.43626569  0.81857027  1  -1.151413  0.093899  -0.308731  -0.550951  0.048858  2.405312  0.08
O  O197  1  0.49149198  0.44229293  0.97349011  1  -1.164227  0.072433  -0.315981  -0.573514  0.036752  2.371979  0.057
O  O198  1  0.14662969  0.82473283  0.09367348  1  -1.153147  0.073931  -0.314893  -0.563324  0.038517  2.360523  0.061
O  O199  1  0.42718029  0.34616109  0.87054978  1  -1.157368  0.051598  -0.309402  -0.554917  0.026175  2.341817  0.045
O  O200  1  0.65144252  0.45650760  0.91951057  1  -1.148479  0.063277  -0.294457  -0.542894  0.031944  2.365527  0.057
O  O201  1  0.08077003  0.42775307  0.38452955  1  -1.266513  0.106481  -0.559706  -0.803483  0.057532  2.413111  0.092
O  O202  1  0.53283338  0.23159743  0.56471960  1  -1.126525  0.00465  -0.313474  -0.534736  0.001737  2.178031  0.004
O  O203  1  0.27076606  0.40150346  0.33142652  1  -1.164989  0.004552  -0.323835  -0.531065  0.001445  2.11745  0.004
O  O204  1  0.29840191  0.54795288  0.37508065  1  -1.16633  0.065962  -0.318022  -0.57631  0.034323  2.366941  0.054
O  O205  1  0.94816910  0.56372855  0.31857615  1  -1.151306  0.093962  -0.308654  -0.550808  0.048893  2.405371  0.08
O  O206  1  0.00850758  0.55767083  0.47350375  1  -1.164492  0.072461  -0.31601  -0.57358  0.03676  2.372042  0.058
O  O207  1  0.35338218  0.17525692  0.59365973  1  -1.15316  0.073966  -0.315019  -0.563474  0.038533  2.360692  0.062
O  O208  1  0.07276868  0.65385627  0.37057372  1  -1.157491  0.051578  -0.309446  -0.554924  0.026164  2.341304  0.045
O  O209  1  0.84857757  0.54349702  0.41951270  1  -1.148913  0.063252  -0.29427  -0.542717  0.031934  2.365795  0.057
O  O210  1  0.58075948  0.07221976  0.61547059  1  -1.265863  0.106523  -0.559664  -0.803204  0.057557  2.413363  0.092
O  O211  1  0.03278362  0.26841022  0.43529094  1  -1.127098  0.004645  -0.313723  -0.535282  0.001733  2.178164  0.004
O  O212  1  0.77074667  0.09846838  0.66858889  1  -1.165769  0.004555  -0.323861  -0.531094  0.001446  2.117185  0.004
O  O213  1  0.79841738  0.95206152  0.62491188  1  -1.166168  0.065949  -0.318091  -0.576444  0.034319  2.367361  0.054
O  O214  1  0.44816595  0.93626629  0.68142232  1  -1.151239  0.093959  -0.308695  -0.550752  0.048889  2.405382  0.08
O  O215  1  0.50850830  0.94230148  0.52650165  1  -1.164218  0.07248  -0.316049  -0.573575  0.036773  2.371901  0.058
O  O216  1  0.85335090  0.32473329  0.40633023  1  -1.153618  0.073989  -0.314984  -0.563653  0.038545  2.360448  0.062
O  O217  1  0.57279206  0.84613149  0.62942556  1  -1.157155  0.051599  -0.309546  -0.554974  0.026174  2.341534  0.045
O  O218  1  0.34856392  0.95650059  0.58048916  1  -1.148977  0.063252  -0.294303  -0.542796  0.031933  2.365718  0.057
O  O219  1  0.91922236  0.92777258  0.11547504  1  -1.266065  0.106513  -0.559528  -0.802957  0.057556  2.413458  0.092
O  O220  1  0.46720949  0.73158734  0.93527083  1  -1.126832  0.004638  -0.313588  -0.53497  0.001729  2.178622  0.004
O  O221  1  0.72925780  0.90150761  0.16859691  1  -1.165336  0.004558  -0.323768  -0.530949  0.001447  2.117079  0.004
O  O222  1  0.70159490  0.04791842  0.12491275  1  -1.166213  0.065951  -0.317931  -0.576152  0.034315  2.367763  0.054
O  O223  1  0.05184012  0.06374337  0.18142598  1  -1.151487  0.093937  -0.308691  -0.550826  0.048874  2.405251  0.08
O  O224  1  0.99148916  0.05771687  0.02650617  1  -1.164443  0.072483  -0.316054  -0.573524  0.036777  2.371634  0.058
O  O225  1  0.64665035  0.67528010  0.90632045  1  -1.153352  0.073985  -0.315048  -0.563653  0.038545  2.360272  0.062
O  O226  1  0.92718807  0.15385806  0.12944026  1  -1.157483  0.05156  -0.30947  -0.554943  0.026156  2.34136  0.045
O  O227  1  0.15143984  0.04349945  0.08048964  1  -1.149035  0.063253  -0.294363  -0.542726  0.031933  2.365641  0.057
