# generated using pymatgen
data_CdH12(C4N3)4
_symmetry_space_group_name_H-M   'P 1'
_cell_length_a   7.13274835
_cell_length_b   8.78619287
_cell_length_c   15.08545583
_cell_angle_alpha   101.34977219
_cell_angle_beta   99.84646011
_cell_angle_gamma   98.86615433
_symmetry_Int_Tables_number   1
_chemical_formula_structural   CdH12(C4N3)4
_chemical_formula_sum   'Cd2 H24 C32 N24'
_cell_volume   895.83800383
_cell_formula_units_Z   2
loop_
 _symmetry_equiv_pos_site_id
 _symmetry_equiv_pos_as_xyz
  1  'x, y, z'
loop_
 _atom_site_type_symbol
 _atom_site_label
 _atom_site_symmetry_multiplicity
 _atom_site_fract_x
 _atom_site_fract_y
 _atom_site_fract_z
 _atom_site_occupancy
 _atom_site_hle17_bader_spin_density
 _atom_site_hle17_ddec_charge
 _atom_site_hle17_ddec_spin_density
 _atom_site_hle17_ddec_sum_bond_order
 _atom_site_hle17_magmom
 _atom_site_hse06_10hf_bader_spin_density
 _atom_site_hse06_10hf_ddec_charge
 _atom_site_hse06_10hf_ddec_spin_density
 _atom_site_hse06_10hf_ddec_sum_bond_order
 _atom_site_hse06_10hf_magmom
 _atom_site_hse06_bader_spin_density
 _atom_site_hse06_ddec_charge
 _atom_site_hse06_ddec_spin_density
 _atom_site_hse06_ddec_sum_bond_order
 _atom_site_hse06_magmom
 _atom_site_pbe_bader_spin_density
 _atom_site_pbe_cm5_charge
 _atom_site_pbe_ddec_charge
 _atom_site_pbe_ddec_spin_density
 _atom_site_pbe_ddec_sum_bond_order
 _atom_site_pbe_magmom
Cd  Cd0  1  0.95271905  0.78641669  0.19161085  1  0  1.109487  0  1.870658  0  0  0.922375  0  2.346906  0  0  0.969046  0  2.303983  0  0  0.835441  0.889447  0  2.37631  0
Cd  Cd1  1  0.04727375  0.21358732  0.80838499  1  0  1.109523  0  1.870727  0  0  0.922396  0  2.347044  0  0  0.969065  0  2.304123  0  0  0.835481  0.889476  0  2.376447  0
H  H2  1  0.49479658  0.70014157  0.09332112  1  0  0.079592  0  0.956166  0  0  0.087007  0  1.021979  0  0  0.089044  0  1.020832  0  0  0.112071  0.085483  0  1.022918  0
H  H3  1  0.50519407  0.29985563  0.90667983  1  0  0.079554  0  0.956188  0  0  0.087002  0  1.021972  0  0  0.089035  0  1.020838  0  0  0.112043  0.085476  0  1.022907  0
H  H4  1  0.20597388  0.47891183  0.06174252  1  0  0.11687  0  0.969502  0  0  0.122697  0  1.036871  0  0  0.125791  0  1.035609  0  0  0.104381  0.120483  0  1.037858  0
H  H5  1  0.79402617  0.52108249  0.93825370  1  0  0.116916  0  0.969437  0  0  0.122756  0  1.036792  0  0  0.125852  0  1.035527  0  0  0.10442  0.120543  0  1.037778  0
H  H6  1  0.25625529  0.22721535  0.11120775  1  0  0.094295  0  0.935389  0  0  0.106944  0  0.990504  0  0  0.108739  0  0.990096  0  0  0.10801  0.105595  0  0.990902  0
H  H7  1  0.74374201  0.77278522  0.88879347  1  0  0.09433  0  0.93538  0  0  0.107017  0  0.990461  0  0  0.108816  0  0.990048  0  0  0.108048  0.105669  0  0.990859  0
H  H8  1  0.58519603  0.20983088  0.18983140  1  0  0.107525  0  0.970445  0  0  0.115835  0  1.035023  0  0  0.118313  0  1.035261  0  0  0.107492  0.114047  0  1.034992  0
H  H9  1  0.41480054  0.79017206  0.81016932  1  0  0.107571  0  0.970402  0  0  0.115868  0  1.035004  0  0  0.118346  0  1.035241  0  0  0.107524  0.114084  0  1.034961  0
H  H10  1  0.86165692  0.88062110  0.58764327  1  0  0.085028  0  0.961399  0  0  0.092879  0  1.023701  0  0  0.09512  0  1.023737  0  0  0.111412  0.091243  0  1.023833  0
H  H11  1  0.13835052  0.11937421  0.41235370  1  0  0.085088  0  0.961471  0  0  0.092941  0  1.023734  0  0  0.095182  0  1.023769  0  0  0.111466  0.091306  0  1.023865  0
H  H12  1  0.00231966  0.64008974  0.53449852  1  0  0.081694  0  0.973618  0  0  0.082823  0  1.048302  0  0  0.086554  0  1.045104  0  0  0.111721  0.080109  0  1.050698  0
H  H13  1  0.99767873  0.35990331  0.46549476  1  0  0.081596  0  0.973661  0  0  0.082723  0  1.048343  0  0  0.086452  0  1.045146  0  0  0.111681  0.080011  0  1.050741  0
H  H14  1  0.48931304  0.43851054  0.34298733  1  0  0.087266  0  0.949958  0  0  0.090666  0  1.020653  0  0  0.094114  0  1.018527  0  0  0.113663  0.088205  0  1.022189  0
H  H15  1  0.51067633  0.56147726  0.65701458  1  0  0.0874  0  0.95  0  0  0.0907  0  1.020766  0  0  0.094145  0  1.018647  0  0  0.113708  0.088242  0  1.022301  0
H  H16  1  0.10401660  0.30373986  0.28386687  1  0  0.129211  0  0.967108  0  0  0.143825  0  1.034193  0  0  0.146868  0  1.032759  0  0  0.097731  0.141666  0  1.035179  0
H  H17  1  0.89597761  0.69625951  0.71613196  1  0  0.129211  0  0.96708  0  0  0.143825  0  1.034164  0  0  0.146869  0  1.032728  0  0  0.097742  0.141666  0  1.035151  0
H  H18  1  0.89293432  0.19231958  0.20126287  1  0  0.115469  0  0.992572  0  0  0.136196  0  1.054119  0  0  0.136588  0  1.055665  0  0  0.091047  0.135896  0  1.05302  0
H  H19  1  0.10706444  0.80768088  0.79873715  1  0  0.115455  0  0.992597  0  0  0.136185  0  1.05414  0  0  0.136577  0  1.055684  0  0  0.091045  0.135886  0  1.053043  0
H  H20  1  0.87429665  0.27108295  0.31548974  1  0  0.126557  0  0.960113  0  0  0.144726  0  1.028735  0  0  0.146678  0  1.027654  0  0  0.099292  0.143262  0  1.02957  0
H  H21  1  0.12569855  0.72891535  0.68451239  1  0  0.126575  0  0.960071  0  0  0.144762  0  1.028649  0  0  0.146712  0  1.027568  0  0  0.099321  0.1433  0  1.029477  0
H  H22  1  0.09340447  0.82493964  0.39479159  1  0  0.334784  0  0.920024  0  0  0.313687  0  0.990674  0  0  0.320952  0  0.984883  0  0  0.300385  0.308552  0  0.994762  0
H  H23  1  0.90660613  0.17506307  0.60521369  1  0  0.334721  0  0.920002  0  0  0.313705  0  0.990549  0  0  0.320971  0  0.984757  0  0  0.300375  0.30857  0  0.99464  0
H  H24  1  0.31864120  0.88935120  0.47353257  1  0  0.33027  0  0.901113  0  0  0.302846  0  0.9848  0  0  0.310657  0  0.97784  0  0  0.304255  0.297289  0  0.98973  0
H  H25  1  0.68136609  0.11064433  0.52646906  1  0  0.330289  0  0.901074  0  0  0.302873  0  0.98478  0  0  0.310685  0  0.977818  0  0  0.304277  0.297318  0  0.989701  0
C  C26  1  0.71596259  0.95870153  0.32521199  1  0  0.521258  0  3.972837  0  0  0.48147  0  4.255656  0  0  0.50735  0  4.267061  0  0  0.309242  0.463708  0  4.247599  0
C  C27  1  0.28403598  0.04129292  0.67478609  1  0  0.521263  0  3.972631  0  0  0.481498  0  4.255424  0  0  0.50738  0  4.266826  0  0  0.309229  0.463736  0  4.247368  0
C  C28  1  0.40063750  0.99466242  0.28059382  1  0  0.531019  0  3.966081  0  0  0.48953  0  4.248784  0  0  0.517265  0  4.259184  0  0  0.315768  0.470473  0  4.241388  0
C  C29  1  0.59935930  0.00532630  0.71940753  1  0  0.530885  0  3.966196  0  0  0.489406  0  4.248897  0  0  0.517145  0  4.259295  0  0  0.315741  0.470345  0  4.241505  0
C  C30  1  0.16926044  0.81662189  0.03004480  1  0  0.498681  0  3.980059  0  0  0.461066  0  4.257862  0  0  0.486779  0  4.270365  0  0  0.30324  0.443552  0  4.24904  0
C  C31  1  0.83076077  0.18339834  0.96996182  1  0  0.498696  0  3.979653  0  0  0.461136  0  4.257465  0  0  0.486854  0  4.269966  0  0  0.30319  0.443628  0  4.248646  0
C  C32  1  0.25444271  0.99892582  0.94526488  1  0  0.509886  0  4.003489  0  0  0.465954  0  4.295483  0  0  0.493001  0  4.305942  0  0  0.312524  0.447528  0  4.288109  0
C  C33  1  0.74554829  0.00108175  0.05472982  1  0  0.509894  0  4.003414  0  0  0.466018  0  4.295402  0  0  0.493069  0  4.305861  0  0  0.312657  0.447595  0  4.288027  0
C  C34  1  0.50709600  0.58917523  0.11384918  1  0  0.14017  0  3.700406  0  0  0.109923  0  3.951702  0  0  0.116338  0  3.970015  0  0  0.051282  0.10574  0  3.939213  0
C  C35  1  0.49290198  0.41082767  0.88615167  1  0  0.140069  0  3.700343  0  0  0.1098  0  3.951647  0  0  0.11621  0  3.969963  0  0  0.051211  0.105623  0  3.939152  0
C  C36  1  0.34759898  0.46556880  0.09616586  1  0  -0.099253  0  3.687862  0  0  -0.117756  0  3.945909  0  0  -0.122632  0  3.965201  0  0  -0.080219  -0.114693  0  3.932994  0
C  C37  1  0.65239658  0.53443062  0.90383509  1  0  -0.099176  0  3.687812  0  0  -0.117688  0  3.945908  0  0  -0.122566  0  3.965204  0  0  -0.080173  -0.114622  0  3.932989  0
C  C38  1  0.37625667  0.32707386  0.12346893  1  0  0.011251  0  3.697575  0  0  -0.008441  0  3.952956  0  0  -0.005037  0  3.970078  0  0  -0.061624  -0.010521  0  3.941337  0
C  C39  1  0.62373501  0.67292682  0.87653113  1  0  0.011148  0  3.697789  0  0  -0.008596  0  3.953218  0  0  -0.00519  0  3.970342  0  0  -0.0617  -0.010676  0  3.9416  0
C  C40  1  0.56066012  0.31680158  0.16752783  1  0  -0.129794  0  3.677675  0  0  -0.150559  0  3.92627  0  0  -0.155977  0  3.946623  0  0  -0.077247  -0.147128  0  3.912776  0
C  C41  1  0.43933811  0.68320262  0.83247582  1  0  -0.129814  0  3.677716  0  0  -0.150551  0  3.926281  0  0  -0.155974  0  3.946637  0  0  -0.077278  -0.147115  0  3.912787  0
C  C42  1  0.71380690  0.44683688  0.18414488  1  0  0.156309  0  3.763173  0  0  0.156751  0  3.999811  0  0  0.161229  0  4.020955  0  0  0.116598  0.153684  0  3.985549  0
C  C43  1  0.28619751  0.55315882  0.81585849  1  0  0.156345  0  3.763286  0  0  0.156845  0  3.999888  0  0  0.161328  0  4.021028  0  0  0.116698  0.153776  0  3.985629  0
C  C44  1  0.90810969  0.44435458  0.23606308  1  0  0.246129  0  3.652183  0  0  0.238349  0  3.908837  0  0  0.249874  0  3.92172  0  0  0.141204  0.230555  0  3.900023  0
C  C45  1  0.09187586  0.55564361  0.76393021  1  0  0.246028  0  3.652183  0  0  0.238132  0  3.908993  0  0  0.249655  0  3.921875  0  0  0.141086  0.230335  0  3.900185  0
C  C46  1  0.29971501  0.68413020  0.38092470  1  0  0.394996  0  3.863676  0  0  0.355544  0  4.142929  0  0  0.376435  0  4.15493  0  0  0.242444  0.341513  0  4.134283  0
C  C47  1  0.70028788  0.31587030  0.61907901  1  0  0.394815  0  3.863733  0  0  0.355361  0  4.143009  0  0  0.376251  0  4.155013  0  0  0.24239  0.341333  0  4.134362  0
C  C48  1  0.49876871  0.67310018  0.42450785  1  0  0.083458  0  3.769317  0  0  0.095071  0  4.010553  0  0  0.093959  0  4.030058  0  0  0.126232  0.095446  0  3.997645  0
C  C49  1  0.50122750  0.32690163  0.57549405  1  0  0.083621  0  3.769436  0  0  0.095238  0  4.010617  0  0  0.094127  0  4.030123  0  0  0.126214  0.095613  0  3.997709  0
C  C50  1  0.77826644  0.78231422  0.53178339  1  0  0.070579  0  3.692966  0  0  0.051978  0  3.943283  0  0  0.052454  0  3.961031  0  0  0.045392  0.051483  0  3.931475  0
C  C51  1  0.22174288  0.21767279  0.46821493  1  0  0.07038  0  3.693226  0  0  0.051794  0  3.943487  0  0  0.052273  0  3.961233  0  0  0.045266  0.051297  0  3.931681  0
C  C52  1  0.85594921  0.64896383  0.50295752  1  0  0.074505  0  3.678069  0  0  0.050751  0  3.936668  0  0  0.053859  0  3.952538  0  0  0.046596  0.048627  0  3.926162  0
C  C53  1  0.14405225  0.35102584  0.49704168  1  0  0.074881  0  3.677994  0  0  0.051143  0  3.936522  0  0  0.054256  0  3.952387  0  0  0.046782  0.049011  0  3.926028  0
C  C54  1  0.57582506  0.53788102  0.39694963  1  0  0.063783  0  3.675493  0  0  0.029185  0  3.936557  0  0  0.032608  0  3.951948  0  0  0.053008  0.027013  0  3.926173  0
C  C55  1  0.42417634  0.46210875  0.60305157  1  0  0.063484  0  3.675832  0  0  0.028943  0  3.936959  0  0  0.032362  0  3.952354  0  0  0.052871  0.02677  0  3.926573  0
C  C56  1  0.94823568  0.29408301  0.25984826  1  0  -0.381242  0  3.713081  0  0  -0.46153  0  3.946546  0  0  -0.465214  0  3.952314  0  0  -0.245475  -0.458623  0  3.942402  0
C  C57  1  0.05176441  0.70591754  0.74015454  1  0  -0.381242  0  3.713144  0  0  -0.461475  0  3.946631  0  0  -0.465157  0  3.9524  0  0  -0.245461  -0.458568  0  3.942484  0
N  N58  1  0.85342579  0.89819042  0.33408473  1  0  -0.629034  0  2.761875  0  0  -0.584645  0  3.030782  0  0  -0.605111  0  3.036253  0  0  -0.388608  -0.570519  0  3.027175  0
N  N59  1  0.14658535  0.10182407  0.66591909  1  0  -0.629027  0  2.761728  0  0  -0.584657  0  3.030637  0  0  -0.605123  0  3.036107  0  0  -0.388578  -0.57053  0  3.027032  0
N  N60  1  0.58039251  0.03946773  0.32153128  1  0  -0.449055  0  3.314909  0  0  -0.393142  0  3.578131  0  0  -0.417504  0  3.581986  0  0  -0.300127  -0.375953  0  3.574787  0
N  N61  1  0.41961407  0.96053475  0.67846632  1  0  -0.449004  0  3.315023  0  0  -0.39313  0  3.578287  0  0  -0.417478  0  3.582111  0  0  -0.300151  -0.375941  0  3.574948  0
N  N62  1  0.23454158  0.97201688  0.24546170  1  0  -0.614455  0  2.795303  0  0  -0.55894  0  3.069277  0  0  -0.583263  0  3.074376  0  0  -0.392073  -0.542143  0  3.06566  0
N  N63  1  0.76547242  0.02798656  0.75453599  1  0  -0.614365  0  2.795401  0  0  -0.558823  0  3.069326  0  0  -0.583171  0  3.07447  0  0  -0.392009  -0.542024  0  3.06571  0
N  N64  1  0.07434062  0.71837582  0.05614006  1  0  -0.602972  0  2.763061  0  0  -0.555521  0  3.034074  0  0  -0.57657  0  3.038554  0  0  -0.385431  -0.541014  0  3.030863  0
N  N65  1  0.92567790  0.28163966  0.94386452  1  0  -0.603084  0  2.763019  0  0  -0.555638  0  3.034011  0  0  -0.576686  0  3.03849  0  0  -0.385427  -0.541139  0  3.030803  0
N  N66  1  0.28902206  0.92193153  0.00860598  1  0  -0.445052  0  3.326809  0  0  -0.388985  0  3.591201  0  0  -0.414539  0  3.598835  0  0  -0.298992  -0.371307  0  3.585381  0
N  N67  1  0.71099417  0.07808489  0.99139186  1  0  -0.445046  0  3.326425  0  0  -0.389089  0  3.590892  0  0  -0.414651  0  3.598534  0  0  -0.299038  -0.371402  0  3.585046  0
N  N68  1  0.24101861  0.07375692  0.88828602  1  0  -0.616916  0  2.824701  0  0  -0.567415  0  3.10924  0  0  -0.5903  0  3.113771  0  0  -0.391751  -0.551743  0  3.106028  0
N  N69  1  0.75897149  0.92624698  0.11170559  1  0  -0.616919  0  2.824755  0  0  -0.567409  0  3.109229  0  0  -0.590303  0  3.113776  0  0  -0.391807  -0.551739  0  3.106017  0
N  N70  1  0.68418066  0.57999304  0.15639722  1  0  -0.363977  0  3.275697  0  0  -0.290495  0  3.530969  0  0  -0.30935  0  3.551022  0  0  -0.326555  -0.277495  0  3.517001  0
N  N71  1  0.31580586  0.42001502  0.84360509  1  0  -0.363976  0  3.276002  0  0  -0.290514  0  3.531289  0  0  -0.309369  0  3.551339  0  0  -0.326587  -0.277514  0  3.517321  0
N  N72  1  0.03528702  0.57697916  0.26360109  1  0  -0.242069  0  3.231957  0  0  -0.182094  0  3.507385  0  0  -0.195365  0  3.527002  0  0  -0.215684  -0.173069  0  3.493754  0
N  N73  1  0.96470568  0.42302040  0.73640094  1  0  -0.241923  0  3.232054  0  0  -0.18193  0  3.507537  0  0  -0.195196  0  3.527145  0  0  -0.21564  -0.172904  0  3.49391  0
N  N74  1  0.21408778  0.56866626  0.30923371  1  0  -0.329408  0  3.084963  0  0  -0.298529  0  3.36797  0  0  -0.321234  0  3.392478  0  0  -0.233594  -0.282701  0  3.350731  0
N  N75  1  0.78591134  0.43133532  0.69076512  1  0  -0.329392  0  3.08519  0  0  -0.298486  0  3.36815  0  0  -0.321191  0  3.39266  0  0  -0.233579  -0.28266  0  3.350914  0
N  N76  1  0.60002077  0.79539424  0.49261694  1  0  -0.294141  0  3.084406  0  0  -0.263972  0  3.346326  0  0  -0.270443  0  3.361556  0  0  -0.29954  -0.259372  0  3.336226  0
N  N77  1  0.39998026  0.20460362  0.50737971  1  0  -0.29413  0  3.08451  0  0  -0.26397  0  3.346448  0  0  -0.270444  0  3.361681  0  0  -0.299488  -0.259368  0  3.336345  0
N  N78  1  0.75444003  0.52573559  0.43552414  1  0  -0.255373  0  3.049138  0  0  -0.221191  0  3.321923  0  0  -0.229112  0  3.33676  0  0  -0.302417  -0.215748  0  3.311893  0
N  N79  1  0.24555166  0.47425416  0.56447021  1  0  -0.255471  0  3.049012  0  0  -0.221295  0  3.321735  0  0  -0.229216  0  3.336569  0  0  -0.302428  -0.215852  0  3.311708  0
N  N80  1  0.22625457  0.80481677  0.42194862  1  0  -0.647287  0  3.150583  0  0  -0.604828  0  3.389739  0  0  -0.62792  0  3.388632  0  0  -0.561106  -0.588549  0  3.390071  0
N  N81  1  0.77374947  0.19518242  0.57805307  1  0  -0.647208  0  3.150391  0  0  -0.604854  0  3.389501  0  0  -0.627944  0  3.38839  0  0  -0.561109  -0.588576  0  3.389831  0
