# generated using pymatgen
data_HoH19C30N5O7
_symmetry_space_group_name_H-M   'P 1'
_cell_length_a   10.42244345
_cell_length_b   11.20136253
_cell_length_c   13.38916245
_cell_angle_alpha   109.88259990
_cell_angle_beta   101.34531019
_cell_angle_gamma   108.19472351
_symmetry_Int_Tables_number   1
_chemical_formula_structural   HoH19C30N5O7
_chemical_formula_sum   'Ho2 H38 C60 N10 O14'
_cell_volume   1313.72960687
_cell_formula_units_Z   2
loop_
 _symmetry_equiv_pos_site_id
 _symmetry_equiv_pos_as_xyz
  1  'x, y, z'
loop_
 _atom_site_type_symbol
 _atom_site_label
 _atom_site_symmetry_multiplicity
 _atom_site_fract_x
 _atom_site_fract_y
 _atom_site_fract_z
 _atom_site_occupancy
 _atom_site_hle17_bader_spin_density
 _atom_site_hle17_ddec_charge
 _atom_site_hle17_ddec_spin_density
 _atom_site_hle17_ddec_sum_bond_order
 _atom_site_hle17_magmom
 _atom_site_hse06_10hf_bader_spin_density
 _atom_site_hse06_10hf_ddec_charge
 _atom_site_hse06_10hf_ddec_spin_density
 _atom_site_hse06_10hf_ddec_sum_bond_order
 _atom_site_hse06_10hf_magmom
 _atom_site_hse06_bader_spin_density
 _atom_site_hse06_ddec_charge
 _atom_site_hse06_ddec_spin_density
 _atom_site_hse06_ddec_sum_bond_order
 _atom_site_hse06_magmom
 _atom_site_pbe_bader_spin_density
 _atom_site_pbe_cm5_charge
 _atom_site_pbe_ddec_charge
 _atom_site_pbe_ddec_spin_density
 _atom_site_pbe_ddec_sum_bond_order
 _atom_site_pbe_magmom
Ho  Ho0  1  0.50018842  0.08488864  0.37589534  1  0  2.21263  0  1.698432  0  0  2.048208  0  2.196355  0  0  2.187736  0  1.987413  0  0  1.531161  2.008947  0  2.230289  0
Ho  Ho1  1  0.49981001  0.91510904  0.62410377  1  0  2.212635  0  1.698641  0  0  2.048192  0  2.196583  0  0  2.187734  0  1.98763  0  0  1.531135  2.00895  0  2.230495  0
H  H2  1  0.41439924  0.56255017  0.98842586  1  0  0.096217  0  0.973356  0  0  0.104735  0  1.037079  0  0  0.107211  0  1.038173  0  0  0.100311  0.102955  0  1.036529  0
H  H3  1  0.58559810  0.43744958  0.01157442  1  0  0.096214  0  0.973305  0  0  0.104728  0  1.037039  0  0  0.107204  0  1.038133  0  0  0.100303  0.102949  0  1.036487  0
H  H4  1  0.27023798  0.32020413  0.95906618  1  0  0.056076  0  0.958297  0  0  0.064077  0  1.025465  0  0  0.06605  0  1.024603  0  0  0.103451  0.06264  0  1.026199  0
H  H5  1  0.72976177  0.67979667  0.04093327  1  0  0.056065  0  0.958313  0  0  0.064068  0  1.025477  0  0  0.06604  0  1.024617  0  0  0.103457  0.062631  0  1.026213  0
H  H6  1  0.96103011  0.45121569  0.38679917  1  0  0.06818  0  0.951979  0  0  0.07513  0  1.020713  0  0  0.078104  0  1.017986  0  0  0.10662  0.073037  0  1.022623  0
H  H7  1  0.03896669  0.54878510  0.61319908  1  0  0.068172  0  0.951954  0  0  0.075121  0  1.020698  0  0  0.078096  0  1.017969  0  0  0.106609  0.073027  0  1.022609  0
H  H8  1  0.03019272  0.30847187  0.47781810  1  0  0.100412  0  0.96362  0  0  0.109683  0  1.026002  0  0  0.111954  0  1.027136  0  0  0.10349  0.107757  0  1.025999  0
H  H9  1  0.96980125  0.69152684  0.52217837  1  0  0.100382  0  0.963649  0  0  0.109655  0  1.026031  0  0  0.111926  0  1.027161  0  0  0.10349  0.107731  0  1.026025  0
H  H10  1  0.23869544  0.24835691  0.44890580  1  0  0.120823  0  0.937856  0  0  0.12757  0  1.001171  0  0  0.131087  0  0.998469  0  0  0.117424  0.124977  0  1.003111  0
H  H11  1  0.76130180  0.75164492  0.55109431  1  0  0.12086  0  0.937794  0  0  0.127624  0  1.001077  0  0  0.13115  0  0.998375  0  0  0.117424  0.12503  0  1.003018  0
H  H12  1  0.92753560  0.31112312  0.70664722  1  0  0.108421  0  0.939572  0  0  0.114427  0  1.005084  0  0  0.11864  0  1.001568  0  0  0.107389  0.111024  0  1.008156  0
H  H13  1  0.07247538  0.68888812  0.29336290  1  0  0.108464  0  0.939453  0  0  0.114483  0  1.004955  0  0  0.118695  0  1.001439  0  0  0.107411  0.111082  0  1.008028  0
H  H14  1  0.19560340  0.44058030  0.78755155  1  0  0.098477  0  0.956788  0  0  0.110204  0  1.013889  0  0  0.113529  0  1.013078  0  0  0.103901  0.10785  0  1.014486  0
H  H15  1  0.80440582  0.55942678  0.21245413  1  0  0.098525  0  0.956812  0  0  0.110282  0  1.013872  0  0  0.113607  0  1.013063  0  0  0.103941  0.107927  0  1.014472  0
H  H16  1  0.34461321  0.32452306  0.70529594  1  0  0.074282  0  0.961645  0  0  0.082926  0  1.024345  0  0  0.085508  0  1.022429  0  0  0.108825  0.080965  0  1.02601  0
H  H17  1  0.65539372  0.67548089  0.29470850  1  0  0.074205  0  0.961769  0  0  0.082878  0  1.024434  0  0  0.085457  0  1.022524  0  0  0.108843  0.080929  0  1.026085  0
H  H18  1  0.14960712  0.93871999  0.22839084  1  0  0.084898  0  0.949239  0  0  0.090147  0  1.015954  0  0  0.093154  0  1.013338  0  0  0.12041  0.087901  0  1.018134  0
H  H19  1  0.85039229  0.06127770  0.77160842  1  0  0.084879  0  0.949277  0  0  0.090128  0  1.015994  0  0  0.093131  0  1.013379  0  0  0.120415  0.087881  0  1.018173  0
H  H20  1  0.96421896  0.78017987  0.03366959  1  0  0.100806  0  0.99017  0  0  0.106601  0  1.057875  0  0  0.109679  0  1.057074  0  0  0.102364  0.104671  0  1.057934  0
H  H21  1  0.03578079  0.21982093  0.96632837  1  0  0.100792  0  0.99014  0  0  0.106597  0  1.057839  0  0  0.109673  0  1.057038  0  0  0.102377  0.10467  0  1.057897  0
H  H22  1  0.04535033  0.68464752  0.87332577  1  0  0.105664  0  0.964505  0  0  0.111872  0  1.031143  0  0  0.114733  0  1.029457  0  0  0.106401  0.10973  0  1.032444  0
H  H23  1  0.95464985  0.31535432  0.12667255  1  0  0.105669  0  0.964544  0  0  0.111828  0  1.031249  0  0  0.11469  0  1.029565  0  0  0.10638  0.109691  0  1.032549  0
H  H24  1  0.25353547  0.68087674  0.80293219  1  0  0.105633  0  0.943187  0  0  0.118601  0  1.001744  0  0  0.121324  0  1.000638  0  0  0.109294  0.116708  0  1.002357  0
H  H25  1  0.74646515  0.31912615  0.19706575  1  0  0.105652  0  0.943172  0  0  0.118637  0  1.001707  0  0  0.121365  0  1.000598  0  0  0.109301  0.116743  0  1.002321  0
H  H26  1  0.51367741  0.74966725  0.84394182  1  0  0.116102  0  0.962375  0  0  0.123827  0  1.026028  0  0  0.127105  0  1.024892  0  0  0.110139  0.121515  0  1.026889  0
H  H27  1  0.48632243  0.25033148  0.15605631  1  0  0.116094  0  0.962368  0  0  0.123824  0  1.026022  0  0  0.127101  0  1.024889  0  0  0.110148  0.121511  0  1.026887  0
H  H28  1  0.76477963  0.88307874  0.98428099  1  0  0.1078  0  0.932634  0  0  0.11639  0  0.995623  0  0  0.119974  0  0.992567  0  0  0.112397  0.1138  0  0.997793  0
H  H29  1  0.23522109  0.11692207  0.01571861  1  0  0.107799  0  0.932626  0  0  0.116387  0  0.995621  0  0  0.119971  0  0.992565  0  0  0.112402  0.113796  0  0.99779  0
H  H30  1  0.92655055  0.03961130  0.18678575  1  0  0.109093  0  0.936968  0  0  0.123263  0  0.986655  0  0  0.125865  0  0.98729  0  0  0.111282  0.12151  0  0.986059  0
H  H31  1  0.07345017  0.96038951  0.81321460  1  0  0.10909  0  0.936994  0  0  0.123273  0  0.986671  0  0  0.125874  0  0.987304  0  0  0.111282  0.121517  0  0.986075  0
H  H32  1  0.81437384  0.10983045  0.33362367  1  0  0.085129  0  0.954483  0  0  0.090183  0  1.023409  0  0  0.093079  0  1.020736  0  0  0.120433  0.087914  0  1.025783  0
H  H33  1  0.18562513  0.89016619  0.66637672  1  0  0.085115  0  0.954461  0  0  0.090158  0  1.023396  0  0  0.093052  0  1.020724  0  0  0.120435  0.087885  0  1.025767  0
H  H34  1  0.49163477  0.75748325  0.18226957  1  0  0.096444  0  0.991328  0  0  0.104521  0  1.055589  0  0  0.107142  0  1.054407  0  0  0.109651  0.102768  0  1.056221  0
H  H35  1  0.50836464  0.24251443  0.81772969  1  0  0.096457  0  0.991333  0  0  0.104582  0  1.055527  0  0  0.107206  0  1.054342  0  0  0.109663  0.102831  0  1.056158  0
H  H36  1  0.74004800  0.34809004  0.47020864  1  0  0.421936  0  0.847053  0  0  0.398616  0  0.913128  0  0  0.406369  0  0.906027  0  0  0.309241  0.393066  0  0.91919  0
H  H37  1  0.25995282  0.65190869  0.52979039  1  0  0.421968  0  0.846978  0  0  0.398662  0  0.91303  0  0  0.406412  0  0.905954  0  0  0.309279  0.393109  0  0.919094  0
H  H38  1  0.63594227  0.35338026  0.37040720  1  0  0.418763  0  0.891225  0  0  0.387413  0  0.956535  0  0  0.399434  0  0.939531  0  0  0.288676  0.378977  0  0.968609  0
H  H39  1  0.36405768  0.64661638  0.62959110  1  0  0.418756  0  0.89122  0  0  0.387417  0  0.956513  0  0  0.399436  0  0.939512  0  0  0.288685  0.378986  0  0.968581  0
C  C40  1  0.42659597  0.74620311  0.35950518  1  0  0.731166  0  3.848235  0  0  0.683933  0  4.136817  0  0  0.720726  0  4.130938  0  0  0.233054  0.6592  0  4.144465  0
C  C41  1  0.57340357  0.25380185  0.64049095  1  0  0.730987  0  3.848606  0  0  0.68378  0  4.137123  0  0  0.720571  0  4.131249  0  0  0.233019  0.659049  0  4.144761  0
C  C42  1  0.37990219  0.62435381  0.24727673  1  0  -0.12334  0  3.657598  0  0  -0.10513  0  3.888798  0  0  -0.115267  0  3.90552  0  0  -0.00205  -0.098937  0  3.877491  0
C  C43  1  0.62009765  0.37564492  0.75272290  1  0  -0.123233  0  3.657581  0  0  -0.104996  0  3.888755  0  0  -0.115129  0  3.905475  0  0  -0.002036  -0.098806  0  3.877446  0
C  C44  1  0.38316535  0.54321314  0.05628501  1  0  -0.139995  0  3.77909  0  0  -0.149802  0  4.026862  0  0  -0.15725  0  4.048301  0  0  -0.095149  -0.145192  0  4.012386  0
C  C45  1  0.61683341  0.45678766  0.94371280  1  0  -0.139957  0  3.779209  0  0  -0.149764  0  4.026989  0  0  -0.157212  0  4.04843  0  0  -0.095111  -0.145156  0  4.012512  0
C  C46  1  0.30268894  0.40889847  0.04038270  1  0  0.120513  0  3.768237  0  0  0.096763  0  4.025023  0  0  0.103744  0  4.041365  0  0  0.039796  0.0925  0  4.013768  0
C  C47  1  0.69730938  0.59110128  0.95961699  1  0  0.120532  0  3.76832  0  0  0.096784  0  4.025093  0  0  0.103765  0  4.041436  0  0  0.039783  0.092518  0  4.013839  0
C  C48  1  0.29718923  0.48533124  0.22243393  1  0  0.201941  0  3.713435  0  0  0.191178  0  3.964584  0  0  0.200107  0  3.980126  0  0  0.138441  0.185587  0  3.953547  0
C  C49  1  0.70280821  0.51466644  0.77756502  1  0  0.201924  0  3.713264  0  0  0.191089  0  3.964488  0  0  0.200017  0  3.980029  0  0  0.138382  0.185498  0  3.953449  0
C  C50  1  0.23437091  0.44293072  0.30261038  1  0  0.1818  0  3.742289  0  0  0.170622  0  3.997176  0  0  0.179292  0  4.01187  0  0  0.12966  0.165238  0  3.986332  0
C  C51  1  0.76562414  0.55706590  0.69738641  1  0  0.181667  0  3.742257  0  0  0.170542  0  3.997156  0  0  0.179215  0  4.011849  0  0  0.129597  0.165158  0  3.986309  0
C  C52  1  0.05243731  0.42558644  0.37818322  1  0  0.101319  0  3.769335  0  0  0.078303  0  4.029731  0  0  0.084674  0  4.045505  0  0  0.033452  0.07437  0  4.018709  0
C  C53  1  0.94755677  0.57441018  0.62181342  1  0  0.101228  0  3.769259  0  0  0.078202  0  4.02968  0  0  0.084572  0  4.045449  0  0  0.033409  0.074266  0  4.018661  0
C  C54  1  0.09035490  0.34511720  0.42833625  1  0  -0.13741  0  3.760444  0  0  -0.148615  0  4.011768  0  0  -0.155923  0  4.033741  0  0  -0.091543  -0.144076  0  3.997236  0
C  C55  1  0.90963917  0.65487942  0.57165741  1  0  -0.137307  0  3.760267  0  0  -0.148504  0  4.011568  0  0  -0.15581  0  4.033539  0  0  -0.09148  -0.143968  0  3.997035  0
C  C56  1  0.20571667  0.31253972  0.41310511  1  0  0.001195  0  3.662946  0  0  -0.026253  0  3.908163  0  0  -0.020745  0  3.923249  0  0  -0.057415  -0.029543  0  3.897859  0
C  C57  1  0.79427598  0.68745586  0.58689177  1  0  0.00112  0  3.663006  0  0  -0.02631  0  3.908206  0  0  -0.020812  0  3.923307  0  0  -0.057411  -0.029599  0  3.897901  0
C  C58  1  0.28062377  0.36312578  0.34987339  1  0  -0.114082  0  3.66792  0  0  -0.097625  0  3.90251  0  0  -0.106732  0  3.919487  0  0  -0.001189  -0.091977  0  3.891076  0
C  C59  1  0.71937172  0.63687189  0.65012228  1  0  -0.114114  0  3.667993  0  0  -0.097698  0  3.902728  0  0  -0.106816  0  3.919724  0  0  -0.001228  -0.092048  0  3.891289  0
C  C60  1  0.40582416  0.32891910  0.33437145  1  0  0.702889  0  3.874439  0  0  0.651267  0  4.173747  0  0  0.686981  0  4.165116  0  0  0.222204  0.626914  0  4.181065  0
C  C61  1  0.59417154  0.67107441  0.66562530  1  0  0.703125  0  3.874188  0  0  0.651336  0  4.173796  0  0  0.687055  0  4.165157  0  0  0.222167  0.626983  0  4.181116  0
C  C62  1  0.77298674  0.06082614  0.54229859  1  0  0.748029  0  3.873028  0  0  0.690651  0  4.183776  0  0  0.729637  0  4.171707  0  0  0.238191  0.664641  0  4.194072  0
C  C63  1  0.22701738  0.93918508  0.45770152  1  0  0.747906  0  3.873415  0  0  0.690619  0  4.184064  0  0  0.729603  0  4.171998  0  0  0.238178  0.664608  0  4.194354  0
C  C64  1  0.93472676  0.12762804  0.58784920  1  0  -0.113548  0  3.670244  0  0  -0.094661  0  3.905764  0  0  -0.101708  0  3.922174  0  0  -0.000447  -0.090028  0  3.893651  0
C  C65  1  0.06527604  0.87238004  0.41215878  1  0  -0.113301  0  3.669988  0  0  -0.094488  0  3.905572  0  0  -0.101536  0  3.921974  0  0  -0.000287  -0.08984  0  3.893425  0
C  C66  1  0.99639722  0.26217882  0.67607801  1  0  -0.044785  0  3.727302  0  0  -0.070216  0  3.976066  0  0  -0.06798  0  3.993057  0  0  -0.072913  -0.071136  0  3.964218  0
C  C67  1  0.00360808  0.73782824  0.32392781  1  0  -0.045029  0  3.727121  0  0  -0.070467  0  3.975955  0  0  -0.068234  0  3.992946  0  0  -0.073059  -0.071392  0  3.964106  0
C  C68  1  0.14497673  0.33476552  0.72051619  1  0  -0.125702  0  3.763634  0  0  -0.135656  0  4.011924  0  0  -0.141019  0  4.031724  0  0  -0.090222  -0.132148  0  3.998269  0
C  C69  1  0.85503391  0.66524260  0.27949225  1  0  -0.125742  0  3.76368  0  0  -0.13571  0  4.011945  0  0  -0.14107  0  4.031747  0  0  -0.09027  -0.132204  0  3.998302  0
C  C70  1  0.22806434  0.26966300  0.67514454  1  0  0.120188  0  3.739947  0  0  0.092704  0  4.001058  0  0  0.099482  0  4.016054  0  0  0.043431  0.088265  0  3.990745  0
C  C71  1  0.77194303  0.73034199  0.32486101  1  0  0.12038  0  3.740003  0  0  0.092858  0  4.001136  0  0  0.099635  0  4.016132  0  0  0.043455  0.08841  0  3.990826  0
C  C72  1  0.02732172  0.07006682  0.54749574  1  0  0.149152  0  3.750832  0  0  0.140456  0  3.999116  0  0  0.14621  0  4.018226  0  0  0.118701  0.136735  0  3.98564  0
C  C73  1  0.97268217  0.92993919  0.45251106  1  0  0.149124  0  3.75082  0  0  0.140407  0  3.999153  0  0  0.146181  0  4.018239  0  0  0.11864  0.136687  0  3.98567  0
C  C74  1  0.18040990  0.89560982  0.15542807  1  0  0.160135  0  3.690765  0  0  0.132385  0  3.943915  0  0  0.140187  0  3.962552  0  0  0.060998  0.126915  0  3.933886  0
C  C75  1  0.81959093  0.10438891  0.84457095  1  0  0.160153  0  3.690699  0  0  0.132405  0  3.943856  0  0  0.140211  0  3.962488  0  0  0.060997  0.126936  0  3.933827  0
C  C76  1  0.07793405  0.80744067  0.04724424  1  0  -0.124224  0  3.741399  0  0  -0.134035  0  3.986046  0  0  -0.140819  0  4.006823  0  0  -0.08622  -0.129429  0  3.971062  0
C  C77  1  0.92206526  0.19255909  0.95275559  1  0  -0.124181  0  3.741428  0  0  -0.134001  0  3.986068  0  0  -0.140784  0  4.006844  0  0  -0.086213  -0.129396  0  3.971085  0
C  C78  1  0.12288164  0.75493774  0.95791869  1  0  -0.043407  0  3.677791  0  0  -0.06488  0  3.91971  0  0  -0.062796  0  3.937931  0  0  -0.064298  -0.065493  0  3.906718  0
C  C79  1  0.87711821  0.24506098  0.04207870  1  0  -0.043402  0  3.677901  0  0  -0.064849  0  3.919846  0  0  -0.062768  0  3.93807  0  0  -0.064297  -0.065467  0  3.906859  0
C  C80  1  0.27122808  0.79338859  0.97699444  1  0  0.01989  0  3.798367  0  0  0.035186  0  4.029642  0  0  0.032627  0  4.054725  0  0  -0.004467  0.036824  0  4.01224  0
C  C81  1  0.72877133  0.20660909  0.02300407  1  0  0.019803  0  3.798362  0  0  0.035121  0  4.029617  0  0  0.032563  0  4.054702  0  0  -0.004475  0.03676  0  4.012217  0
C  C82  1  0.36695967  0.88341237  0.08925049  1  0  0.13133  0  3.767587  0  0  0.127988  0  4.006664  0  0  0.131366  0  4.03134  0  0  0.119991  0.125226  0  3.992859  0
C  C83  1  0.63303974  0.11658531  0.91074952  1  0  0.131428  0  3.767451  0  0  0.128079  0  4.006546  0  0  0.131459  0  4.031218  0  0  0.119979  0.125316  0  3.992739  0
C  C84  1  0.32781318  0.74674068  0.88919602  1  0  -0.094789  0  3.725706  0  0  -0.117898  0  3.981973  0  0  -0.121012  0  4.003953  0  0  -0.08086  -0.115321  0  3.966422  0
C  C85  1  0.67218525  0.25325700  0.11080309  1  0  -0.094857  0  3.725773  0  0  -0.117973  0  3.982043  0  0  -0.121091  0  4.004023  0  0  -0.080898  -0.115395  0  3.966491  0
C  C86  1  0.47225327  0.78607261  0.91168393  1  0  -0.089541  0  3.703592  0  0  -0.114935  0  3.963737  0  0  -0.117142  0  3.984771  0  0  -0.080846  -0.113376  0  3.949077  0
C  C87  1  0.52774712  0.21392508  0.08831548  1  0  -0.089477  0  3.703663  0  0  -0.114889  0  3.963809  0  0  -0.117096  0  3.984849  0  0  -0.080841  -0.11333  0  3.949151  0
C  C88  1  0.57158898  0.87579790  0.02400033  1  0  0.019619  0  3.775465  0  0  0.035289  0  4.008368  0  0  0.032518  0  4.031985  0  0  -0.002786  0.037404  0  3.991653  0
C  C89  1  0.42841097  0.12419874  0.97600021  1  0  0.019559  0  3.775487  0  0  0.035262  0  4.008366  0  0  0.032488  0  4.03199  0  0  -0.002783  0.037375  0  3.991653  0
C  C90  1  0.51943143  0.92523180  0.11319801  1  0  0.128507  0  3.777757  0  0  0.126257  0  4.014382  0  0  0.130665  0  4.038768  0  0  0.120256  0.123314  0  4.00047  0
C  C91  1  0.48056765  0.07476276  0.88680180  1  0  0.128478  0  3.777795  0  0  0.126201  0  4.014446  0  0  0.130609  0  4.038835  0  0  0.120193  0.123262  0  4.000532  0
C  C92  1  0.72171324  0.91862381  0.05133450  1  0  -0.042023  0  3.687443  0  0  -0.066978  0  3.939055  0  0  -0.063958  0  3.956133  0  0  -0.060638  -0.068504  0  3.926716  0
C  C93  1  0.27828715  0.08137388  0.94866566  1  0  -0.04198  0  3.687462  0  0  -0.066939  0  3.939062  0  0  -0.063916  0  3.956138  0  0  -0.06063  -0.068464  0  3.926723  0
C  C94  1  0.81019321  0.00329687  0.16224938  1  0  -0.128889  0  3.730277  0  0  -0.140355  0  3.981156  0  0  -0.147832  0  4.00236  0  0  -0.083763  -0.135563  0  3.966155  0
C  C95  1  0.18980761  0.99670186  0.83775189  1  0  -0.128965  0  3.730329  0  0  -0.140444  0  3.981212  0  0  -0.147921  0  4.002414  0  0  -0.083808  -0.135649  0  3.966207  0
C  C96  1  0.74857113  0.04485196  0.24518318  1  0  0.176471  0  3.682271  0  0  0.144439  0  3.943839  0  0  0.153135  0  3.962853  0  0  0.066024  0.138706  0  3.93374  0
C  C97  1  0.25142838  0.95514364  0.75481700  1  0  0.176603  0  3.682149  0  0  0.144579  0  3.94373  0  0  0.153277  0  3.962744  0  0  0.066064  0.138848  0  3.933629  0
C  C98  1  0.42382900  0.65100519  0.16216818  1  0  -0.014989  0  3.723941  0  0  -0.044153  0  3.972051  0  0  -0.038912  0  3.98821  0  0  -0.068454  -0.046955  0  3.960411  0
C  C99  1  0.57617259  0.34899770  0.83783290  1  0  -0.015079  0  3.724089  0  0  -0.044283  0  3.972169  0  0  -0.039045  0  3.988329  0  0  -0.068482  -0.047086  0  3.960523  0
N  N100  1  0.26116145  0.37952616  0.12107844  1  0  -0.352207  0  3.064923  0  0  -0.320649  0  3.33601  0  0  -0.333161  0  3.349858  0  0  -0.316565  -0.312396  0  3.326408  0
N  N101  1  0.73883883  0.62047361  0.87892155  1  0  -0.352226  0  3.064824  0  0  -0.320642  0  3.335913  0  0  -0.333154  0  3.349761  0  0  -0.316565  -0.312389  0  3.32631  0
N  N102  1  0.12196891  0.47363811  0.31592468  1  0  -0.360999  0  3.073213  0  0  -0.329206  0  3.344136  0  0  -0.340757  0  3.356143  0  0  -0.322295  -0.321313  0  3.335541  0
N  N103  1  0.87802702  0.52636061  0.68407135  1  0  -0.36085  0  3.073203  0  0  -0.32905  0  3.344096  0  0  -0.340602  0  3.356102  0  0  -0.322226  -0.321157  0  3.335498  0
N  N104  1  0.17105346  0.14092787  0.59211085  1  0  -0.306959  0  3.090894  0  0  -0.27042  0  3.357062  0  0  -0.281987  0  3.372522  0  0  -0.300665  -0.26208  0  3.345984  0
N  N105  1  0.82894999  0.85907710  0.40789410  1  0  -0.307131  0  3.090877  0  0  -0.270578  0  3.357078  0  0  -0.28215  0  3.372531  0  0  -0.300727  -0.262238  0  3.346006  0
N  N106  1  0.32075168  0.93134180  0.17650688  1  0  -0.409682  0  3.246689  0  0  -0.361217  0  3.513427  0  0  -0.384952  0  3.533408  0  0  -0.371756  -0.351521  0  3.502242  0
N  N107  1  0.67924555  0.06865067  0.82348906  1  0  -0.40969  0  3.246487  0  0  -0.361238  0  3.513251  0  0  -0.384972  0  3.533226  0  0  -0.371737  -0.351543  0  3.502066  0
N  N108  1  0.60770671  0.00783087  0.22203743  1  0  -0.428594  0  3.22821  0  0  -0.379452  0  3.498279  0  0  -0.40518  0  3.518188  0  0  -0.371909  -0.369321  0  3.48682  0
N  N109  1  0.39229183  0.99216473  0.77796259  1  0  -0.428649  0  3.228164  0  0  -0.37952  0  3.498282  0  0  -0.405246  0  3.518188  0  0  -0.371897  -0.369393  0  3.486822  0
O  O110  1  0.45635769  0.86475645  0.35868928  1  0  -0.774939  0  2.146077  0  0  -0.721417  0  2.412149  0  0  -0.764749  0  2.402691  0  0  -0.400644  -0.70203  0  2.418522  0
O  O111  1  0.54363355  0.13523808  0.64131006  1  0  -0.774855  0  2.145952  0  0  -0.721307  0  2.411945  0  0  -0.764659  0  2.402513  0  0  -0.400577  -0.701921  0  2.418311  0
O  O112  1  0.43559732  0.72605981  0.44778847  1  0  -0.698696  0  2.020766  0  0  -0.647319  0  2.265213  0  0  -0.683979  0  2.253703  0  0  -0.374969  -0.628599  0  2.270507  0
O  O113  1  0.56440198  0.27393995  0.55221510  1  0  -0.698625  0  2.021182  0  0  -0.647268  0  2.265634  0  0  -0.683922  0  2.254123  0  0  -0.374957  -0.628552  0  2.270925  0
O  O114  1  0.51830447  0.41996774  0.33949941  1  0  -0.605732  0  1.890819  0  0  -0.555921  0  2.100196  0  0  -0.580481  0  2.091748  0  0  -0.310186  -0.5383  0  2.105242  0
O  O115  1  0.48169778  0.58003203  0.66050312  1  0  -0.605758  0  1.890935  0  0  -0.55588  0  2.100396  0  0  -0.580435  0  2.091946  0  0  -0.310128  -0.538262  0  2.105441  0
O  O116  1  0.38736343  0.20408917  0.31711616  1  0  -0.769505  0  2.089318  0  0  -0.713785  0  2.353474  0  0  -0.753931  0  2.339502  0  0  -0.429266  -0.693806  0  2.359981  0
O  O117  1  0.61263534  0.79591164  0.68287941  1  0  -0.769658  0  2.089116  0  0  -0.713858  0  2.353336  0  0  -0.754015  0  2.339365  0  0  -0.429283  -0.69388  0  2.35984  0
O  O118  1  0.71675367  0.10178594  0.47482548  1  0  -0.731109  0  2.086338  0  0  -0.679429  0  2.355268  0  0  -0.71836  0  2.340853  0  0  -0.396316  -0.660048  0  2.362489  0
O  O119  1  0.28325512  0.89822010  0.52518208  1  0  -0.731212  0  2.085935  0  0  -0.679511  0  2.354801  0  0  -0.718445  0  2.340386  0  0  -0.396391  -0.66013  0  2.362019  0
O  O120  1  0.70915449  0.98595960  0.58505305  1  0  -0.723469  0  2.088448  0  0  -0.678397  0  2.361816  0  0  -0.716642  0  2.346282  0  0  -0.389405  -0.659919  0  2.369956  0
O  O121  1  0.29084001  0.01403805  0.41495292  1  0  -0.723288  0  2.089263  0  0  -0.678275  0  2.362619  0  0  -0.716515  0  2.34708  0  0  -0.389336  -0.6598  0  2.37076  0
O  O122  1  0.68910740  0.29765541  0.38896458  1  0  -0.883275  0  1.871213  0  0  -0.83737  0  2.065905  0  0  -0.865712  0  2.036131  0  0  -0.619744  -0.823501  0  2.084023  0
O  O123  1  0.31089583  0.70234437  0.61103212  1  0  -0.883283  0  1.871207  0  0  -0.83739  0  2.065876  0  0  -0.865728  0  2.036125  0  0  -0.619788  -0.823522  0  2.083991  0
