# generated using pymatgen
data_CuH6C7(N2O)3
_symmetry_space_group_name_H-M   'P 1'
_cell_length_a   7.58501226
_cell_length_b   10.05169976
_cell_length_c   12.71330737
_cell_angle_alpha   90.00711731
_cell_angle_beta   89.99028917
_cell_angle_gamma   100.85190126
_symmetry_Int_Tables_number   1
_chemical_formula_structural   CuH6C7(N2O)3
_chemical_formula_sum   'Cu4 H24 C28 N24 O12'
_cell_volume   951.95761068
_cell_formula_units_Z   4
loop_
 _symmetry_equiv_pos_site_id
 _symmetry_equiv_pos_as_xyz
  1  'x, y, z'
loop_
 _atom_site_type_symbol
 _atom_site_label
 _atom_site_symmetry_multiplicity
 _atom_site_fract_x
 _atom_site_fract_y
 _atom_site_fract_z
 _atom_site_occupancy
 _atom_site_hle17_ddec_charge
 _atom_site_hle17_ddec_spin_density
 _atom_site_hle17_ddec_sum_bond_order
 _atom_site_hle17_magmom
 _atom_site_hse06_10hf_ddec_charge
 _atom_site_hse06_10hf_ddec_spin_density
 _atom_site_hse06_10hf_ddec_sum_bond_order
 _atom_site_hse06_10hf_magmom
 _atom_site_hse06_ddec_charge
 _atom_site_hse06_ddec_spin_density
 _atom_site_hse06_ddec_sum_bond_order
 _atom_site_hse06_magmom
 _atom_site_pbe_cm5_charge
 _atom_site_pbe_ddec_charge
 _atom_site_pbe_ddec_spin_density
 _atom_site_pbe_ddec_sum_bond_order
 _atom_site_pbe_magmom
Cu  Cu0  1  0.79108329  0.36565082  0.44473708  1  0.791615  -0.742689  1.919672  -0.519  0.755549  -0.809109  2.32543  -0.629  0.83961  -0.885852  2.260883  -0.714  0.786623  0.705591  -0.751442  2.369554  -0.572
Cu  Cu1  1  0.20896428  0.13438877  0.94466524  1  0.791965  0.742757  1.91981  0.519  0.756043  0.809119  2.325348  0.629  0.839882  0.885842  2.26108  0.714  0.786753  0.705956  0.751531  2.369715  0.572
Cu  Cu2  1  0.20893260  0.63433490  0.55526331  1  0.791627  0.742671  1.919501  0.519  0.755782  0.809122  2.324969  0.629  0.83963  0.885905  2.260727  0.714  0.786598  0.705699  0.751451  2.369303  0.572
Cu  Cu3  1  0.79102163  0.86561927  0.05531863  1  0.792002  -0.742697  1.919032  -0.519  0.756024  -0.809154  2.324551  -0.629  0.839992  -0.885916  2.260211  -0.714  0.786568  0.705909  -0.751533  2.368934  -0.572
H  H4  1  0.63489515  0.18063921  0.62831202  1  0.086151  -0.001341  0.965529  -0.002  0.081328  -0.000893  1.05175  -0.002  0.084012  -0.000617  1.048158  -0.001  0.116659  0.07911  -0.001098  1.054534  -0.002
H  H5  1  0.36501664  0.31930069  0.12830531  1  0.086281  0.001349  0.96554  0.002  0.081471  0.000892  1.051793  0.002  0.084171  0.000617  1.048183  0.001  0.116753  0.079217  0.001098  1.054601  0.002
H  H6  1  0.36512907  0.81935866  0.37168994  1  0.086019  0.001347  0.965585  0.002  0.081242  0.000892  1.05177  0.002  0.083932  0.000616  1.048173  0.001  0.116576  0.079018  0.001098  1.054566  0.002
H  H7  1  0.63492967  0.68065470  0.87169036  1  0.086139  -0.00134  0.96547  -0.002  0.08138  -0.000893  1.051632  -0.002  0.084076  -0.000617  1.048025  -0.001  0.116645  0.07916  -0.001098  1.054414  -0.002
H  H8  1  0.33513676  0.03337263  0.66350908  1  0.14275  -0.000369  0.934623  0.0  0.149531  -0.000481  0.995579  -0.001  0.154019  -0.000343  0.992623  0.0  0.116501  0.146097  -0.00058  0.998063  -0.001
H  H9  1  0.66477390  0.46655528  0.16351637  1  0.142527  0.000357  0.934433  0.0  0.149385  0.000481  0.995318  0.001  0.153869  0.000343  0.992365  0.0  0.116495  0.145944  0.00058  0.997811  0.001
H  H10  1  0.66488640  0.96662625  0.33649446  1  0.142692  0.000357  0.934629  0.0  0.149501  0.00048  0.995539  0.001  0.153991  0.000343  0.99258  0.0  0.116494  0.146066  0.00058  0.998024  0.001
H  H11  1  0.33517805  0.53341733  0.83649031  1  0.142642  -0.000363  0.934418  0.0  0.149444  -0.00048  0.995322  -0.001  0.153927  -0.000343  0.992371  0.0  0.116475  0.146008  -0.00058  0.997804  -0.001
H  H12  1  0.16660850  0.14271058  0.35599329  1  0.116984  -0.000169  0.969748  0.0  0.118212  -0.00036  1.044206  0.0  0.121221  -0.000245  1.04321  0.0  0.112289  0.115839  -0.000452  1.04537  -0.001
H  H13  1  0.83340904  0.35735080  0.85595403  1  0.117158  0.00016  0.970197  0.0  0.118395  0.000359  1.044498  0.0  0.121421  0.000245  1.043501  0.0  0.112399  0.116021  0.000452  1.045668  0.001
H  H14  1  0.83340640  0.85729743  0.64400868  1  0.116981  0.000158  0.969943  0.0  0.118209  0.00036  1.044406  0.0  0.121216  0.000245  1.043415  0.0  0.11231  0.115836  0.000452  1.045571  0.001
H  H15  1  0.16654856  0.64263903  0.14403692  1  0.117037  -0.000164  0.970222  0.0  0.118267  -0.000359  1.044555  0.0  0.121286  -0.000244  1.043566  0.0  0.112334  0.115891  -0.000452  1.045727  -0.001
H  H16  1  0.47363125  0.28558104  0.33222462  1  0.098892  -0.001376  0.936556  -0.002  0.106384  -0.000947  0.99878  -0.002  0.108024  -0.000676  0.99726  -0.001  0.124169  0.104864  -0.001144  1.000214  -0.002
H  H17  1  0.52638814  0.21450281  0.83213792  1  0.098991  0.001383  0.93637  0.002  0.106411  0.000946  0.998722  0.002  0.108044  0.000675  0.99722  0.001  0.124267  0.104902  0.001144  1.000132  0.002
H  H18  1  0.52639156  0.71442696  0.66777892  1  0.098949  0.001384  0.93634  0.002  0.106389  0.000947  0.99865  0.002  0.108033  0.000676  0.997124  0.001  0.124141  0.104867  0.001145  1.000092  0.002
H  H19  1  0.47356310  0.78546170  0.16786169  1  0.099106  -0.001378  0.93624  -0.002  0.106516  -0.000947  0.998604  -0.002  0.108173  -0.000675  0.997058  -0.001  0.124256  0.105006  -0.001144  1.000028  -0.002
H  H20  1  0.56098743  0.54802228  0.35893114  1  0.390256  -0.000202  0.92192  0.0  0.355308  -0.000184  0.99522  0.0  0.366718  -0.000102  0.978603  0.0  0.283752  0.347689  -0.000272  1.006271  0.0
H  H21  1  0.43901612  0.95200886  0.85889641  1  0.390274  0.000201  0.922024  0.0  0.355182  0.000184  0.995558  0.0  0.366587  0.000102  0.978944  0.0  0.283772  0.347562  0.000272  1.006609  0.0
H  H22  1  0.43902981  0.45198978  0.64106138  1  0.390354  0.000201  0.921785  0.0  0.355396  0.000184  0.995107  0.0  0.366802  0.000102  0.978493  0.0  0.283743  0.347772  0.000272  1.006162  0.0
H  H23  1  0.56098072  0.04798499  0.14108747  1  0.390243  -0.000202  0.922077  0.0  0.355155  -0.000184  0.995609  0.0  0.366563  -0.000102  0.978991  0.0  0.283705  0.347532  -0.000272  1.006663  0.0
H  H24  1  0.77345329  0.60592999  0.34788833  1  0.412328  7.4e-05  0.89726  0.0  0.385287  -8e-06  0.956321  0.0  0.398258  -4e-06  0.93761  0.0  0.278921  0.376332  -1.7e-05  0.969211  0.0
H  H25  1  0.22654326  0.89413428  0.84779707  1  0.412252  -7.3e-05  0.897388  0.0  0.385165  9e-06  0.956544  0.0  0.398157  4e-06  0.937792  0.0  0.278888  0.37621  1.7e-05  0.969432  0.0
H  H26  1  0.22656193  0.39410031  0.65212701  1  0.411924  -7.4e-05  0.897832  0.0  0.384912  9e-06  0.956847  0.0  0.397881  4e-06  0.938143  0.0  0.278795  0.375959  1.7e-05  0.969731  0.0
H  H27  1  0.77344856  0.10586058  0.15220568  1  0.412233  7.3e-05  0.897436  0.0  0.385169  -9e-06  0.956544  0.0  0.398147  -4e-06  0.937817  0.0  0.278898  0.376216  -1.7e-05  0.969428  0.0
C  C28  1  0.93722579  0.28361573  0.25558994  1  0.593659  0.006144  3.941737  0.01  0.552539  0.000662  4.245674  0.003  0.589014  0.000573  4.239914  0.002  0.212886  0.527628  0.00067  4.248626  0.004
C  C29  1  0.06275969  0.21634647  0.75557799  1  0.593163  -0.006154  3.941322  -0.01  0.552145  -0.000662  4.245162  -0.003  0.58862  -0.000573  4.239395  -0.002  0.212978  0.527231  -0.000672  4.248105  -0.004
C  C30  1  0.06275222  0.71636090  0.74441989  1  0.593381  -0.006151  3.942335  -0.01  0.552323  -0.00066  4.246161  -0.003  0.588799  -0.000571  4.240397  -0.002  0.21288  0.527415  -0.000669  4.249103  -0.004
C  C31  1  0.93728699  0.78370406  0.24444206  1  0.592827  0.006147  3.942442  0.01  0.551825  0.00066  4.246361  0.003  0.588306  0.000571  4.2406  0.002  0.212718  0.526911  0.000668  4.249301  0.004
C  C32  1  0.07761368  0.39005512  0.30268320  1  0.142398  0.003946  3.777609  0.003  0.131831  0.00198  4.045026  0.001  0.13745  0.002238  4.057963  0.002  0.212102  0.128037  0.001815  4.036586  0.001
C  C33  1  0.92236251  0.10991276  0.80268445  1  0.142391  -0.003964  3.778043  -0.003  0.131854  -0.001983  4.045424  -0.001  0.137495  -0.002243  4.058333  -0.002  0.212126  0.128066  -0.001819  4.036961  -0.001
C  C34  1  0.92236667  0.60992557  0.69731168  1  0.142346  -0.003941  3.777668  -0.003  0.131872  -0.001977  4.044977  -0.001  0.137495  -0.002239  4.057901  -0.002  0.212208  0.128082  -0.001812  4.036522  -0.001
C  C35  1  0.07769289  0.89013574  0.19730571  1  0.142397  0.003952  3.778267  0.003  0.131607  0.001981  4.045994  0.001  0.13724  0.002238  4.058933  0.002  0.21212  0.127826  0.001814  4.037517  0.001
C  C36  1  0.52699336  0.17166727  0.57070105  1  0.127524  0.011684  3.678636  0.012  0.098023  0.000656  3.9423  0.001  0.107381  0.002058  3.960897  0.003  0.050663  0.092088  -0.000468  3.930446  0.0
C  C37  1  0.47294256  0.32828797  0.07068191  1  0.127243  -0.011905  3.679277  -0.012  0.097628  -0.000657  3.942881  -0.001  0.106982  -0.002059  3.961463  -0.003  0.050664  0.091727  0.000467  3.931027  0.0
C  C38  1  0.47302873  0.82833263  0.42930327  1  0.127611  -0.011877  3.678687  -0.012  0.098041  -0.000655  3.942354  -0.001  0.107399  -0.002058  3.960939  -0.003  0.050803  0.092112  0.000468  3.930501  0.0
C  C39  1  0.52700914  0.67168363  0.92932084  1  0.127564  0.011751  3.678811  0.012  0.097933  0.000657  3.942418  0.001  0.107294  0.002059  3.961003  0.003  0.050762  0.091998  -0.000467  3.930553  0.0
C  C40  1  0.36072434  0.08932296  0.58977363  1  -0.140909  -0.019099  3.607186  -0.019  -0.15768  -0.005294  3.84494  -0.006  -0.165526  -0.005099  3.86451  -0.006  -0.063668  -0.152783  -0.005449  3.832222  -0.006
C  C41  1  0.63921925  0.41062139  0.08976541  1  -0.140532  0.01935  3.607591  0.019  -0.157324  0.005296  3.845409  0.006  -0.165168  0.0051  3.864992  0.006  -0.063548  -0.152422  0.00545  3.832666  0.006
C  C42  1  0.63929511  0.91067694  0.41022912  1  -0.140674  0.019308  3.60746  0.019  -0.157477  0.005292  3.845081  0.006  -0.165324  0.005097  3.864653  0.006  -0.06357  -0.15258  0.005447  3.832363  0.006
C  C43  1  0.36073585  0.58935324  0.91023419  1  -0.140897  -0.019187  3.607493  -0.019  -0.157504  -0.005293  3.845184  -0.006  -0.165349  -0.005098  3.864757  -0.006  -0.063501  -0.152605  -0.005449  3.832459  -0.006
C  C44  1  0.22739235  0.08062426  0.51257975  1  0.207079  0.013958  3.764339  0.015  0.21029  0.002975  4.010727  0.003  0.215751  0.003461  4.031686  0.004  0.109517  0.206729  0.002558  3.99687  0.003
C  C45  1  0.77258503  0.41936752  0.01256674  1  0.207132  -0.014166  3.764255  -0.015  0.210238  -0.002978  4.010758  -0.003  0.2157  -0.003462  4.031713  -0.004  0.109588  0.206677  -0.00256  3.996898  -0.003
C  C46  1  0.77261519  0.91938071  0.48742536  1  0.206747  -0.014141  3.764419  -0.015  0.210138  -0.002974  4.01061  -0.003  0.2156  -0.003461  4.031564  -0.004  0.109357  0.206574  -0.002557  3.996756  -0.003
C  C47  1  0.22739162  0.58061419  0.98743287  1  0.207161  0.014038  3.76367  0.015  0.210197  0.002975  4.010252  0.003  0.215661  0.00346  4.031201  0.004  0.109445  0.206636  0.002558  3.996397  0.003
C  C48  1  0.26669757  0.15134936  0.41787418  1  -0.159244  -0.018338  3.688946  -0.018  -0.182207  -0.004812  3.940205  -0.006  -0.191058  -0.004686  3.963006  -0.005  -0.073947  -0.17665  -0.004794  3.925297  -0.006
C  C49  1  0.73329794  0.34869415  0.91783401  1  -0.159431  0.01857  3.689346  0.018  -0.182302  0.004812  3.940572  0.006  -0.191174  0.004685  3.963385  0.005  -0.074096  -0.176749  0.004793  3.925669  0.006
C  C50  1  0.73331575  0.84865764  0.58213250  1  -0.159105  0.018561  3.689196  0.018  -0.18216  0.004811  3.940426  0.006  -0.19101  0.004684  3.963234  0.005  -0.073994  -0.176602  0.004793  3.925518  0.006
C  C51  1  0.26666365  0.65129061  0.08216638  1  -0.159362  -0.018422  3.689501  -0.018  -0.182203  -0.004809  3.940707  -0.006  -0.191072  -0.004682  3.963529  -0.005  -0.074174  -0.176653  -0.004792  3.925808  -0.006
C  C52  1  0.43536855  0.22977641  0.40454094  1  0.142724  0.01259  3.657987  0.013  0.115134  0.001409  3.910031  0.002  0.123994  0.002685  3.929697  0.004  0.048566  0.109482  0.000368  3.897359  0.001
C  C53  1  0.56464349  0.27027054  0.90447396  1  0.142433  -0.012802  3.657681  -0.013  0.114756  -0.001412  3.909787  -0.002  0.123605  -0.002688  3.929445  -0.004  0.048242  0.10911  -0.000371  3.897114  -0.001
C  C54  1  0.56465112  0.77022957  0.59546023  1  0.14257  -0.012787  3.657912  -0.013  0.114987  -0.001406  3.910031  -0.002  0.123862  -0.002683  3.929645  -0.004  0.048517  0.109339  -0.000366  3.897344  -0.001
C  C55  1  0.43532186  0.72970814  0.09551857  1  0.142139  0.012657  3.65792  0.013  0.114507  0.001408  3.910019  0.002  0.123371  0.002684  3.929659  0.004  0.048323  0.108859  0.000367  3.897344  0.001
N  N56  1  0.03997558  0.44187665  0.39558875  1  -0.245832  -0.060573  3.2619  -0.073  -0.221538  -0.043324  3.578588  -0.057  -0.242831  -0.0369  3.59696  -0.051  -0.247552  -0.209374  -0.046713  3.568867  -0.059
N  N57  1  0.96004272  0.05813274  0.89560388  1  -0.245946  0.06057  3.260521  0.073  -0.221839  0.043317  3.577293  0.057  -0.243088  0.03689  3.595654  0.051  -0.247497  -0.20965  0.04671  3.56758  0.059
N  N58  1  0.96001608  0.55810706  0.60440849  1  -0.245926  0.060569  3.262057  0.073  -0.221792  0.043324  3.578746  0.057  -0.243042  0.036898  3.597141  0.051  -0.247637  -0.20961  0.046713  3.569041  0.059
N  N59  1  0.03998645  0.94190058  0.10439494  1  -0.245887  -0.060587  3.260878  -0.073  -0.221643  -0.043325  3.577622  -0.057  -0.242925  -0.036894  3.596019  -0.051  -0.247416  -0.209455  -0.046723  3.567893  -0.059
N  N60  1  0.18558603  0.53117545  0.42149484  1  -0.066009  0.061274  3.262722  0.074  -0.049578  0.046585  3.605237  0.061  -0.064241  0.040708  3.621757  0.056  -0.126929  -0.041896  0.049416  3.596536  0.063
N  N61  1  0.81437455  0.96880246  0.92152436  1  -0.066331  -0.061215  3.262133  -0.074  -0.049695  -0.046546  3.604459  -0.061  -0.064366  -0.040675  3.620976  -0.056  -0.126769  -0.042013  -0.049389  3.595758  -0.063
N  N62  1  0.81441699  0.46880623  0.57850004  1  -0.065868  -0.061288  3.262955  -0.074  -0.049223  -0.046586  3.605345  -0.061  -0.063933  -0.040715  3.621863  -0.056  -0.126792  -0.04156  -0.049423  3.596625  -0.063
N  N63  1  0.18562466  0.03122178  0.07846344  1  -0.066086  0.061234  3.262582  0.074  -0.049498  0.046569  3.604959  0.061  -0.064141  0.040692  3.62147  0.056  -0.126732  -0.041794  0.04941  3.596224  0.063
N  N64  1  0.30948178  0.53286521  0.34720349  1  -0.072827  -0.012946  2.961973  -0.015  -0.047365  -0.005555  3.248609  -0.007  -0.04659  -0.004264  3.259807  -0.006  -0.070686  -0.047179  -0.006999  3.240917  -0.008
N  N65  1  0.69051903  0.96709461  0.84724934  1  -0.072425  0.01295  2.961622  0.015  -0.04703  0.005559  3.248276  0.007  -0.046246  0.004266  3.259472  0.006  -0.070768  -0.046852  0.007003  3.240586  0.008
N  N66  1  0.69051206  0.46711141  0.65278275  1  -0.07284  0.012956  2.962219  0.015  -0.047452  0.005556  3.248857  0.007  -0.046683  0.004264  3.26007  0.006  -0.070714  -0.047269  0.007001  3.241176  0.008
N  N67  1  0.30950508  0.03294480  0.15271723  1  -0.073181  -0.012946  2.962003  -0.015  -0.047838  -0.00556  3.248769  -0.007  -0.047068  -0.004266  3.259967  -0.006  -0.071109  -0.047656  -0.007008  3.241065  -0.008
N  N68  1  0.24419840  0.44475638  0.27149202  1  -0.224  0.004288  2.921302  0.006  -0.204459  0.002474  3.193977  0.004  -0.211264  0.001208  3.204506  0.002  -0.188314  -0.199405  0.003647  3.18635  0.005
N  N69  1  0.75582102  0.05520670  0.77150949  1  -0.224275  -0.004273  2.921025  -0.006  -0.204763  -0.002477  3.193715  -0.004  -0.211575  -0.001211  3.204233  -0.002  -0.188505  -0.199709  -0.003647  3.186093  -0.005
N  N70  1  0.75577856  0.55522127  0.72849421  1  -0.224021  -0.004283  2.921518  -0.006  -0.204515  -0.002474  3.19416  -0.004  -0.211321  -0.001207  3.204686  -0.002  -0.188472  -0.199462  -0.003647  3.186542  -0.005
N  N71  1  0.24424305  0.94484483  0.22846023  1  -0.223621  0.004273  2.921203  0.006  -0.203985  0.002473  3.193889  0.004  -0.2108  0.00121  3.204424  0.002  -0.188223  -0.198931  0.003645  3.186259  0.005
N  N72  1  0.56231958  0.24131864  0.48023921  1  -0.282698  -0.096785  3.325894  -0.118  -0.235643  -0.0607  3.62381  -0.08  -0.267349  -0.050456  3.646309  -0.07  -0.344492  -0.217246  -0.065737  3.610794  -0.084
N  N73  1  0.43766507  0.25868374  0.98018633  1  -0.282606  0.096952  3.326135  0.118  -0.23541  0.060698  3.623955  0.08  -0.267054  0.050459  3.646431  0.07  -0.344524  -0.216998  0.065738  3.610949  0.084
N  N74  1  0.43769698  0.75868025  0.51976589  1  -0.282601  0.096913  3.32575  0.118  -0.235529  0.060684  3.623586  0.08  -0.267189  0.050442  3.646094  0.07  -0.34438  -0.217112  0.065717  3.610575  0.084
N  N75  1  0.56230138  0.74128886  0.01981013  1  -0.282318  -0.096789  3.325973  -0.118  -0.235198  -0.060665  3.623843  -0.08  -0.266873  -0.050429  3.646351  -0.07  -0.344305  -0.216783  -0.065701  3.610848  -0.084
N  N76  1  0.05897030  0.99704397  0.53464666  1  -0.115663  -0.017603  2.9298  -0.021  -0.095846  -0.002768  3.213616  -0.003  -0.094278  -0.003538  3.217987  -0.005  -0.121303  -0.097652  -0.002089  3.211954  -0.002
N  N77  1  0.94101146  0.50291782  0.03465963  1  -0.115712  0.017697  2.929387  0.021  -0.095827  0.002769  3.213199  0.003  -0.094254  0.003537  3.217558  0.005  -0.121345  -0.097641  0.002089  3.211547  0.003
N  N78  1  0.94104932  0.00296708  0.46535845  1  -0.115656  0.017593  2.929713  0.021  -0.09592  0.002769  3.213499  0.003  -0.09435  0.003539  3.217866  0.005  -0.121205  -0.097729  0.002089  3.211841  0.002
N  N79  1  0.05893866  0.49705276  0.96533683  1  -0.115747  -0.017718  2.928831  -0.021  -0.096011  -0.002772  3.212775  -0.003  -0.094434  -0.00354  3.217131  -0.005  -0.12126  -0.097828  -0.002092  3.211123  -0.003
O  O80  1  0.79425704  0.25462985  0.31263442  1  -0.547856  -0.122677  2.032382  -0.158  -0.538902  -0.070574  2.319246  -0.102  -0.584558  -0.05193  2.315052  -0.079  -0.310695  -0.508439  -0.082809  2.321907  -0.115
O  O81  1  0.20572973  0.24534935  0.81262027  1  -0.547581  0.122708  2.032686  0.158  -0.538738  0.070602  2.319594  0.102  -0.584358  0.051957  2.31542  0.079  -0.310737  -0.508241  0.082838  2.322261  0.115
O  O82  1  0.20572634  0.74533665  0.68739271  1  -0.547708  0.122664  2.032973  0.158  -0.538841  0.070565  2.31977  0.102  -0.584463  0.051915  2.315597  0.079  -0.310643  -0.508342  0.082801  2.322417  0.115
O  O83  1  0.79432407  0.75472955  0.18742810  1  -0.547419  -0.122709  2.033355  -0.158  -0.538578  -0.070583  2.320249  -0.102  -0.584233  -0.051928  2.316076  -0.079  -0.310491  -0.508068  -0.082824  2.322914  -0.115
O  O84  1  0.96116260  0.22888353  0.16978695  1  -0.544979  -0.016803  1.93747  -0.021  -0.51702  -0.008502  2.161844  -0.011  -0.54593  -0.004256  2.155705  -0.006  -0.295823  -0.495724  -0.012929  2.164914  -0.017
O  O85  1  0.03892005  0.27109056  0.66977182  1  -0.544718  0.016833  1.937389  0.021  -0.516755  0.008508  2.161641  0.011  -0.545672  0.00426  2.155521  0.006  -0.295879  -0.495455  0.01294  2.164711  0.017
O  O86  1  0.03878727  0.77108604  0.83022288  1  -0.544896  0.01683  1.937467  0.021  -0.516974  0.008507  2.161842  0.011  -0.545904  0.004258  2.155708  0.006  -0.295882  -0.495669  0.012938  2.164909  0.017
O  O87  1  0.96116846  0.72896905  0.33023880  1  -0.544821  -0.016866  1.937782  -0.021  -0.516775  -0.008525  2.162012  -0.011  -0.5457  -0.004267  2.155884  -0.006  -0.295866  -0.495457  -0.012965  2.165076  -0.017
O  O88  1  0.68005978  0.52228398  0.35607957  1  -0.852162  0.000476  1.947369  0.0  -0.809127  0.000311  2.145214  0.0  -0.83173  0.000687  2.107388  0.0  -0.60924  -0.793067  -0.000238  2.170939  -0.001
O  O89  1  0.31996592  0.97776908  0.85595562  1  -0.852283  -0.000474  1.947607  0.0  -0.808931  -0.000311  2.145173  0.0  -0.831541  -0.000687  2.107445  0.0  -0.609228  -0.792852  0.000239  2.170916  0.001
O  O90  1  0.31996472  0.47774125  0.64392397  1  -0.851962  -0.000476  1.94768  0.0  -0.808926  -0.000311  2.145473  0.0  -0.83148  -0.000687  2.107661  0.0  -0.609139  -0.79284  0.000237  2.171208  0.001
O  O91  1  0.68002828  0.02222477  0.14404319  1  -0.852246  0.000473  1.947702  0.0  -0.808885  0.00031  2.145256  0.0  -0.831515  0.000686  2.107538  0.0  -0.609193  -0.792799  -0.00024  2.170996  -0.001
