# generated using pymatgen
data_Mn3H20C18(NO9)2
_symmetry_space_group_name_H-M   'P 1'
_cell_length_a   6.77250464
_cell_length_b   8.31658762
_cell_length_c   10.40824990
_cell_angle_alpha   83.52033144
_cell_angle_beta   85.25889328
_cell_angle_gamma   77.63207363
_symmetry_Int_Tables_number   1
_chemical_formula_structural   Mn3H20C18(NO9)2
_chemical_formula_sum   'Mn3 H20 C18 N2 O18'
_cell_volume   567.93858848
_cell_formula_units_Z   1
loop_
 _symmetry_equiv_pos_site_id
 _symmetry_equiv_pos_as_xyz
  1  'x, y, z'
loop_
 _atom_site_type_symbol
 _atom_site_label
 _atom_site_symmetry_multiplicity
 _atom_site_fract_x
 _atom_site_fract_y
 _atom_site_fract_z
 _atom_site_occupancy
 _atom_site_pbe_cm5_charge
 _atom_site_pbe_ddec_charge
 _atom_site_pbe_ddec_spin_density
 _atom_site_pbe_ddec_sum_bond_order
 _atom_site_pbe_magmom
Mn  Mn0  1  0.00205160  0.99818486  0.00093465  1  0.617742  1.116588  -4.744764  2.088885  -4.494
Mn  Mn1  1  0.35618542  0.88409484  0.68845344  1  0.641279  0.920779  1.332505  3.11568  1.291
Mn  Mn2  1  0.62248948  0.12322556  0.31204968  1  0.614051  1.054261  4.569554  2.32027  4.397
H  H3  1  0.76927449  0.73427990  0.98050247  1  0.301534  0.391603  -0.000712  0.939207  -0.002
H  H4  1  0.23829124  0.25336808  0.01356874  1  0.306597  0.397628  -0.000744  0.926415  -0.001
H  H5  1  0.65769914  0.90302078  0.91153236  1  0.297424  0.380494  -0.000378  0.960846  -0.001
H  H6  1  0.35306891  0.08145751  0.07977276  1  0.296405  0.385432  -0.001009  0.955958  -0.001
H  H7  1  0.31240939  0.71285872  0.91276266  1  0.300507  0.37975  0.000396  0.965136  0.001
H  H8  1  0.67414647  0.29017233  0.07491662  1  0.293815  0.379017  0.001426  0.972145  0.003
H  H9  1  0.53684358  0.64141877  0.85778405  1  0.306523  0.392767  -0.000754  0.936299  0.0
H  H10  1  0.45155180  0.37328978  0.12507187  1  0.299797  0.394571  0.001543  0.939308  0.003
H  H11  1  0.43320432  0.08849614  0.83916875  1  0.31829  0.398393  -6.5e-05  0.899803  0.0
H  H12  1  0.56589916  0.88198829  0.15571286  1  0.315899  0.40171  0.001266  0.903218  0.002
H  H13  1  0.63434134  0.06288876  0.73823599  1  0.313873  0.40603  -0.000582  0.919824  0.0
H  H14  1  0.35921297  0.91835307  0.25233186  1  0.304381  0.398593  0.000465  0.93717  0.001
H  H15  1  0.18575999  0.80446117  0.50335536  1  0.304597  0.303129  0.00012  0.964961  0.001
H  H16  1  0.82570725  0.19544147  0.50098286  1  0.30041  0.300587  7.7e-05  0.982672  0.001
H  H17  1  0.01743637  0.86474874  0.62089846  1  0.309896  0.294074  -0.000324  0.936818  0.0
H  H18  1  0.98713015  0.13608551  0.37732105  1  0.306254  0.298517  0.000335  0.952127  0.001
H  H19  1  0.33693156  0.51635909  0.48490159  1  0.115935  0.13006  -0.000409  1.000871  0.0
H  H20  1  0.68233263  0.48202820  0.52859583  1  0.111584  0.125727  -8.1e-05  1.007312  0.0
H  H21  1  0.93393718  0.68546764  0.80488435  1  0.111184  0.108803  -0.000483  1.037591  0.0
H  H22  1  0.06079907  0.32428738  0.19528506  1  0.110317  0.109161  -0.000326  1.029383  0.0
C  C23  1  0.00083635  0.13592464  0.72978929  1  0.240717  0.601058  -0.013851  4.14693  -0.01
C  C24  1  0.99940820  0.86973077  0.27621422  1  0.231512  0.599781  0.000885  4.18699  0.001
C  C25  1  0.07521004  0.29576441  0.70925522  1  -0.010532  -0.089706  -0.019679  3.923464  -0.016
C  C26  1  0.92881737  0.70887982  0.30000950  1  -0.014645  -0.095815  0.001518  3.924369  0.001
C  C27  1  0.20942993  0.33030340  0.60322425  1  -0.018786  -0.065131  -0.006483  4.023789  0.0
C  C28  1  0.80056335  0.67138282  0.40925422  1  -0.022389  -0.065656  -0.005958  4.023179  -0.003
C  C29  1  0.30435468  0.20564139  0.51571996  1  0.200102  0.536337  -0.038643  4.194876  -0.03
C  C30  1  0.69355304  0.79989731  0.49287837  1  0.20147  0.539026  -0.017729  4.172132  -0.011
C  C31  1  0.23938841  0.49257870  0.57033193  1  -0.07521  -0.1655  -0.026703  3.88906  -0.02
C  C32  1  0.77513105  0.50887108  0.44152879  1  -0.08431  -0.183759  -0.002134  3.922862  -0.001
C  C33  1  0.13650469  0.62016280  0.64046099  1  0.093876  0.277678  0.004429  4.021485  0.007
C  C34  1  0.87538762  0.38330271  0.36786252  1  0.095082  0.285511  0.002137  4.073054  0.002
C  C35  1  0.01145223  0.58576044  0.74847911  1  -0.081285  -0.165137  -0.03479  3.917729  -0.026
C  C36  1  0.98865205  0.42186442  0.25518347  1  -0.082039  -0.159186  -0.008564  3.928323  -0.006
C  C37  1  0.98050654  0.42554446  0.78365491  1  -0.018093  -0.063246  0.003571  3.996627  0.005
C  C38  1  0.01740362  0.58242423  0.22014210  1  -0.020345  -0.070618  -0.000138  3.982351  0.0
C  C39  1  0.84213212  0.40085910  0.89999789  1  0.226457  0.603227  -0.008648  4.136934  -0.009
C  C40  1  0.14985831  0.60486800  0.09902036  1  0.227551  0.606252  -0.007601  4.120258  -0.007
N  N41  1  0.15410032  0.78690605  0.60236438  1  -0.613255  -0.566179  -0.010859  3.45865  -0.016
N  N42  1  0.85906461  0.21890491  0.40354849  1  -0.607377  -0.615412  0.032077  3.419153  0.014
O  O43  1  0.10374094  0.00561232  0.79665184  1  -0.323729  -0.614208  -0.034051  2.47873  -0.021
O  O44  1  0.90443829  0.99060424  0.19921551  1  -0.323687  -0.634651  -0.01593  2.438353  -0.014
O  O45  1  0.83658679  0.13470711  0.68294515  1  -0.275353  -0.503246  -0.009469  2.228066  -0.009
O  O46  1  0.15732460  0.87842807  0.32929493  1  -0.288066  -0.521574  -0.001503  2.233368  -0.001
O  O47  1  0.83550496  0.25147655  0.94911550  1  -0.311256  -0.583467  -0.041481  2.289906  -0.025
O  O48  1  0.16984226  0.75179075  0.05005497  1  -0.318875  -0.591336  -0.042042  2.301678  -0.026
O  O49  1  0.73530929  0.52678934  0.94787670  1  -0.310299  -0.559527  -0.005804  2.209918  -0.006
O  O50  1  0.24103377  0.47773172  0.04603758  1  -0.311324  -0.560582  -0.007971  2.213667  -0.009
O  O51  1  0.31430479  0.05107797  0.55027548  1  -0.321579  -0.530699  0.043877  2.589902  0.042
O  O52  1  0.72344632  0.94731580  0.46572059  1  -0.320569  -0.582581  0.026388  2.406549  0.007
O  O53  1  0.37241221  0.25472083  0.40250377  1  -0.32144  -0.549409  0.027302  2.324535  0.008
O  O54  1  0.57620634  0.75636433  0.58837013  1  -0.303869  -0.488363  0.022838  2.417128  0.023
O  O55  1  0.74446073  0.85554803  0.98524495  1  -0.557481  -0.765966  -0.033618  2.088625  -0.02
O  O56  1  0.26828023  0.13314437  0.00515735  1  -0.554561  -0.769317  -0.034862  2.088517  -0.021
O  O57  1  0.40205334  0.70376468  0.83104124  1  -0.565812  -0.714365  0.016722  2.292151  0.007
O  O58  1  0.57906286  0.30023667  0.15358689  1  -0.584003  -0.772464  0.049136  2.172165  0.03
O  O59  1  0.52474349  0.01015173  0.78493198  1  -0.533088  -0.713208  0.002477  2.279031  -0.002
O  O60  1  0.47278650  0.96498706  0.20402538  1  -0.541804  -0.756235  0.038098  2.185573  0.02
