# generated using pymatgen
data_FeH8(C3N)4
_symmetry_space_group_name_H-M   'P 1'
_cell_length_a   13.52930650
_cell_length_b   13.52929266
_cell_length_c   13.33745204
_cell_angle_alpha   90.00085041
_cell_angle_beta   90.00238783
_cell_angle_gamma   99.56199847
_symmetry_Int_Tables_number   1
_chemical_formula_structural   FeH8(C3N)4
_chemical_formula_sum   'Fe4 H32 C48 N16'
_cell_volume   2407.39463116
_cell_formula_units_Z   4
loop_
 _symmetry_equiv_pos_site_id
 _symmetry_equiv_pos_as_xyz
  1  'x, y, z'
loop_
 _atom_site_type_symbol
 _atom_site_label
 _atom_site_symmetry_multiplicity
 _atom_site_fract_x
 _atom_site_fract_y
 _atom_site_fract_z
 _atom_site_occupancy
 _atom_site_pbe_bader_charge
 _atom_site_pbe_bader_spin_density
 _atom_site_pbe_cm5_charge
 _atom_site_pbe_ddec_charge
 _atom_site_pbe_ddec_spin_density
 _atom_site_pbe_ddec_sum_bond_order
 _atom_site_pbe_magmom
Fe  Fe0  1  0.97988999  0.97987406  0.49999922  1  1.207029  3.485463  0.732282  0.532483  3.766278  2.91265  3.397
Fe  Fe1  1  0.02011657  0.02011407  0.00000806  1  1.206787  3.484961  0.732399  0.532244  3.765648  2.913585  3.396
Fe  Fe2  1  0.98670829  0.01329208  0.24998321  1  1.206326  3.487755  0.733078  0.534503  3.770002  2.905186  3.399
Fe  Fe3  1  0.01328961  0.98670123  0.75002212  1  1.206477  3.487834  0.733035  0.534578  3.770111  2.904984  3.399
H  H4  1  0.21300513  0.94993645  0.53041574  1  0.066915  0.001663  0.117297  0.102575  0.000474  1.012197  0.001
H  H5  1  0.78703283  0.05006614  0.03038126  1  0.067172  0.001664  0.117226  0.102369  0.000475  1.012664  0.001
H  H6  1  0.94993755  0.21299890  0.46959114  1  0.066945  0.001662  0.117302  0.102526  0.000474  1.012274  0.001
H  H7  1  0.05007586  0.78703784  0.96961876  1  0.066942  0.001664  0.117224  0.102407  0.000474  1.012584  0.001
H  H8  1  0.23073840  0.04780672  0.22040847  1  0.077817  0.001824  0.117669  0.101192  0.000588  1.012239  0.001
H  H9  1  0.76924103  0.95223931  0.72037414  1  0.077718  0.001822  0.117669  0.101191  0.000587  1.012313  0.001
H  H10  1  0.04779013  0.23076162  0.77960066  1  0.077824  0.001824  0.117707  0.101226  0.000587  1.012406  0.001
H  H11  1  0.95218225  0.76926417  0.27960263  1  0.077734  0.001822  0.117651  0.101185  0.000587  1.012415  0.001
H  H12  1  0.38297895  0.93989400  0.52671002  1  0.036065  3.5e-05  0.096077  0.092096  -8e-05  1.019092  0.0
H  H13  1  0.61703179  0.06007304  0.02669427  1  0.036235  3.5e-05  0.096156  0.092276  -8.1e-05  1.019126  0.0
H  H14  1  0.93990934  0.38296452  0.47328635  1  0.035785  3.5e-05  0.096139  0.092286  -8e-05  1.019059  0.0
H  H15  1  0.06008314  0.61702228  0.97330278  1  0.036224  3.5e-05  0.09615  0.092228  -8.1e-05  1.019211  0.0
H  H16  1  0.56313582  0.93654192  0.52598338  1  0.040261  1.8e-05  0.096968  0.094065  -9.4e-05  1.016142  0.0
H  H17  1  0.43686363  0.06341956  0.02596635  1  0.040046  1.8e-05  0.09696  0.093971  -9.4e-05  1.016694  0.0
H  H18  1  0.93655722  0.56312562  0.47401343  1  0.039575  1.8e-05  0.09696  0.09398  -9.4e-05  1.016151  0.0
H  H19  1  0.06344579  0.43686217  0.97403849  1  0.040446  1.8e-05  0.096934  0.093989  -9.4e-05  1.016393  0.0
H  H20  1  0.58240666  0.04809635  0.22250373  1  0.043119  9e-06  0.09646  0.093542  -9.8e-05  1.018462  0.0
H  H21  1  0.41759682  0.95194035  0.72244910  1  0.045941  8e-06  0.096482  0.093506  -9.8e-05  1.018721  0.0
H  H22  1  0.04807812  0.58240097  0.77751525  1  0.045966  8e-06  0.096411  0.093454  -9.7e-05  1.018501  0.0
H  H23  1  0.95191958  0.41760158  0.27753133  1  0.045818  8e-06  0.096412  0.093521  -9.8e-05  1.018469  0.0
H  H24  1  0.40229883  0.05158432  0.22341257  1  0.043914  4.2e-05  0.095743  0.091317  -8.2e-05  1.020959  0.0
H  H25  1  0.59770318  0.94844549  0.72336445  1  0.043462  4.2e-05  0.095858  0.091413  -8.2e-05  1.0208  0.0
H  H26  1  0.05157198  0.40229337  0.77659923  1  0.043829  4.2e-05  0.095785  0.091381  -8.2e-05  1.020955  0.0
H  H27  1  0.94841294  0.59770633  0.27660891  1  0.044075  4.2e-05  0.095773  0.091471  -8.2e-05  1.020916  0.0
H  H28  1  0.73649379  0.94977177  0.53122939  1  0.080838  0.001707  0.117191  0.100955  0.000521  1.013809  0.001
H  H29  1  0.26351130  0.05025132  0.03118486  1  0.08107  0.001709  0.116937  0.100509  0.000522  1.014337  0.001
H  H30  1  0.94977346  0.73646140  0.46877564  1  0.080763  0.001709  0.117162  0.100858  0.000521  1.01399  0.001
H  H31  1  0.05026967  0.26348854  0.96881926  1  0.081398  0.001707  0.117014  0.100572  0.000522  1.01431  0.001
H  H32  1  0.75040983  0.03071755  0.21654561  1  0.091357  0.001559  0.116588  0.099747  0.000457  1.018596  0.001
H  H33  1  0.24959480  0.96928968  0.71651514  1  0.09116  0.001558  0.116519  0.09972  0.000456  1.018516  0.001
H  H34  1  0.03070173  0.75038525  0.78346634  1  0.091156  0.00156  0.116524  0.099609  0.000458  1.018567  0.001
H  H35  1  0.96927518  0.24958146  0.28347681  1  0.091037  0.001558  0.116559  0.099783  0.000456  1.018544  0.001
C  C36  1  0.20126398  0.97480522  0.45460436  1  0.413621  0.021574  0.012678  -0.043079  0.01096  3.95281  0.015
C  C37  1  0.79878087  0.02519876  0.95459307  1  0.413312  0.021556  0.01281  -0.042743  0.010952  3.952782  0.015
C  C38  1  0.97480632  0.20124969  0.54539315  1  0.414078  0.021567  0.012641  -0.042882  0.010957  3.952565  0.015
C  C39  1  0.02520018  0.79877383  0.04540883  1  0.41318  0.021564  0.012707  -0.042843  0.010955  3.952488  0.015
C  C40  1  0.27003731  0.99839526  0.37544389  1  0.044854  0.024349  -0.031548  -0.037952  0.011106  4.082247  0.015
C  C41  1  0.72997545  0.00162226  0.87544219  1  0.045533  0.024387  -0.031646  -0.038328  0.011126  4.081805  0.015
C  C42  1  0.99838991  0.27003144  0.62455395  1  0.045345  0.024347  -0.031637  -0.038283  0.011107  4.08239  0.015
C  C43  1  0.00160297  0.72997475  0.12455713  1  0.046025  0.024386  -0.031517  -0.038149  0.011125  4.081738  0.015
C  C44  1  0.21029928  0.02499945  0.29667807  1  0.405603  0.021791  0.012992  -0.040459  0.011128  3.952006  0.015
C  C45  1  0.78970310  0.97502336  0.79665692  1  0.40522  0.021753  0.013072  -0.040263  0.011109  3.951253  0.015
C  C46  1  0.02499314  0.21030054  0.70333060  1  0.405231  0.02179  0.013037  -0.040302  0.011126  3.951915  0.015
C  C47  1  0.97499141  0.78970838  0.20332706  1  0.405576  0.021757  0.01296  -0.040579  0.011114  3.951925  0.015
C  C48  1  0.37749296  0.99609544  0.37511316  1  -0.009039  0.005159  -0.011111  0.082134  0.002423  4.052639  0.002
C  C49  1  0.62250777  0.00391493  0.87508538  1  -0.008808  0.00516  -0.011009  0.082545  0.002424  4.051602  0.002
C  C50  1  0.99608828  0.37747876  0.62489062  1  -0.00982  0.005161  -0.011024  0.082402  0.002424  4.052523  0.002
C  C51  1  0.00390080  0.62250094  0.12490200  1  -0.009268  0.00516  -0.011058  0.082467  0.002424  4.051906  0.002
C  C52  1  0.42620571  0.96417332  0.45949134  1  -0.06143  0.00382  -0.09504  -0.129959  0.001785  4.000492  0.002
C  C53  1  0.57380038  0.03581921  0.95947556  1  -0.061904  0.003827  -0.095086  -0.130321  0.001788  4.000448  0.002
C  C54  1  0.96417525  0.42619202  0.54050991  1  -0.061372  0.003822  -0.095033  -0.130285  0.001785  4.000407  0.002
C  C55  1  0.03582044  0.57379640  0.04051959  1  -0.061647  0.003824  -0.09508  -0.130187  0.001787  4.000647  0.002
C  C56  1  0.52855634  0.96231198  0.45910578  1  -0.014172  0.004306  -0.094866  -0.128492  0.002007  3.998595  0.002
C  C57  1  0.47144824  0.03767955  0.95908512  1  -0.013059  0.004307  -0.094841  -0.128163  0.002008  3.999112  0.002
C  C58  1  0.96231287  0.52854393  0.54089603  1  -0.0131  0.004307  -0.095012  -0.128342  0.002008  3.998303  0.002
C  C59  1  0.03768884  0.47144474  0.04091173  1  -0.01346  0.004308  -0.094805  -0.12822  0.002009  3.998733  0.002
C  C60  1  0.58793839  0.99225771  0.37427392  1  0.00462  0.004478  -0.013293  0.077718  0.002109  4.055891  0.002
C  C61  1  0.41207055  0.00775474  0.87424364  1  0.005034  0.004482  -0.013315  0.077446  0.002112  4.055416  0.002
C  C62  1  0.99224955  0.58792846  0.62573339  1  0.004832  0.004478  -0.013221  0.077593  0.00211  4.055815  0.002
C  C63  1  0.00775012  0.41207294  0.12575296  1  0.004573  0.00448  -0.013316  0.077389  0.002111  4.055714  0.002
C  C64  1  0.53924254  0.02400172  0.28981763  1  -0.026085  0.004261  -0.09511  -0.128556  0.001992  3.999185  0.002
C  C65  1  0.46075653  0.97602340  0.78976961  1  -0.029526  0.004264  -0.09506  -0.12839  0.001993  3.998883  0.002
C  C66  1  0.02398619  0.53923595  0.71019497  1  -0.029447  0.004263  -0.095033  -0.128332  0.001993  3.999083  0.002
C  C67  1  0.97600764  0.46076129  0.21021644  1  -0.02922  0.004263  -0.094981  -0.128313  0.001992  3.999085  0.002
C  C68  1  0.43692198  0.02590124  0.29028042  1  -0.050041  0.003838  -0.094245  -0.12922  0.001786  4.001328  0.002
C  C69  1  0.56307936  0.97412278  0.79023429  1  -0.049924  0.003843  -0.094465  -0.129501  0.001789  4.000581  0.002
C  C70  1  0.02588760  0.43691187  0.70973087  1  -0.049621  0.003839  -0.094358  -0.129434  0.001787  4.001222  0.002
C  C71  1  0.97409945  0.56308056  0.20974932  1  -0.050345  0.003841  -0.094339  -0.129574  0.001788  4.001115  0.002
C  C72  1  0.75629527  0.96892603  0.45394906  1  0.406853  0.021309  0.010811  -0.046983  0.010919  3.962062  0.015
C  C73  1  0.24368139  0.03108155  0.95392802  1  0.407021  0.021296  0.011077  -0.046505  0.010912  3.962683  0.015
C  C74  1  0.96892458  0.75628493  0.54605331  1  0.406815  0.021313  0.010862  -0.046959  0.01092  3.962574  0.015
C  C75  1  0.03109079  0.24368019  0.04607726  1  0.406039  0.021299  0.010998  -0.046684  0.010911  3.962642  0.015
C  C76  1  0.69553522  0.99069280  0.37396345  1  -0.006772  0.025617  -0.031657  -0.033769  0.011619  4.081951  0.015
C  C77  1  0.30445647  0.00931904  0.87395055  1  -0.006582  0.025654  -0.031558  -0.033482  0.011636  4.081605  0.015
C  C78  1  0.99068704  0.69552562  0.62603858  1  -0.006338  0.025624  -0.031678  -0.03372  0.011623  4.0818  0.015
C  C79  1  0.00932084  0.30445644  0.12605208  1  -0.00634  0.025653  -0.031538  -0.03342  0.011636  4.081597  0.015
C  C80  1  0.76354403  0.01109414  0.29374713  1  0.398628  0.021383  0.010197  -0.048267  0.010876  3.96315  0.015
C  C81  1  0.23644617  0.98890594  0.79372993  1  0.398536  0.02134  0.010211  -0.048432  0.010858  3.963223  0.015
C  C82  1  0.01108410  0.76353817  0.70625939  1  0.398755  0.021388  0.010301  -0.048041  0.010878  3.962876  0.015
C  C83  1  0.98889827  0.23644605  0.20626821  1  0.398246  0.021345  0.010104  -0.048599  0.01086  3.963177  0.015
N  N84  1  0.10881739  0.98689066  0.42483002  1  -0.794913  0.086514  -0.290395  -0.174477  0.038077  3.641709  0.047
N  N85  1  0.89121109  0.01310798  0.92482455  1  -0.795046  0.086505  -0.290341  -0.174221  0.038075  3.641641  0.047
N  N86  1  0.98689702  0.10880955  0.57517049  1  -0.795038  0.086495  -0.290364  -0.174501  0.038078  3.641554  0.047
N  N87  1  0.01311009  0.89121155  0.07517660  1  -0.794916  0.086518  -0.290457  -0.174396  0.03808  3.641461  0.047
N  N88  1  0.11434362  0.01781283  0.32704544  1  -0.799897  0.086429  -0.290322  -0.172056  0.037956  3.630187  0.047
N  N89  1  0.88566613  0.98219833  0.82703504  1  -0.799897  0.086497  -0.290479  -0.172305  0.037981  3.630217  0.047
N  N90  1  0.01781294  0.11434423  0.67296036  1  -0.799965  0.086445  -0.290381  -0.172267  0.037962  3.630076  0.047
N  N91  1  0.98217846  0.88567277  0.17295557  1  -0.80042  0.086508  -0.290312  -0.171898  0.037977  3.63012  0.047
N  N92  1  0.85225585  0.97598263  0.42344674  1  -0.818841  0.085912  -0.293327  -0.17819  0.037715  3.637669  0.045
N  N93  1  0.14772384  0.02400579  0.92344343  1  -0.818945  0.085909  -0.293463  -0.1783  0.037715  3.638561  0.045
N  N94  1  0.97598416  0.85224367  0.57654952  1  -0.818748  0.085905  -0.293397  -0.1783  0.037715  3.637926  0.045
N  N95  1  0.02401314  0.14772116  0.07656572  1  -0.818976  0.085912  -0.293568  -0.178293  0.037718  3.638674  0.045
N  N96  1  0.85675520  0.00218430  0.32407634  1  -0.77999  0.085833  -0.29237  -0.177416  0.03782  3.638836  0.046
N  N97  1  0.14322963  0.99780425  0.82407197  1  -0.780297  0.085906  -0.292452  -0.177343  0.037843  3.639316  0.046
N  N98  1  0.00217807  0.85674583  0.67592729  1  -0.780172  0.085848  -0.292319  -0.177286  0.03782  3.638703  0.046
N  N99  1  0.99779912  0.14322527  0.17592980  1  -0.779377  0.085887  -0.292334  -0.177162  0.037837  3.639084  0.046
