# generated using pymatgen
data_DyAgH8C12(N2O5)2
_symmetry_space_group_name_H-M   'P 1'
_cell_length_a   6.74658051
_cell_length_b   9.26728251
_cell_length_c   15.02515915
_cell_angle_alpha   95.23409466
_cell_angle_beta   107.88189892
_cell_angle_gamma   103.79130327
_symmetry_Int_Tables_number   1
_chemical_formula_structural   DyAgH8C12(N2O5)2
_chemical_formula_sum   'Dy2 Ag2 H16 C24 N8 O20'
_cell_volume   854.40450240
_cell_formula_units_Z   2
loop_
 _symmetry_equiv_pos_site_id
 _symmetry_equiv_pos_as_xyz
  1  'x, y, z'
loop_
 _atom_site_type_symbol
 _atom_site_label
 _atom_site_symmetry_multiplicity
 _atom_site_fract_x
 _atom_site_fract_y
 _atom_site_fract_z
 _atom_site_occupancy
 _atom_site_hle17_bader_spin_density
 _atom_site_hle17_ddec_charge
 _atom_site_hle17_ddec_spin_density
 _atom_site_hle17_ddec_sum_bond_order
 _atom_site_hle17_magmom
 _atom_site_hse06_10hf_bader_spin_density
 _atom_site_hse06_10hf_ddec_charge
 _atom_site_hse06_10hf_ddec_spin_density
 _atom_site_hse06_10hf_ddec_sum_bond_order
 _atom_site_hse06_10hf_magmom
 _atom_site_hse06_bader_spin_density
 _atom_site_hse06_ddec_charge
 _atom_site_hse06_ddec_spin_density
 _atom_site_hse06_ddec_sum_bond_order
 _atom_site_hse06_magmom
 _atom_site_pbe_bader_spin_density
 _atom_site_pbe_cm5_charge
 _atom_site_pbe_ddec_charge
 _atom_site_pbe_ddec_spin_density
 _atom_site_pbe_ddec_sum_bond_order
 _atom_site_pbe_magmom
Dy  Dy0  1  0.09051666  0.51049443  0.27282772  1  0  2.212147  0  1.688134  0  0  2.058847  0  2.176208  0  0  2.107869  0  2.13305  0  0  1.510127  2.021245  0  2.209937  0
Dy  Dy1  1  0.90947973  0.48950537  0.72717157  1  0  2.212131  0  1.68811  0  0  2.058802  0  2.176233  0  0  2.107825  0  2.133069  0  0  1.510132  2.021209  0  2.209924  0
Ag  Ag2  1  0.40716566  0.17639389  0.19904024  1  0  0.616274  0  1.338222  0  0  0.485545  0  1.761212  0  0  0.513718  0  1.71315  0  0  0.488856  0.467512  0  1.793926  0
Ag  Ag3  1  0.59285132  0.82360323  0.80096118  1  0  0.616334  0  1.338267  0  0  0.485598  0  1.761225  0  0  0.51375  0  1.713185  0  0  0.488875  0.467563  0  1.793934  0
H  H4  1  0.67401801  0.72858406  0.16013939  1  0  0.10097  0  0.921171  0  0  0.108081  0  0.980961  0  0  0.112119  0  0.977264  0  0  0.127653  0.105092  0  0.983741  0
H  H5  1  0.32598762  0.27142235  0.83986218  1  0  0.101  0  0.921107  0  0  0.108091  0  0.980907  0  0  0.112139  0  0.977208  0  0  0.127668  0.1051  0  0.983692  0
H  H6  1  0.59170061  0.65753744  0.98283566  1  0  0.099722  0  0.90085  0  0  0.112878  0  0.953184  0  0  0.116226  0  0.950439  0  0  0.130668  0.110316  0  0.955556  0
H  H7  1  0.40831757  0.34246864  0.01716931  1  0  0.099697  0  0.900879  0  0  0.112825  0  0.953203  0  0  0.116174  0  0.950456  0  0  0.130633  0.110263  0  0.955575  0
H  H8  1  0.56801877  0.04661395  0.38426650  1  0  0.096196  0  0.922597  0  0  0.105309  0  0.982689  0  0  0.10869  0  0.979226  0  0  0.130601  0.102721  0  0.9855  0
H  H9  1  0.43196018  0.95338843  0.61573168  1  0  0.096085  0  0.922594  0  0  0.105222  0  0.982656  0  0  0.108575  0  0.979221  0  0  0.130573  0.102631  0  0.98547  0
H  H10  1  0.72733474  0.13772583  0.56225369  1  0  0.103358  0  0.919477  0  0  0.112373  0  0.976275  0  0  0.115605  0  0.973542  0  0  0.133806  0.109944  0  0.978486  0
H  H11  1  0.27266593  0.86226726  0.43774152  1  0  0.103354  0  0.919331  0  0  0.112337  0  0.976163  0  0  0.11557  0  0.97343  0  0  0.133781  0.109908  0  0.978377  0
H  H12  1  0.04871687  0.61317588  0.08155732  1  0  0.430112  0  0.877202  0  0  0.396214  0  0.944941  0  0  0.408599  0  0.926899  0  0  0.291533  0.387495  0  0.957614  0
H  H13  1  0.95126519  0.38683119  0.91843761  1  0  0.430114  0  0.877222  0  0  0.396222  0  0.944945  0  0  0.4086  0  0.926913  0  0  0.291546  0.387502  0  0.957618  0
H  H14  1  0.90121828  0.44496542  0.06837148  1  0  0.445099  0  0.848521  0  0  0.416294  0  0.908022  0  0  0.426778  0  0.892633  0  0  0.304618  0.408911  0  0.918838  0
H  H15  1  0.09877212  0.55503238  0.93162362  1  0  0.445022  0  0.848648  0  0  0.416177  0  0.9082  0  0  0.426661  0  0.892811  0  0  0.304601  0.408796  0  0.919014  0
H  H16  1  0.41283485  0.76139718  0.29215409  1  0  0.436462  0  0.828323  0  0  0.417606  0  0.882881  0  0  0.42698  0  0.86914  0  0  0.32037  0.410966  0  0.890942  0
H  H17  1  0.58715861  0.23861005  0.70785749  1  0  0.436477  0  0.828187  0  0  0.417604  0  0.882871  0  0  0.42698  0  0.869127  0  0  0.320372  0.410962  0  0.89086  0
H  H18  1  0.23315865  0.82082770  0.22194150  1  0  0.446102  0  0.855327  0  0  0.414251  0  0.918796  0  0  0.426473  0  0.90123  0  0  0.296807  0.405646  0  0.931138  0
H  H19  1  0.76684880  0.17917991  0.77805837  1  0  0.446054  0  0.855379  0  0  0.414149  0  0.918923  0  0  0.42637  0  0.90136  0  0  0.296797  0.405549  0  0.93125  0
C  C20  1  0.69899019  0.81487242  0.11663592  1  0  0.107049  0  3.653573  0  0  0.079739  0  3.924877  0  0  0.084051  0  3.936776  0  0  0.067514  0.076846  0  3.917004  0
C  C21  1  0.30102192  0.18513712  0.88336998  1  0  0.107017  0  3.653684  0  0  0.0797  0  3.924973  0  0  0.083994  0  3.936893  0  0  0.067503  0.076806  0  3.917101  0
C  C22  1  0.65453697  0.77493072  0.01891826  1  0  0.100064  0  3.646973  0  0  0.064457  0  3.913846  0  0  0.068344  0  3.927964  0  0  0.061408  0.061509  0  3.904648  0
C  C23  1  0.34548695  0.22507544  0.98108338  1  0  0.099978  0  3.646747  0  0  0.064473  0  3.913498  0  0  0.068356  0  3.927625  0  0  0.061362  0.061529  0  3.904292  0
C  C24  1  0.76471282  0.02614186  0.00875269  1  0  0.022319  0  3.696828  0  0  0.017753  0  3.945408  0  0  0.014326  0  3.966958  0  0  0.111543  0.019563  0  3.931476  0
C  C25  1  0.23531001  0.97385191  0.99124579  1  0  0.022115  0  3.696785  0  0  0.01753  0  3.945297  0  0  0.014091  0  3.966857  0  0  0.111429  0.019337  0  3.931372  0
C  C26  1  0.80976181  0.06418235  0.10690712  1  0  0.082135  0  3.686219  0  0  0.082065  0  3.940543  0  0  0.083019  0  3.954642  0  0  0.133181  0.080998  0  3.931749  0
C  C27  1  0.19026990  0.93583516  0.89309369  1  0  0.082268  0  3.686071  0  0  0.082218  0  3.940316  0  0  0.083188  0  3.954371  0  0  0.133266  0.081149  0  3.931539  0
C  C28  1  0.90511198  0.22440951  0.15987725  1  0  0.65627  0  3.902316  0  0  0.602227  0  4.195528  0  0  0.63844  0  4.183776  0  0  0.204915  0.577553  0  4.202808  0
C  C29  1  0.09491266  0.77559089  0.84012532  1  0  0.655885  0  3.902609  0  0  0.601899  0  4.195679  0  0  0.638135  0  4.183896  0  0  0.204817  0.577207  0  4.203003  0
C  C30  1  0.79989188  0.14196938  0.94624510  1  0  0.637919  0  3.907898  0  0  0.576266  0  4.21509  0  0  0.60915  0  4.211446  0  0  0.214949  0.554062  0  4.216859  0
C  C31  1  0.20012523  0.85803448  0.05375890  1  0  0.637958  0  3.907952  0  0  0.57638  0  4.215041  0  0  0.609265  0  4.211402  0  0  0.214782  0.554177  0  4.216813  0
C  C32  1  0.61645650  0.16623648  0.41459649  1  0  0.113833  0  3.606925  0  0  0.08313  0  3.860539  0  0  0.088082  0  3.87304  0  0  0.076955  0.079499  0  3.852771  0
C  C33  1  0.38352764  0.83375536  0.58540540  1  0  0.113872  0  3.606816  0  0  0.083146  0  3.860378  0  0  0.088127  0  3.872872  0  0  0.076926  0.079509  0  3.852624  0
C  C34  1  0.70289728  0.21584748  0.51265529  1  0  0.131647  0  3.637987  0  0  0.101224  0  3.897035  0  0  0.105677  0  3.910343  0  0  0.077833  0.097861  0  3.888499  0
C  C35  1  0.29708741  0.78413665  0.48734069  1  0  0.131763  0  3.638156  0  0  0.101358  0  3.897181  0  0  0.105815  0  3.910476  0  0  0.077992  0.097995  0  3.888644  0
C  C36  1  0.73415355  0.46121524  0.48954974  1  0  0.041187  0  3.718023  0  0  0.038547  0  3.96875  0  0  0.036481  0  3.987399  0  0  0.121102  0.039409  0  3.956919  0
C  C37  1  0.26582976  0.53877766  0.51045415  1  0  0.041314  0  3.717957  0  0  0.038597  0  3.968817  0  0  0.036527  0  3.987472  0  0  0.121137  0.039471  0  3.95698  0
C  C38  1  0.65211838  0.41168627  0.39089981  1  0  0.061294  0  3.651796  0  0  0.056465  0  3.89766  0  0  0.057514  0  3.912491  0  0  0.141725  0.055223  0  3.888401  0
C  C39  1  0.34785798  0.58830713  0.60909599  1  0  0.061342  0  3.651645  0  0  0.056395  0  3.897611  0  0  0.057449  0  3.912453  0  0  0.141587  0.055145  0  3.888355  0
C  C40  1  0.63451362  0.52114281  0.32160154  1  0  0.736381  0  3.868193  0  0  0.681045  0  4.174958  0  0  0.720198  0  4.155967  0  0  0.247926  0.653924  0  4.187293  0
C  C41  1  0.36547842  0.47885694  0.67839992  1  0  0.736024  0  3.868054  0  0  0.680839  0  4.174661  0  0  0.719957  0  4.155723  0  0  0.247867  0.65372  0  4.186998  0
C  C42  1  0.79851167  0.62716995  0.53363815  1  0  0.623767  0  3.973626  0  0  0.573762  0  4.285208  0  0  0.60557  0  4.280104  0  0  0.197305  0.552393  0  4.287671  0
C  C43  1  0.20147252  0.37283139  0.46635654  1  0  0.623746  0  3.97373  0  0  0.573787  0  4.285269  0  0  0.605598  0  4.280157  0  0  0.197286  0.552411  0  4.287731  0
N  N44  1  0.77274222  0.95903037  0.16044151  1  0  -0.250654  0  2.978666  0  0  -0.231239  0  3.245583  0  0  -0.235864  0  3.254027  0  0  -0.289918  -0.228208  0  3.240316  0
N  N45  1  0.22727774  0.04098169  0.83955750  1  0  -0.250571  0  2.978582  0  0  -0.231195  0  3.245506  0  0  -0.235825  0  3.253954  0  0  -0.289951  -0.228167  0  3.240242  0
N  N46  1  0.68460705  0.88026448  0.96565306  1  0  -0.255639  0  3.261511  0  0  -0.198273  0  3.54168  0  0  -0.209164  0  3.557008  0  0  -0.307357  -0.190724  0  3.53158  0
N  N47  1  0.31541786  0.11973239  0.03435124  1  0  -0.255474  0  3.260945  0  0  -0.1981  0  3.541029  0  0  -0.208992  0  3.556362  0  0  -0.307221  -0.190547  0  3.530922  0
N  N48  1  0.58918240  0.26319679  0.35365657  1  0  -0.238454  0  3.23196  0  0  -0.17671  0  3.516376  0  0  -0.18704  0  3.525958  0  0  -0.297835  -0.169982  0  3.510349  0
N  N49  1  0.41079322  0.73680101  0.64634284  1  0  -0.238482  0  3.231882  0  0  -0.176676  0  3.516257  0  0  -0.186992  0  3.525814  0  0  -0.297793  -0.169945  0  3.510233  0
N  N50  1  0.75772060  0.36261188  0.54969986  1  0  -0.359894  0  3.240089  0  0  -0.315902  0  3.510038  0  0  -0.324657  0  3.527138  0  0  -0.344694  -0.309831  0  3.49881  0
N  N51  1  0.24226761  0.63738896  0.45030392  1  0  -0.359915  0  3.24049  0  0  -0.315896  0  3.510455  0  0  -0.324653  0  3.527559  0  0  -0.344709  -0.309822  0  3.499223  0
O  O52  1  0.10773640  0.28653803  0.18169578  1  0  -0.688935  0  2.11809  0  0  -0.630998  0  2.394354  0  0  -0.659  0  2.38098  0  0  -0.371768  -0.611221  0  2.402783  0
O  O53  1  0.89227114  0.71347703  0.81829205  1  0  -0.688782  0  2.118137  0  0  -0.6309  0  2.394432  0  0  -0.658885  0  2.380991  0  0  -0.371754  -0.611119  0  2.40287  0
O  O54  1  0.78439340  0.29425182  0.18442163  1  0  -0.681415  0  2.075737  0  0  -0.6301  0  2.347293  0  0  -0.657691  0  2.335978  0  0  -0.364262  -0.610642  0  2.35438  0
O  O55  1  0.21563929  0.70574623  0.81557967  1  0  -0.6813  0  2.075936  0  0  -0.629982  0  2.347424  0  0  -0.657583  0  2.336107  0  0  -0.364203  -0.610478  0  2.354418  0
O  O56  1  0.83558162  0.28012541  0.97979156  1  0  -0.628587  0  2.026111  0  0  -0.561729  0  2.244026  0  0  -0.589163  0  2.23672  0  0  -0.299205  -0.542678  0  2.248582  0
O  O57  1  0.16438856  0.71986947  0.02019898  1  0  -0.628645  0  2.026037  0  0  -0.561721  0  2.243831  0  0  -0.589177  0  2.236538  0  0  -0.299111  -0.542673  0  2.248393  0
O  O58  1  0.79288151  0.09224085  0.86350052  1  0  -0.623206  0  2.099106  0  0  -0.554356  0  2.348791  0  0  -0.582966  0  2.339313  0  0  -0.305582  -0.534534  0  2.354837  0
O  O59  1  0.20714287  0.90775288  0.13649813  1  0  -0.622966  0  2.099152  0  0  -0.554294  0  2.348935  0  0  -0.582893  0  2.339442  0  0  -0.305414  -0.53447  0  2.35499  0
O  O60  1  0.45502566  0.55084120  0.28905570  1  0  -0.733126  0  2.07144  0  0  -0.681398  0  2.331807  0  0  -0.708074  0  2.316201  0  0  -0.385482  -0.661902  0  2.341821  0
O  O61  1  0.54497334  0.44916079  0.71094474  1  0  -0.733041  0  2.07142  0  0  -0.681318  0  2.33166  0  0  -0.707985  0  2.316075  0  0  -0.385434  -0.661823  0  2.341667  0
O  O62  1  0.79667345  0.56845797  0.29588776  1  0  -0.705657  0  2.018234  0  0  -0.654978  0  2.274177  0  0  -0.682738  0  2.261037  0  0  -0.389822  -0.634543  0  2.282365  0
O  O63  1  0.20332104  0.43152776  0.70411947  1  0  -0.70556  0  2.018085  0  0  -0.654912  0  2.273931  0  0  -0.682664  0  2.260817  0  0  -0.389808  -0.634481  0  2.282113  0
O  O64  1  0.76779507  0.71990525  0.47984668  1  0  -0.548121  0  1.86549  0  0  -0.51054  0  2.070541  0  0  -0.533534  0  2.065932  0  0  -0.308094  -0.494303  0  2.073088  0
O  O65  1  0.23219512  0.28009129  0.52015096  1  0  -0.548171  0  1.865422  0  0  -0.510583  0  2.070432  0  0  -0.533582  0  2.06582  0  0  -0.308071  -0.494344  0  2.072977  0
O  O66  1  0.87941820  0.65408964  0.62510807  1  0  -0.748033  0  2.05266  0  0  -0.701958  0  2.313992  0  0  -0.728122  0  2.305793  0  0  -0.437254  -0.6833  0  2.318853  0
O  O67  1  0.12057530  0.34589994  0.37489070  1  0  -0.748054  0  2.052821  0  0  -0.701981  0  2.31412  0  0  -0.728145  0  2.305922  0  0  -0.437276  -0.683321  0  2.318985  0
O  O68  1  0.96374941  0.54253919  0.11262288  1  0  -0.936577  0  1.853495  0  0  -0.883487  0  2.047568  0  0  -0.903478  0  2.014441  0  0  -0.65663  -0.868936  0  2.070491  0
O  O69  1  0.03623263  0.45746176  0.88738021  1  0  -0.936466  0  1.853577  0  0  -0.883357  0  2.047769  0  0  -0.903348  0  2.014644  0  0  -0.656605  -0.868812  0  2.070685  0
O  O70  1  0.26639211  0.77196508  0.28067149  1  0  -0.902144  0  1.818657  0  0  -0.852506  0  2.007375  0  0  -0.872504  0  1.975724  0  0  -0.633552  -0.837993  0  2.027675  0
O  O71  1  0.73359469  0.22803708  0.71932890  1  0  -0.901986  0  1.818526  0  0  -0.852338  0  2.007417  0  0  -0.872333  0  1.97576  0  0  -0.633522  -0.837828  0  2.027641  0
