# generated using pymatgen
data_CdH25C36N7O5
_symmetry_space_group_name_H-M   'P 1'
_cell_length_a   12.27380250
_cell_length_b   12.45368304
_cell_length_c   15.22151124
_cell_angle_alpha   88.11113427
_cell_angle_beta   77.19095588
_cell_angle_gamma   78.59374885
_symmetry_Int_Tables_number   1
_chemical_formula_structural   CdH25C36N7O5
_chemical_formula_sum   'Cd2 H50 C72 N14 O10'
_cell_volume   2223.81568119
_cell_formula_units_Z   2
loop_
 _symmetry_equiv_pos_site_id
 _symmetry_equiv_pos_as_xyz
  1  'x, y, z'
loop_
 _atom_site_type_symbol
 _atom_site_label
 _atom_site_symmetry_multiplicity
 _atom_site_fract_x
 _atom_site_fract_y
 _atom_site_fract_z
 _atom_site_occupancy
 _atom_site_pbe_bader_charge
 _atom_site_pbe_bader_spin_density
 _atom_site_pbe_cm5_charge
 _atom_site_pbe_ddec_charge
 _atom_site_pbe_ddec_spin_density
 _atom_site_pbe_ddec_sum_bond_order
 _atom_site_pbe_magmom
Cd  Cd0  1  0.83209430  0.53801599  0.53737568  1  1.28557  0  0.781739  0.90369  0  2.196588  0
Cd  Cd1  1  0.16790509  0.46198522  0.46262535  1  1.285513  0  0.781754  0.903723  0  2.196576  0
H  H2  1  0.92127881  0.97125626  0.88053730  1  0.09285  0  0.108764  0.111045  0  1.007657  0
H  H3  1  0.07872094  0.02874333  0.11946173  1  0.092842  0  0.108761  0.111053  0  1.007642  0
H  H4  1  0.92245914  0.82653801  0.77386830  1  0.122512  0  0.109649  0.120541  0  1.045112  0
H  H5  1  0.07753811  0.17346156  0.22613182  1  0.122513  0  0.109638  0.120562  0  1.045098  0
H  H6  1  0.73333404  0.66019398  0.99171680  1  0.063106  0  0.106931  0.112737  0  1.011087  0
H  H7  1  0.26666554  0.33980641  0.00828422  1  0.063117  0  0.106893  0.112692  0  1.011117  0
H  H8  1  0.74065982  0.80060425  0.09788262  1  0.023541  0  0.101953  0.09696  0  1.021309  0
H  H9  1  0.25934142  0.19939616  0.90211810  1  0.023551  0  0.101969  0.096964  0  1.021308  0
H  H10  1  0.88480091  0.72175982  0.68354856  1  0.158541  0  0.143587  0.119118  0  1.004468  0
H  H11  1  0.11519283  0.27824054  0.31645217  1  0.158537  0  0.14357  0.119055  0  1.004494  0
H  H12  1  0.77664735  0.42252005  0.74253746  1  0.137968  0  0.125814  0.129398  0  0.99147  0
H  H13  1  0.22335392  0.57747623  0.25746531  1  0.137983  0  0.125819  0.129398  0  0.991467  0
H  H14  1  0.75651298  0.52932993  0.90437573  1  0.113033  0  0.121229  0.119514  0  1.033844  0
H  H15  1  0.24348961  0.47066800  0.09562678  1  0.113055  0  0.121212  0.119506  0  1.033805  0
H  H16  1  0.89799622  0.25430922  0.95530150  1  0.091655  0  0.103501  0.109816  0  1.01095  0
H  H17  1  0.10200401  0.74569200  0.04470004  1  0.091628  0  0.103489  0.109797  0  1.010945  0
H  H18  1  0.91799544  0.45029400  0.94378468  1  0.05708  0  0.096651  0.089306  0  1.039801  0
H  H19  1  0.08200716  0.54970396  0.05621520  1  0.057108  0  0.096645  0.089319  0  1.039775  0
H  H20  1  0.88432339  0.56267241  0.08286283  1  0.079529  0  0.099138  0.099013  0  1.046364  0
H  H21  1  0.11567852  0.43732884  0.91713645  1  0.079579  0  0.099117  0.098979  0  1.046362  0
H  H22  1  0.81156256  0.28376087  0.24465512  1  0.136298  0  0.112044  0.126837  0  1.03249  0
H  H23  1  0.18844034  0.71623955  0.75534531  1  0.136242  0  0.112049  0.126838  0  1.03249  0
H  H24  1  0.90309869  0.38038766  0.34004315  1  0.200961  0  0.133971  0.10365  0  1.057489  0
H  H25  1  0.09689939  0.61961191  0.65995683  1  0.200985  0  0.133958  0.103601  0  1.057533  0
H  H26  1  0.74762876  0.71441179  0.37937678  1  0.145179  0  0.121047  0.119008  0  1.006916  0
H  H27  1  0.25237649  0.28558951  0.62061994  1  0.145162  0  0.121084  0.119031  0  1.006904  0
H  H28  1  0.73949509  0.64904024  0.20735216  1  0.092836  0  0.118882  0.115054  0  1.024217  0
H  H29  1  0.26051116  0.35096024  0.79264572  1  0.092815  0  0.118838  0.114995  0  1.024217  0
H  H30  1  0.50811220  0.86210453  0.63370321  1  0.087033  0  0.101037  0.108154  0  0.996925  0
H  H31  1  0.49188570  0.13789583  0.36630007  1  0.087061  0  0.101037  0.108141  0  0.996916  0
H  H32  1  0.30251552  0.95092740  0.65642417  1  0.038059  0  0.09511  0.090854  0  1.033829  0
H  H33  1  0.69748172  0.04907213  0.34357924  1  0.038083  0  0.095115  0.090862  0  1.033853  0
H  H34  1  0.23797199  0.66938264  0.53407715  1  0.103572  0  0.101246  0.106597  0  1.049064  0
H  H35  1  0.76202825  0.33061861  0.46592110  1  0.103594  0  0.101243  0.106597  0  1.049056  0
H  H36  1  0.43930243  0.57891259  0.51725091  1  0.148927  0  0.105261  0.119501  0  1.025977  0
H  H37  1  0.56069896  0.42109115  0.48274513  1  0.148569  0  0.105291  0.11951  0  1.025873  0
H  H38  1  0.84434280  0.17248908  0.64556315  1  0.079347  0  0.106039  0.113542  0  0.997253  0
H  H39  1  0.15565629  0.82750966  0.35443798  1  0.079376  0  0.106058  0.113554  0  0.997253  0
H  H40  1  0.92131634  0.97575691  0.67605436  1  0.077486  0  0.102466  0.102472  0  1.011013  0
H  H41  1  0.07868006  0.02424263  0.32394788  1  0.077405  0  0.102464  0.102502  0  1.010984  0
H  H42  1  0.24809298  0.00628150  0.51240345  1  0.08538  0  0.104683  0.107017  0  1.005133  0
H  H43  1  0.75190247  0.99371478  0.48759508  1  0.085153  0  0.104662  0.107033  0  1.005077  0
H  H44  1  0.17150445  0.19971708  0.48184909  1  0.151148  0  0.104984  0.125733  0  1.045065  0
H  H45  1  0.82849351  0.80027923  0.51814901  1  0.151068  0  0.104947  0.125697  0  1.045056  0
H  H46  1  0.89998654  0.89868061  0.25383365  1  0.114495  0  0.115728  0.138064  0  1.014995  0
H  H47  1  0.10001286  0.10132061  0.74616672  1  0.114444  0  0.115712  0.13805  0  1.015029  0
H  H48  1  0.89558005  0.81036297  0.16479816  1  0.091458  0  0.110706  0.124624  0  1.006083  0
H  H49  1  0.10441935  0.18963825  0.83520221  1  0.091442  0  0.110706  0.124604  0  1.006077  0
H  H50  1  0.76652969  0.87273856  0.24063251  1  0.053815  0  0.109869  0.124479  0  0.977774  0
H  H51  1  0.23346870  0.12726347  0.75936737  1  0.053804  0  0.109877  0.124485  0  0.977774  0
C  C52  1  0.84046212  0.98360455  0.05574403  1  0.940252  0  0.223942  0.211038  0  4.022319  0
C  C53  1  0.15953996  0.01639588  0.94425524  1  0.940253  0  0.223919  0.210986  0  4.022338  0
C  C54  1  0.84794435  0.14058111  0.10260455  1  0.954485  0  0.210132  0.259321  0  4.093811  0
C  C55  1  0.15205857  0.85941932  0.89739523  1  0.954488  0  0.210078  0.259213  0  4.093902  0
C  C56  1  0.83481021  0.89516290  0.99719531  1  0.056375  0  -0.007984  0.016543  0  4.033797  0
C  C57  1  0.16519002  0.10483834  0.00280426  1  0.05639  0  -0.007958  0.016557  0  4.033896  0
C  C58  1  0.88144389  0.90201165  0.90455170  1  -0.018613  0  -0.075258  -0.073489  0  3.949803  0
C  C59  1  0.11855385  0.09798957  0.09544765  1  -0.018578  0  -0.075266  -0.073524  0  3.949798  0
C  C60  1  0.87980378  0.82150824  0.84431873  1  0.017487  0  -0.08754  -0.169158  0  3.962493  0
C  C61  1  0.12019228  0.17849296  0.15568157  1  0.017513  0  -0.087507  -0.169134  0  3.962418  0
C  C62  1  0.82692970  0.73315862  0.87520193  1  0.223588  0  0.102463  0.185475  0  3.9981  0
C  C63  1  0.17306838  0.26684096  0.12479805  1  0.223493  0  0.102453  0.18548  0  3.998145  0
C  C64  1  0.77740012  0.72656945  0.96692340  1  0.02282  0  -0.095155  -0.17117  0  3.996764  0
C  C65  1  0.22259879  0.27343011  0.03307775  1  0.022834  0  -0.095141  -0.171202  0  3.996836  0
C  C66  1  0.78224230  0.80625625  0.02726544  1  -0.002539  0  -0.090067  -0.116429  0  4.015525  0
C  C67  1  0.21775728  0.19374415  0.97273491  1  -0.002577  0  -0.090068  -0.116377  0  4.015545  0
C  C68  1  0.85237292  0.65517345  0.72143050  1  0.958512  0  0.154332  0.115138  0  3.856801  0
C  C69  1  0.14762433  0.34482610  0.27857094  1  0.958426  0  0.154366  0.115279  0  3.856819  0
C  C70  1  0.79555195  0.50115895  0.75566472  1  0.441301  0  0.004621  -0.020018  0  3.996777  0
C  C71  1  0.20445064  0.49883900  0.24433647  1  0.441227  0  0.004578  -0.020014  0  3.996844  0
C  C72  1  0.78570451  0.55326742  0.83567406  1  0.23899  0  -0.009379  -0.125372  0  3.949574  0
C  C73  1  0.21429725  0.44673051  0.16432794  1  0.239036  0  -0.009328  -0.125379  0  3.949576  0
C  C74  1  0.88396444  0.30459645  0.01547941  1  0.054044  0  -0.089276  -0.123006  0  3.960394  0
C  C75  1  0.11603729  0.69540562  0.98451988  1  0.054292  0  -0.089275  -0.123023  0  3.960495  0
C  C76  1  0.89377315  0.41404470  0.00952919  1  -0.086418  0  -0.097012  -0.074887  0  4.061664  0
C  C77  1  0.10622892  0.58595573  0.99047007  1  -0.086562  0  -0.097013  -0.074899  0  4.06172  0
C  C78  1  0.87483348  0.47739622  0.08728041  1  -0.030218  0  -0.100166  -0.185493  0  4.006864  0
C  C79  1  0.12516926  0.52260503  0.91271938  1  -0.030564  0  -0.100133  -0.185468  0  4.006864  0
C  C80  1  0.84597714  0.42959150  0.17153065  1  0.309819  0  0.09402  0.172046  0  4.020806  0
C  C81  1  0.15402660  0.57040894  0.82846898  1  0.310047  0  0.094004  0.172059  0  4.020779  0
C  C82  1  0.83583312  0.31968682  0.17876295  1  -0.030624  0  -0.077123  -0.181944  0  3.879924  0
C  C83  1  0.16417062  0.68031362  0.82123668  1  -0.030615  0  -0.077156  -0.18199  0  3.879924  0
C  C84  1  0.85545787  0.25655521  0.10014085  1  -0.030578  0  0.002119  0.0556  0  3.997172  0
C  C85  1  0.14454505  0.74344523  0.89985827  1  -0.030548  0  0.002189  0.055717  0  3.997149  0
C  C86  1  0.86134947  0.46342345  0.32835844  1  0.958583  0  0.150214  0.113986  0  3.8737  0
C  C87  1  0.13865112  0.53657614  0.67164176  1  0.958512  0  0.150291  0.114067  0  3.873661  0
C  C88  1  0.78082778  0.63628680  0.34437235  1  0.428544  0  0.001409  -0.020659  0  4.002625  0
C  C89  1  0.21917514  0.36371364  0.65562611  1  0.42816  0  0.00132  -0.020866  0  4.002594  0
C  C90  1  0.77671102  0.60557010  0.25967968  1  0.267099  0  -0.008766  -0.12398  0  3.949079  0
C  C91  1  0.22329255  0.39443116  0.74031931  1  0.267523  0  -0.008698  -0.123763  0  3.948853  0
C  C92  1  0.13151457  0.86120136  0.61505940  1  0.927813  0  0.16331  0.352742  0  3.9873  0
C  C93  1  0.86848387  0.13879658  0.38493989  1  0.927847  0  0.163313  0.352692  0  3.987268  0
C  C94  1  0.60947586  0.65975883  0.56454636  1  1.523486  0  0.182139  0.547885  0  4.257863  0
C  C95  1  0.39052337  0.34024322  0.43545338  1  1.523471  0  0.182096  0.547794  0  4.257983  0
C  C96  1  0.48634088  0.71448859  0.57602778  1  -0.076249  0  -0.010094  -0.003557  0  3.945635  0
C  C97  1  0.51365984  0.28551429  0.42397102  1  -0.076144  0  -0.010123  -0.003471  0  3.945722  0
C  C98  1  0.44736145  0.82032220  0.61338046  1  -0.068548  0  -0.09022  -0.105594  0  3.985025  0
C  C99  1  0.55263794  0.17967901  0.38662057  1  -0.068627  0  -0.090235  -0.105645  0  3.985102  0
C  C100  1  0.33311988  0.87028373  0.62465220  1  -0.034064  0  -0.091686  -0.118192  0  4.017324  0
C  C101  1  0.66687803  0.12971665  0.37534911  1  -0.034074  0  -0.0917  -0.118216  0  4.01735  0
C  C102  1  0.25576921  0.81520196  0.59815888  1  -0.054143  0  -0.02269  -0.022504  0  4.005052  0
C  C103  1  0.74422936  0.18479925  0.40184098  1  -0.054108  0  -0.022678  -0.022441  0  4.004969  0
C  C104  1  0.29591342  0.71020743  0.55895670  1  -0.008701  0  -0.084774  -0.099756  0  3.95573  0
C  C105  1  0.70408766  0.28979383  0.44104141  1  -0.008589  0  -0.084793  -0.099816  0  3.955733  0
C  C106  1  0.40981333  0.66011547  0.54826748  1  -0.029992  0  -0.081743  -0.086683  0  3.930359  0
C  C107  1  0.59018758  0.33988662  0.45172933  1  -0.029861  0  -0.081736  -0.086656  0  3.930292  0
C  C108  1  0.95362250  0.31432281  0.54294492  1  1.578848  0  0.199792  0.56767  0  4.215448  0
C  C109  1  0.04637659  0.68567594  0.45705555  1  1.578835  0  0.199767  0.567578  0  4.215615  0
C  C110  1  0.00296984  0.19797709  0.56256260  1  -0.057329  0  -0.010144  -0.009992  0  3.945278  0
C  C111  1  0.99702859  0.80202084  0.43743801  1  -0.057416  0  -0.010204  -0.010058  0  3.94519  0
C  C112  1  0.93286663  0.13467035  0.61782989  1  -0.060249  0  -0.08526  -0.104225  0  3.979238  0
C  C113  1  0.06713162  0.86532839  0.38217139  1  -0.060226  0  -0.085241  -0.104166  0  3.979147  0
C  C114  1  0.97573941  0.02613524  0.63486115  1  0.003884  0  -0.082697  -0.094676  0  3.977773  0
C  C115  1  0.02425718  0.97386349  0.36513977  1  0.00407  0  -0.08268  -0.094707  0  3.97774  0
C  C116  1  0.09021030  0.97883323  0.59829407  1  -0.06705  0  -0.016865  -0.016836  0  3.995617  0
C  C117  1  0.90978713  0.02116552  0.40170538  1  -0.067206  0  -0.016965  -0.016887  0  3.995773  0
C  C118  1  0.16001164  0.04261774  0.54303894  1  -0.031562  0  -0.080987  -0.101221  0  3.960839  0
C  C119  1  0.83998514  0.95738020  0.45695933  1  -0.031416  0  -0.080869  -0.101239  0  3.960826  0
C  C120  1  0.11672136  0.15115659  0.52492225  1  -0.06715  0  -0.08389  -0.100307  0  3.940768  0
C  C121  1  0.88327725  0.84884053  0.47507637  1  -0.066918  0  -0.08388  -0.100237  0  3.940681  0
C  C122  1  0.85147763  0.88424713  0.20455483  1  0.238812  0  -0.120065  -0.29942  0  3.892326  0
C  C123  1  0.14852261  0.11575411  0.79544474  1  0.238854  0  -0.120078  -0.299438  0  3.892329  0
N  N124  1  0.84366140  0.97798418  0.14522640  1  -0.785425  0  -0.134062  0.164066  0  3.710409  0
N  N125  1  0.15633967  0.02201706  0.85477303  1  -0.785438  0  -0.134039  0.164167  0  3.710296  0
N  N126  1  0.84811811  0.07782054  0.17596149  1  -0.651797  0  -0.214957  -0.299363  0  3.0662  0
N  N127  1  0.15188230  0.92217986  0.82403872  1  -0.651778  0  -0.214928  -0.299362  0  3.066217  0
N  N128  1  0.84434503  0.08574025  0.02751132  1  -1.135784  0  -0.33962  -0.429144  0  3.215634  0
N  N129  1  0.15565871  0.91426019  0.97248831  1  -1.135778  0  -0.339631  -0.429114  0  3.215713  0
N  N130  1  0.82262520  0.65164688  0.81383676  1  -1.218812  0  -0.222255  0.007413  0  3.776152  0
N  N131  1  0.17737372  0.34835270  0.18616307  1  -1.218798  0  -0.222253  0.007419  0  3.776209  0
N  N132  1  0.83682439  0.56568134  0.68559791  1  -1.18283  0  -0.344341  -0.261651  0  3.499872  0
N  N133  1  0.16317470  0.43431740  0.31440388  1  -1.18272  0  -0.344344  -0.261724  0  3.499917  0
N  N134  1  0.82768548  0.49528393  0.25014170  1  -1.273513  0  -0.226022  0.011043  0  3.782364  0
N  N135  1  0.17231726  0.50471732  0.74985743  1  -1.273453  0  -0.226051  0.010958  0  3.782368  0
N  N136  1  0.83429631  0.54720666  0.38583524  1  -1.210077  0  -0.348478  -0.275341  0  3.498383  0
N  N137  1  0.16570345  0.45279294  0.61416379  1  -1.210035  0  -0.348493  -0.27528  0  3.498284  0
O  O138  1  0.06215139  0.80010058  0.64187832  1  -1.127614  0  -0.260583  -0.426422  0  2.188278  0
O  O139  1  0.93784888  0.19989654  0.35812198  1  -1.127574  0  -0.260546  -0.426351  0  2.188177  0
O  O140  1  0.68391969  0.71934654  0.55823308  1  -1.17916  0  -0.346376  -0.59001  0  2.158433  0
O  O141  1  0.31608037  0.28065550  0.44176782  1  -1.179092  0  -0.346342  -0.589958  0  2.158468  0
O  O142  1  0.63289979  0.55512630  0.56080781  1  -1.107583  0  -0.337133  -0.554496  0  2.173063  0
O  O143  1  0.36709926  0.44487656  0.43919260  1  -1.107649  0  -0.337112  -0.5545  0  2.173145  0
O  O144  1  0.01316692  0.36891863  0.48599601  1  -1.190697  0  -0.335851  -0.587965  0  2.331247  0
O  O145  1  0.98683436  0.63107769  0.51400347  1  -1.190702  0  -0.335834  -0.58791  0  2.331367  0
O  O146  1  0.85146212  0.35312229  0.58336767  1  -1.158839  0  -0.322008  -0.543737  0  2.214451  0
O  O147  1  0.14853645  0.64687894  0.41663153  1  -1.158819  0  -0.321977  -0.543691  0  2.214486  0
