# generated using pymatgen
data_HgH9C12(IN)2
_symmetry_space_group_name_H-M   'P 1'
_cell_length_a   7.98244881
_cell_length_b   13.06960539
_cell_length_c   14.17500000
_cell_angle_alpha   101.54532574
_cell_angle_beta   96.42558323
_cell_angle_gamma   104.21276378
_symmetry_Int_Tables_number   1
_chemical_formula_structural   HgH9C12(IN)2
_chemical_formula_sum   'Hg4 H36 C48 I8 N8'
_cell_volume   1384.22889515
_cell_formula_units_Z   4
loop_
 _symmetry_equiv_pos_site_id
 _symmetry_equiv_pos_as_xyz
  1  'x, y, z'
loop_
 _atom_site_type_symbol
 _atom_site_label
 _atom_site_symmetry_multiplicity
 _atom_site_fract_x
 _atom_site_fract_y
 _atom_site_fract_z
 _atom_site_occupancy
 _atom_site_hle17_bader_spin_density
 _atom_site_hle17_ddec_charge
 _atom_site_hle17_ddec_spin_density
 _atom_site_hle17_ddec_sum_bond_order
 _atom_site_hle17_magmom
 _atom_site_hse06_10hf_bader_spin_density
 _atom_site_hse06_10hf_ddec_charge
 _atom_site_hse06_10hf_ddec_spin_density
 _atom_site_hse06_10hf_ddec_sum_bond_order
 _atom_site_hse06_10hf_magmom
 _atom_site_hse06_bader_spin_density
 _atom_site_hse06_ddec_charge
 _atom_site_hse06_ddec_spin_density
 _atom_site_hse06_ddec_sum_bond_order
 _atom_site_hse06_magmom
 _atom_site_pbe_bader_charge
 _atom_site_pbe_bader_spin_density
 _atom_site_pbe_cm5_charge
 _atom_site_pbe_ddec_charge
 _atom_site_pbe_ddec_spin_density
 _atom_site_pbe_ddec_sum_bond_order
 _atom_site_pbe_magmom
Hg  Hg0  1  0.51939792  0.86157507  0.78648238  1  0  0.587689  0  2.203105  0  0  0.433254  0  2.698351  0  0  0.481746  0  2.671619  0  0.659001  0  0.460053  0.400929  0  2.715744  0
Hg  Hg1  1  0.48060000  0.13842423  0.21351722  1  0  0.587712  0  2.203105  0  0  0.433289  0  2.698341  0  0  0.481782  0  2.67161  0  0.658993  0  0.460069  0.400961  0  2.715737  0
Hg  Hg2  1  0.04848964  0.88763029  0.67979209  1  0  0.440128  0  2.269956  0  0  0.347624  0  2.777753  0  0  0.38768  0  2.753424  0  0.370175  0  0.275275  0.321009  0  2.793899  0
Hg  Hg3  1  0.95150829  0.11236901  0.32020751  1  0  0.440133  0  2.269951  0  0  0.347627  0  2.777745  0  0  0.387682  0  2.753416  0  0.37023  0  0.275277  0.321014  0  2.793889  0
H  H4  1  0.56862621  0.87509574  0.56789223  1  0  0.068071  0  0.995773  0  0  0.073574  0  1.068818  0  0  0.076656  0  1.065246  0  0.106714  0  0.085883  0.071236  0  1.071593  0
H  H5  1  0.43137081  0.12490437  0.43210816  1  0  0.068085  0  0.995743  0  0  0.073579  0  1.068813  0  0  0.076662  0  1.065236  0  0.106725  0  0.085884  0.071241  0  1.071588  0
H  H6  1  0.53923111  0.75918268  0.40045914  1  0  0.10317  0  0.973205  0  0  0.11108  0  1.038566  0  0  0.114072  0  1.038023  0  0.113564  0  0.099733  0.109005  0  1.038946  0
H  H7  1  0.46076970  0.24081742  0.59954220  1  0  0.103111  0  0.973277  0  0  0.111028  0  1.038633  0  0  0.114024  0  1.038084  0  0.113566  0  0.099705  0.108948  0  1.039023  0
H  H8  1  0.39597326  0.55723283  0.37112749  1  0  0.092062  0  0.949316  0  0  0.102236  0  1.011899  0  0  0.104798  0  1.01051  0  0.090167  0  0.1009  0.100359  0  1.012976  0
H  H9  1  0.60403169  0.44276809  0.62887285  1  0  0.092104  0  0.949306  0  0  0.102269  0  1.011882  0  0  0.104831  0  1.010491  0  0.09016  0  0.100876  0.100391  0  1.012959  0
H  H10  1  0.29606943  0.48312541  0.50870440  1  0  0.099384  0  1.001924  0  0  0.106292  0  1.069036  0  0  0.109227  0  1.069016  0  0.115462  0  0.09468  0.104195  0  1.06919  0
H  H11  1  0.70393354  0.51687389  0.49129552  1  0  0.099391  0  1.001922  0  0  0.106288  0  1.069047  0  0  0.109224  0  1.069026  0  0.115458  0  0.094674  0.104192  0  1.069199  0
H  H12  1  0.02533882  0.48018896  0.57557531  1  0  0.086144  0  0.976514  0  0  0.094047  0  1.04612  0  0  0.096689  0  1.044767  0  0.075235  0  0.090387  0.09213  0  1.047174  0
H  H13  1  0.97466487  0.51981196  0.42442565  1  0  0.086201  0  0.976468  0  0  0.094105  0  1.046067  0  0  0.096745  0  1.044714  0  0.075224  0  0.090394  0.092186  0  1.04712  0
H  H14  1  0.89046778  0.28072229  0.54293536  1  0  0.086592  0  0.970739  0  0  0.094155  0  1.037151  0  0  0.096117  0  1.037973  0  0.096032  0  0.088697  0.092729  0  1.03667  0
H  H15  1  0.10953375  0.71927944  0.45706351  1  0  0.086614  0  0.970703  0  0  0.094171  0  1.037134  0  0  0.096131  0  1.037953  0  0.095942  0  0.088696  0.092745  0  1.036652  0
H  H16  1  0.02720775  0.16910872  0.63271243  1  0  0.083493  0  0.991653  0  0  0.089256  0  1.064149  0  0  0.092609  0  1.061781  0  0.12769  0  0.079202  0.086783  0  1.06596  0
H  H17  1  0.97278981  0.83088977  0.36728417  1  0  0.083472  0  0.991663  0  0  0.089227  0  1.064173  0  0  0.092579  0  1.061808  0  0.127702  0  0.079222  0.086754  0  1.065983  0
H  H18  1  0.29535607  0.25715189  0.75793849  1  0  0.086111  0  0.963804  0  0  0.096474  0  1.02582  0  0  0.098974  0  1.02548  0  0.052019  0  0.095572  0.094689  0  1.026112  0
H  H19  1  0.70464239  0.74284578  0.24206014  1  0  0.086119  0  0.963756  0  0  0.096481  0  1.025791  0  0  0.098976  0  1.02545  0  0.052008  0  0.095599  0.094695  0  1.026084  0
H  H20  1  0.43244131  0.45639924  0.79035985  1  0  0.093962  0  0.947916  0  0  0.105055  0  1.008491  0  0  0.107646  0  1.008173  0  0.068151  0  0.099643  0.103198  0  1.008794  0
H  H21  1  0.56755643  0.54359681  0.20964055  1  0  0.093971  0  0.947832  0  0  0.105033  0  1.008446  0  0  0.107635  0  1.008099  0  0.068104  0  0.099666  0.103177  0  1.008747  0
H  H22  1  0.90791444  0.90164890  0.88956745  1  0  0.05335  0  1.011067  0  0  0.057857  0  1.088538  0  0  0.059911  0  1.086974  0  0.096607  0  0.082259  0.05631  0  1.089752  0
H  H23  1  0.09208384  0.09835121  0.11043302  1  0  0.053352  0  1.011075  0  0  0.057861  0  1.088537  0  0  0.059914  0  1.086975  0  0.096604  0  0.082266  0.056311  0  1.089753  0
H  H24  1  0.10698139  0.85618224  0.01316502  1  0  0.101772  0  0.970607  0  0  0.10797  0  1.038679  0  0  0.111477  0  1.036942  0  0.136347  0  0.092023  0.105449  0  1.04008  0
H  H25  1  0.89301888  0.14381950  0.98683658  1  0  0.101769  0  0.970659  0  0  0.10799  0  1.038693  0  0  0.111501  0  1.036945  0  0.136325  0  0.092024  0.105466  0  1.040101  0
H  H26  1  0.97423125  0.72464953  0.11082388  1  0  0.097674  0  0.948962  0  0  0.107918  0  1.009435  0  0  0.109738  0  1.009877  0  0.099255  0  0.104622  0.106601  0  1.00917  0
H  H27  1  0.02576704  0.27535058  0.88917589  1  0  0.097618  0  0.949024  0  0  0.107872  0  1.009485  0  0  0.109692  0  1.009928  0  0.099244  0  0.104608  0.106556  0  1.009218  0
H  H28  1  0.64833006  0.64524107  0.07684325  1  0  0.097532  0  0.977825  0  0  0.107938  0  1.040134  0  0  0.110306  0  1.040496  0  0.080263  0  0.105056  0.106251  0  1.040028  0
H  H29  1  0.35166858  0.35475985  0.92315670  1  0  0.097497  0  0.977766  0  0  0.107938  0  1.040043  0  0  0.110307  0  1.040404  0  0.080284  0  0.105048  0.10625  0  1.039939  0
H  H30  1  0.45402298  0.81345789  0.12563466  1  0  0.084864  0  0.996495  0  0  0.090004  0  1.071697  0  0  0.093535  0  1.069579  0  0.114362  0  0.081057  0.087383  0  1.073348  0
H  H31  1  0.54597801  0.18654547  0.87436517  1  0  0.084897  0  0.996489  0  0  0.09003  0  1.071691  0  0  0.093567  0  1.069568  0  0.114383  0  0.081075  0.087409  0  1.073341  0
H  H32  1  0.32238921  0.76854602  0.26747076  1  0  0.088662  0  0.961549  0  0  0.098479  0  1.024661  0  0  0.101375  0  1.023407  0  0.088992  0  0.092221  0.096325  0  1.025726  0
H  H33  1  0.67761142  0.23145652  0.73252961  1  0  0.08866  0  0.961592  0  0  0.098486  0  1.024688  0  0  0.101372  0  1.023444  0  0.089013  0  0.092225  0.09634  0  1.025744  0
H  H34  1  0.13855843  0.58049131  0.25648560  1  0  0.086024  0  0.980428  0  0  0.095199  0  1.045644  0  0  0.097101  0  1.046366  0  0.075165  0  0.092253  0.093783  0  1.045228  0
H  H35  1  0.86144652  0.41950961  0.74351475  1  0  0.086034  0  0.980458  0  0  0.095205  0  1.045675  0  0  0.097108  0  1.046396  0  0.07527  0  0.092267  0.093793  0  1.045255  0
H  H36  1  0.07949542  0.43995267  0.10173971  1  0  0.09572  0  0.956225  0  0  0.102185  0  1.022688  0  0  0.105435  0  1.021394  0  0.098255  0  0.095995  0.099878  0  1.023627  0
H  H37  1  0.92051205  0.56004825  0.89826079  1  0  0.095727  0  0.956243  0  0  0.102189  0  1.022715  0  0  0.105439  0  1.021422  0  0.098233  0  0.095993  0.099882  0  1.023656  0
H  H38  1  0.20049045  0.48824450  0.95591119  1  0  0.089909  0  0.972496  0  0  0.098051  0  1.040851  0  0  0.100684  0  1.039895  0  0.084414  0  0.098046  0.096192  0  1.04151  0
H  H39  1  0.79951576  0.51175642  0.04408994  1  0  0.089923  0  0.972452  0  0  0.098071  0  1.040798  0  0  0.100702  0  1.039844  0  0.084395  0  0.098068  0.096211  0  1.041458  0
C  C40  1  0.50612878  0.78787137  0.55120144  1  0  0.129119  0  3.72696  0  0  0.098127  0  3.975223  0  0  0.10574  0  3.992276  0  0.491878  0  0.040162  0.093096  0  3.963799  0
C  C41  1  0.49387203  0.21212874  0.44879849  1  0  0.129099  0  3.726949  0  0  0.098062  0  3.975255  0  0  0.105677  0  3.992303  0  0.491839  0  0.040089  0.093033  0  3.963828  0
C  C42  1  0.48892742  0.72262691  0.45781996  1  0  -0.100332  0  3.693653  0  0  -0.111772  0  3.936408  0  0  -0.117445  0  3.956287  0  0.033466  0  -0.079151  -0.108272  0  3.923201  0
C  C43  1  0.51107087  0.27737319  0.54217769  1  0  -0.10028  0  3.693704  0  0  -0.111737  0  3.93648  0  0  -0.117409  0  3.956359  0  0.033526  0  -0.079109  -0.108234  0  3.923266  0
C  C44  1  0.41108521  0.61184838  0.44243493  1  0  0.004172  0  3.709323  0  0  -0.01124  0  3.954257  0  0  -0.008045  0  3.972078  0  -0.120151  0  -0.066362  -0.013115  0  3.942163  0
C  C45  1  0.58891848  0.38815254  0.55756392  1  0  0.004054  0  3.709327  0  0  -0.011322  0  3.954219  0  0  -0.008126  0  3.97204  0  -0.12009  0  -0.066377  -0.013199  0  3.942123  0
C  C46  1  0.35408543  0.56998425  0.51986507  1  0  -0.135419  0  3.698138  0  0  -0.15242  0  3.941375  0  0  -0.15862  0  3.96227  0  0.000634  0  -0.08146  -0.148411  0  3.927444  0
C  C47  1  0.64591789  0.43001585  0.48013220  1  0  -0.135401  0  3.6983  0  0  -0.152386  0  3.94153  0  0  -0.158586  0  3.962424  0  0.000571  0  -0.081417  -0.148375  0  3.9276  0
C  C48  1  0.37497369  0.64011142  0.61180639  1  0  0.168942  0  3.7475  0  0  0.16171  0  3.995211  0  0  0.167085  0  4.014978  0  0.470112  0  0.115434  0.157947  0  3.982184  0
C  C49  1  0.62502802  0.35988788  0.38819486  1  0  0.169072  0  3.74774  0  0  0.16176  0  3.995493  0  0  0.167137  0  4.015259  0  0.470153  0  0.115447  0.157991  0  3.982467  0
C  C50  1  0.32444420  0.59869406  0.69761386  1  0  0.147273  0  3.687736  0  0  0.126901  0  3.947556  0  0  0.140639  0  3.958046  0  0.645254  0  0.145664  0.117574  0  3.940711  0
C  C51  1  0.67555751  0.40130524  0.30238879  1  0  0.1471  0  3.68779  0  0  0.126815  0  3.947558  0  0  0.140557  0  3.958051  0  0.645157  0  0.145687  0.117498  0  3.940706  0
C  C52  1  0.23826942  0.48155118  0.68451514  1  0  0.015726  0  3.778063  0  0  0.033474  0  4.011616  0  0  0.030244  0  4.033216  0  0.002365  0  -0.012112  0.035577  0  3.996929  0
C  C53  1  0.76173012  0.51844893  0.31548612  1  0  0.015794  0  3.778002  0  0  0.033547  0  4.011503  0  0  0.030315  0  4.033105  0  0.002375  0  -0.012128  0.035643  0  3.99682  0
C  C54  1  0.08494520  0.43092238  0.61498043  1  0  -0.105036  0  3.747851  0  0  -0.121477  0  3.987917  0  0  -0.122359  0  4.007656  0  -0.069826  0  -0.090422  -0.120698  0  3.974467  0
C  C55  1  0.91505344  0.56907854  0.38502022  1  0  -0.105215  0  3.747886  0  0  -0.121658  0  3.987954  0  0  -0.122538  0  4.00769  0  -0.069811  0  -0.090471  -0.120879  0  3.974509  0
C  C56  1  0.00845750  0.31948670  0.59752281  1  0  -0.070286  0  3.771556  0  0  -0.078407  0  4.013221  0  0  -0.0819  0  4.036444  0  -0.05626  0  -0.093879  -0.076058  0  3.997401  0
C  C57  1  0.99154114  0.68051422  0.40247855  1  0  -0.070249  0  3.771437  0  0  -0.078379  0  4.013098  0  0  -0.08187  0  4.036319  0  -0.056153  0  -0.093832  -0.076031  0  3.997278  0
C  C58  1  0.08421985  0.25678961  0.64883772  1  0  -0.054211  0  3.742673  0  0  -0.067421  0  3.983256  0  0  -0.06847  0  4.004556  0  -0.072824  0  -0.089956  -0.066576  0  3.968783  0
C  C59  1  0.91577628  0.74321131  0.35116207  1  0  -0.054138  0  3.742683  0  0  -0.067356  0  3.98329  0  0  -0.068405  0  4.004589  0  -0.072904  0  -0.089985  -0.066513  0  3.96882  0
C  C60  1  0.23487960  0.30658256  0.71914656  1  0  -0.073855  0  3.771309  0  0  -0.082171  0  4.015622  0  0  -0.085241  0  4.037533  0  -0.025838  0  -0.093202  -0.080102  0  4.000717  0
C  C61  1  0.76512066  0.69341349  0.28085470  1  0  -0.073985  0  3.771632  0  0  -0.082317  0  4.015959  0  0  -0.085382  0  4.037867  0  -0.025752  0  -0.093297  -0.080245  0  4.001049  0
C  C62  1  0.31137016  0.41844469  0.73771727  1  0  -0.097924  0  3.717202  0  0  -0.11982  0  3.965364  0  0  -0.12021  0  3.984898  0  -0.099626  0  -0.089407  -0.119421  0  3.952068  0
C  C63  1  0.68862974  0.58155623  0.26228345  1  0  -0.09782  0  3.717202  0  0  -0.119686  0  3.965365  0  0  -0.120072  0  3.984903  0  -0.099613  0  -0.089361  -0.119286  0  3.952074  0
C  C64  1  0.85545874  0.84405303  0.93225956  1  0  0.125408  0  3.726123  0  0  0.097302  0  3.973201  0  0  0.103602  0  3.991871  0  0.499319  0  0.033289  0.0932  0  3.960633  0
C  C65  1  0.14453991  0.15594789  0.06774038  1  0  0.125396  0  3.726132  0  0  0.097296  0  3.973205  0  0  0.103596  0  3.991878  0  0.499587  0  0.033272  0.093193  0  3.960643  0
C  C66  1  0.96623904  0.81909197  0.00213619  1  0  -0.097829  0  3.710038  0  0  -0.109699  0  3.953864  0  0  -0.11506  0  3.973128  0  -0.058165  0  -0.084064  -0.106372  0  3.941112  0
C  C67  1  0.03375672  0.18090813  0.99786483  1  0  -0.097856  0  3.710072  0  0  -0.109733  0  3.953869  0  0  -0.115093  0  3.973134  0  -0.058056  0  -0.084068  -0.106407  0  3.941117  0
C  C68  1  0.89249423  0.74629317  0.05535697  1  0  0.003992  0  3.709579  0  0  -0.010153  0  3.951653  0  0  -0.007045  0  3.969598  0  -0.002708  0  -0.0656  -0.011962  0  3.939416  0
C  C69  1  0.10750315  0.25370775  0.94464289  1  0  0.004092  0  3.709609  0  0  -0.010061  0  3.95168  0  0  -0.006953  0  3.969625  0  -0.003114  0  -0.065572  -0.011872  0  3.939442  0
C  C70  1  0.71147075  0.70207825  0.03663726  1  0  -0.138538  0  3.719688  0  0  -0.156907  0  3.962713  0  0  -0.163188  0  3.983901  0  -0.037352  0  -0.078476  -0.15289  0  3.948462  0
C  C71  1  0.28852699  0.29792348  0.96336560  1  0  -0.1386  0  3.719812  0  0  -0.15701  0  3.962835  0  0  -0.163293  0  3.984023  0  -0.037793  0  -0.078511  -0.15299  0  3.948582  0
C  C72  1  0.60784263  0.72956311  0.96441643  1  0  0.172332  0  3.730433  0  0  0.170774  0  3.970163  0  0  0.176387  0  3.988969  0  0.507798  0  0.115123  0.167143  0  3.95748  0
C  C73  1  0.39215601  0.27043781  0.03558351  1  0  0.172439  0  3.730402  0  0  0.170899  0  3.970111  0  0  0.176514  0  3.988917  0  0.508254  0  0.115169  0.167267  0  3.957426  0
C  C74  1  0.41519662  0.67766225  0.94595932  1  0  0.143657  0  3.679333  0  0  0.130108  0  3.938929  0  0  0.141697  0  3.950837  0  0.633354  0  0.147089  0.121836  0  3.931011  0
C  C75  1  0.58480365  0.32233948  0.05404017  1  0  0.143611  0  3.679328  0  0  0.130051  0  3.938937  0  0  0.141638  0  3.950845  0  0.633355  0  0.147077  0.121784  0  3.931012  0
C  C76  1  0.33628845  0.65258017  0.03143578  1  0  0.010295  0  3.791717  0  0  0.030621  0  4.018641  0  0  0.027587  0  4.042366  0  -0.038359  0  -0.013713  0.032692  0  4.002581  0
C  C77  1  0.66371235  0.34741994  0.96856415  1  0  0.010412  0  3.791658  0  0  0.030723  0  4.018607  0  0  0.02769  0  4.042332  0  -0.038329  0  -0.013669  0.032794  0  4.002544  0
C  C78  1  0.37166892  0.73154918  0.12001519  1  0  -0.106204  0  3.732859  0  0  -0.123336  0  3.971922  0  0  -0.126061  0  3.993611  0  -0.099268  0  -0.093195  -0.121302  0  3.957164  0
C  C79  1  0.62833099  0.26845174  0.87998483  1  0  -0.106325  0  3.733188  0  0  -0.123447  0  3.972262  0  0  -0.126181  0  3.993946  0  -0.099364  0  -0.093249  -0.121413  0  3.957505  0
C  C80  1  0.29857050  0.70584975  0.20007615  1  0  -0.07355  0  3.772514  0  0  -0.083046  0  4.017981  0  0  -0.085998  0  4.04059  0  -0.084167  0  -0.095739  -0.080951  0  4.002537  0
C  C81  1  0.70142130  0.29414143  0.79992579  1  0  -0.073622  0  3.77259  0  0  -0.083129  0  4.018065  0  0  -0.086075  0  4.040679  0  -0.084092  0  -0.09583  -0.081039  0  4.002618  0
C  C82  1  0.19459781  0.60077678  0.19374236  1  0  -0.069531  0  3.753229  0  0  -0.084618  0  4.000365  0  0  -0.086303  0  4.022438  0  -0.028115  0  -0.093545  -0.083337  0  3.985322  0
C  C83  1  0.80540390  0.39922251  0.80625748  1  0  -0.069357  0  3.752929  0  0  -0.084438  0  4.00005  0  0  -0.086121  0  4.022117  0  -0.028252  0  -0.093435  -0.083161  0  3.985008  0
C  C84  1  0.16045746  0.52177853  0.10633130  1  0  -0.072174  0  3.77446  0  0  -0.082895  0  4.022866  0  0  -0.085331  0  4.04385  0  -0.087545  0  -0.093694  -0.081217  0  4.008582  0
C  C85  1  0.83954461  0.47822158  0.89367012  1  0  -0.072226  0  3.774539  0  0  -0.082948  0  4.022941  0  0  -0.085384  0  4.043924  0  -0.087538  0  -0.093703  -0.081269  0  4.008657  0
C  C86  1  0.22861716  0.54819441  0.02516573  1  0  -0.099445  0  3.743792  0  0  -0.121605  0  3.988414  0  0  -0.123058  0  4.00993  0  -0.054653  0  -0.088756  -0.12053  0  3.973759  0
C  C87  1  0.77138725  0.45180814  0.97483276  1  0  -0.099525  0  3.743877  0  0  -0.121688  0  3.988517  0  0  -0.123139  0  4.010032  0  -0.054711  0  -0.088808  -0.120612  0  3.973861  0
I  I88  1  0.30726489  0.97321870  0.87805134  1  0  -0.305881  0  1.349701  0  0  -0.262553  0  1.730969  0  0  -0.282921  0  1.713202  0  -0.286213  0  -0.14185  -0.24885  0  1.743271  0
I  I89  1  0.69273502  0.02678222  0.12194868  1  0  -0.305888  0  1.349718  0  0  -0.262576  0  1.731005  0  0  -0.282945  0  1.713235  0  -0.286264  0  -0.141855  -0.248874  0  1.743309  0
I  I90  1  0.80460336  0.01687058  0.74605798  1  0  -0.295541  0  1.352646  0  0  -0.242879  0  1.732661  0  0  -0.264694  0  1.71319  0  -0.284686  0  -0.114041  -0.228015  0  1.746161  0
I  I91  1  0.19539618  0.98312953  0.25394258  1  0  -0.295554  0  1.352677  0  0  -0.24288  0  1.732683  0  0  -0.264693  0  1.713213  0  -0.28469  0  -0.114041  -0.228013  0  1.746175  0
I  I92  1  0.88926656  0.67959389  0.68591678  1  0  -0.330964  0  1.106427  0  0  -0.294018  0  1.436052  0  0  -0.310594  0  1.423536  0  -0.340744  0  -0.188594  -0.282633  0  1.444603  0
I  I93  1  0.11073388  0.32040540  0.31408369  1  0  -0.33098  0  1.106448  0  0  -0.294021  0  1.436043  0  0  -0.310598  0  1.42353  0  -0.340833  0  -0.1886  -0.282635  0  1.444594  0
I  I94  1  0.25387509  0.98975380  0.56770689  1  0  -0.345958  0  1.173806  0  0  -0.304056  0  1.516071  0  0  -0.321784  0  1.499287  0  -0.319993  0  -0.182469  -0.291762  0  1.528041  0
I  I95  1  0.74612032  0.01024549  0.43229185  1  0  -0.345939  0  1.1738  0  0  -0.304041  0  1.516067  0  0  -0.32177  0  1.499284  0  -0.319957  0  -0.182462  -0.29175  0  1.528036  0
N  N96  1  0.45103108  0.74768382  0.62525131  1  0  -0.306106  0  3.293623  0  0  -0.228446  0  3.549709  0  0  -0.249106  0  3.572521  0  -1.192994  0  -0.305953  -0.214457  0  3.53393  0
N  N97  1  0.54897135  0.25231710  0.37474816  1  0  -0.306125  0  3.293643  0  0  -0.228412  0  3.54972  0  0  -0.249077  0  3.572542  0  -1.192998  0  -0.305922  -0.214422  0  3.533944  0
N  N98  1  0.36735256  0.66907953  0.78150771  1  0  -0.176723  0  3.300672  0  0  -0.123048  0  3.585294  0  0  -0.138384  0  3.60582  0  -0.754154  0  -0.189139  -0.112826  0  3.571203  0
N  N99  1  0.63264842  0.33091814  0.21849107  1  0  -0.176659  0  3.300647  0  0  -0.123054  0  3.585292  0  0  -0.138403  0  3.605835  0  -0.754056  0  -0.189157  -0.112834  0  3.571193  0
N  N100  1  0.31122678  0.64326719  0.86175682  1  0  -0.182829  0  3.104075  0  0  -0.160877  0  3.387521  0  0  -0.173268  0  3.407235  0  -0.696208  0  -0.180368  -0.151883  0  3.373655  0
N  N101  1  0.68877366  0.35673211  0.13824294  1  0  -0.182775  0  3.104089  0  0  -0.160799  0  3.387559  0  0  -0.173187  0  3.40728  0  -0.696195  0  -0.180328  -0.151811  0  3.373692  0
N  N102  1  0.68146443  0.79989985  0.91274061  1  0  -0.304904  0  3.232458  0  0  -0.234785  0  3.488144  0  0  -0.253663  0  3.508592  0  -1.222172  0  -0.305175  -0.221839  0  3.473927  0
N  N103  1  0.31853259  0.20010026  0.08726049  1  0  -0.304929  0  3.232326  0  0  -0.23483  0  3.488024  0  0  -0.253706  0  3.508466  0  -1.222147  0  -0.305185  -0.221883  0  3.473807  0
