# generated using pymatgen
data_NaZnH15C15NO8
_symmetry_space_group_name_H-M   'P 1'
_cell_length_a   8.77957398
_cell_length_b   9.95431011
_cell_length_c   10.75630085
_cell_angle_alpha   107.63133088
_cell_angle_beta   103.55315535
_cell_angle_gamma   100.29362931
_symmetry_Int_Tables_number   1
_chemical_formula_structural   NaZnH15C15NO8
_chemical_formula_sum   'Na2 Zn2 H30 C30 N2 O16'
_cell_volume   838.71578040
_cell_formula_units_Z   2
loop_
 _symmetry_equiv_pos_site_id
 _symmetry_equiv_pos_as_xyz
  1  'x, y, z'
loop_
 _atom_site_type_symbol
 _atom_site_label
 _atom_site_symmetry_multiplicity
 _atom_site_fract_x
 _atom_site_fract_y
 _atom_site_fract_z
 _atom_site_occupancy
 _atom_site_hle17_bader_spin_density
 _atom_site_hle17_ddec_charge
 _atom_site_hle17_ddec_spin_density
 _atom_site_hle17_ddec_sum_bond_order
 _atom_site_hle17_magmom
 _atom_site_hse06_10hf_bader_spin_density
 _atom_site_hse06_10hf_ddec_charge
 _atom_site_hse06_10hf_ddec_spin_density
 _atom_site_hse06_10hf_ddec_sum_bond_order
 _atom_site_hse06_10hf_magmom
 _atom_site_hse06_bader_spin_density
 _atom_site_hse06_ddec_charge
 _atom_site_hse06_ddec_spin_density
 _atom_site_hse06_ddec_sum_bond_order
 _atom_site_hse06_magmom
 _atom_site_pbe_bader_spin_density
 _atom_site_pbe_cm5_charge
 _atom_site_pbe_ddec_charge
 _atom_site_pbe_ddec_spin_density
 _atom_site_pbe_ddec_sum_bond_order
 _atom_site_pbe_magmom
Na  Na0  1  0.42344212  0.63367394  0.55765512  1  0  0.91352  0  0.380753  0  0  0.876748  0  0.530047  0  0  0.88668  0  0.508414  0  0  0.682998  0.869007  0  0.546078  0
Na  Na1  1  0.57655830  0.36632489  0.44234614  1  0  0.913513  0  0.380751  0  0  0.876741  0  0.530033  0  0  0.886663  0  0.508414  0  0  0.682992  0.869  0  0.546065  0
Zn  Zn2  1  0.07118878  0.43593921  0.30215846  1  0  1.16327  0  1.705306  0  0  0.990588  0  2.177799  0  0  1.04232  0  2.110728  0  0  0.686966  0.953974  0  2.224274  0
Zn  Zn3  1  0.92881248  0.56405854  0.69783986  1  0  1.163326  0  1.705284  0  0  0.990626  0  2.177778  0  0  1.042368  0  2.110707  0  0  0.686973  0.954016  0  2.224254  0
H  H4  1  0.23942125  0.31372211  0.43747486  1  0  0.418814  0  0.893896  0  0  0.386031  0  0.960919  0  0  0.397548  0  0.944581  0  0  0.294834  0.377873  0  0.972523  0
H  H5  1  0.76057983  0.68627892  0.56252529  1  0  0.418824  0  0.89388  0  0  0.386041  0  0.960901  0  0  0.397559  0  0.944563  0  0  0.294844  0.377883  0  0.972507  0
H  H6  1  0.13805432  0.39781865  0.53415490  1  0  0.437354  0  0.862475  0  0  0.404818  0  0.92837  0  0  0.41552  0  0.912953  0  0  0.300219  0.397203  0  0.939394  0
H  H7  1  0.86194526  0.60218129  0.46584373  1  0  0.437387  0  0.862432  0  0  0.404836  0  0.928347  0  0  0.415538  0  0.912927  0  0  0.300228  0.397222  0  0.939369  0
H  H8  1  0.66864474  0.52243763  0.22953056  1  0  0.10761  0  0.971219  0  0  0.113543  0  1.039771  0  0  0.117533  0  1.036777  0  0  0.106027  0.110575  0  1.042212  0
H  H9  1  0.33136737  0.47756882  0.77047696  1  0  0.107661  0  0.971196  0  0  0.113601  0  1.039731  0  0  0.117589  0  1.03674  0  0  0.106041  0.110632  0  1.042172  0
H  H10  1  0.20185786  0.46649675  0.95224969  1  0  0.10285  0  0.94767  0  0  0.114403  0  1.005628  0  0  0.118046  0  1.003369  0  0  0.103834  0.1117  0  1.00748  0
H  H11  1  0.79815607  0.53351188  0.04775880  1  0  0.102796  0  0.947609  0  0  0.114341  0  1.005601  0  0  0.117982  0  1.003335  0  0  0.103794  0.111615  0  1.00748  0
H  H12  1  0.78224648  0.97410113  0.03503434  1  0  0.095948  0  0.943666  0  0  0.107985  0  1.002073  0  0  0.111285  0  0.999942  0  0  0.103472  0.105534  0  1.003795  0
H  H13  1  0.21775043  0.02589770  0.96496626  1  0  0.095977  0  0.943576  0  0  0.10797  0  1.002032  0  0  0.11127  0  0.999902  0  0  0.10347  0.105523  0  1.003753  0
H  H14  1  0.45270192  0.22776863  0.14118990  1  0  0.092904  0  0.976369  0  0  0.10003  0  1.043808  0  0  0.103007  0  1.042589  0  0  0.107299  0.097625  0  1.04522  0
H  H15  1  0.54729532  0.77223131  0.85880921  1  0  0.092923  0  0.976368  0  0  0.10005  0  1.043804  0  0  0.103025  0  1.042589  0  0  0.107304  0.097645  0  1.045218  0
H  H16  1  0.81015086  0.77159381  0.31803222  1  0  0.100634  0  0.961849  0  0  0.110549  0  1.023336  0  0  0.113447  0  1.022453  0  0  0.105455  0.108523  0  1.024009  0
H  H17  1  0.18984773  0.22840286  0.68196343  1  0  0.100609  0  0.961776  0  0  0.110511  0  1.023289  0  0  0.113408  0  1.022406  0  0  0.105426  0.108486  0  1.023957  0
H  H18  1  0.27707499  0.99764020  0.62040312  1  0  0.099467  0  0.966416  0  0  0.111839  0  1.02504  0  0  0.114788  0  1.023985  0  0  0.10795  0.10967  0  1.026029  0
H  H19  1  0.72292476  0.00235647  0.37959275  1  0  0.099478  0  0.966498  0  0  0.11185  0  1.025115  0  0  0.114799  0  1.024058  0  0  0.107974  0.109681  0  1.026103  0
H  H20  1  0.91993206  0.92974111  0.74573985  1  0  0.040154  0  0.934048  0  0  0.047537  0  1.006925  0  0  0.048957  0  1.003238  0  0  0.120458  0.046329  0  1.009662  0
H  H21  1  0.08006719  0.07025773  0.25425933  1  0  0.040152  0  0.93403  0  0  0.047505  0  1.006936  0  0  0.048923  0  1.00325  0  0  0.120466  0.046299  0  1.009673  0
H  H22  1  0.01048791  0.15833117  0.87271920  1  0  0.096571  0  0.941626  0  0  0.116723  0  1.007058  0  0  0.117086  0  1.007172  0  0  0.106054  0.116335  0  1.007131  0
H  H23  1  0.98951050  0.84166877  0.12728013  1  0  0.096534  0  0.941631  0  0  0.116686  0  1.007082  0  0  0.117051  0  1.007195  0  0  0.106052  0.116299  0  1.007155  0
H  H24  1  0.87363470  0.21951335  0.96135383  1  0  0.116139  0  0.963061  0  0  0.132329  0  1.028606  0  0  0.133746  0  1.028055  0  0  0.102336  0.131288  0  1.029087  0
H  H25  1  0.12636221  0.78048549  0.03864491  1  0  0.116099  0  0.963106  0  0  0.132293  0  1.028659  0  0  0.133709  0  1.02811  0  0  0.102321  0.13125  0  1.029141  0
H  H26  1  0.89909264  0.27802071  0.82426025  1  0  0.10825  0  0.944007  0  0  0.126998  0  1.008074  0  0  0.127558  0  1.008457  0  0  0.105631  0.126517  0  1.007873  0
H  H27  1  0.10090426  0.72197814  0.17573849  1  0  0.108187  0  0.943988  0  0  0.126942  0  1.008061  0  0  0.127504  0  1.008444  0  0  0.105613  0.126466  0  1.007855  0
H  H28  1  0.51727918  0.97725627  0.65153033  1  0  0.111254  0  0.958012  0  0  0.126138  0  1.028021  0  0  0.12877  0  1.024997  0  0  0.114085  0.124162  0  1.03023  0
H  H29  1  0.48271889  0.02274258  0.34846770  1  0  0.111233  0  0.958005  0  0  0.1261  0  1.028033  0  0  0.128731  0  1.025011  0  0  0.114065  0.124124  0  1.030242  0
H  H30  1  0.60477008  0.16412602  0.67705272  1  0  0.121785  0  0.941546  0  0  0.143572  0  0.99785  0  0  0.144377  0  0.997685  0  0  0.111947  0.142682  0  0.998436  0
H  H31  1  0.39522767  0.83587173  0.32294586  1  0  0.12178  0  0.941579  0  0  0.143569  0  0.997878  0  0  0.144375  0  0.997711  0  0  0.111924  0.142679  0  0.998464  0
H  H32  1  0.56283140  0.11758316  0.81688253  1  0  0.097803  0  0.949238  0  0  0.117359  0  1.01416  0  0  0.116031  0  1.017797  0  0  0.10239  0.118376  0  1.011299  0
H  H33  1  0.43716751  0.88241459  0.18311535  1  0  0.097824  0  0.94926  0  0  0.11739  0  1.014163  0  0  0.116062  0  1.017801  0  0  0.102389  0.118407  0  1.011302  0
C  C34  1  0.35027035  0.48606395  0.21207775  1  0  0.666604  0  3.91061  0  0  0.620199  0  4.200899  0  0  0.65443  0  4.192215  0  0  0.213446  0.596702  0  4.206617  0
C  C35  1  0.64974109  0.51394030  0.78793086  1  0  0.666778  0  3.910583  0  0  0.620488  0  4.200739  0  0  0.654719  0  4.192054  0  0  0.213502  0.59699  0  4.206463  0
C  C36  1  0.42743138  0.49528943  0.10267219  1  0  -0.068178  0  3.74671  0  0  -0.042642  0  3.97282  0  0  -0.049663  0  3.996119  0  0  -0.017367  -0.037449  0  3.956086  0
C  C37  1  0.57258087  0.50472138  0.89733939  1  0  -0.068397  0  3.746738  0  0  -0.04296  0  3.972976  0  0  -0.049982  0  3.996274  0  0  -0.017367  -0.037765  0  3.956237  0
C  C38  1  0.59569924  0.51444854  0.12935533  1  0  -0.078939  0  3.737107  0  0  -0.101667  0  3.986937  0  0  -0.103066  0  4.007652  0  0  -0.085612  -0.100143  0  3.972058  0
C  C39  1  0.40431287  0.48555790  0.87065404  1  0  -0.078833  0  3.736971  0  0  -0.101553  0  3.986821  0  0  -0.102951  0  4.007534  0  0  -0.085571  -0.100033  0  3.971953  0
C  C40  1  0.33242648  0.48101106  0.97232198  1  0  -0.075226  0  3.729879  0  0  -0.098326  0  3.976621  0  0  -0.099399  0  3.997333  0  0  -0.086929  -0.09738  0  3.961808  0
C  C41  1  0.66758577  0.51899977  0.02768775  1  0  -0.074925  0  3.729747  0  0  -0.098021  0  3.976528  0  0  -0.099087  0  3.997233  0  0  -0.086807  -0.097051  0  3.961713  0
C  C42  1  0.76834884  0.23649118  0.20474314  1  0  0.644601  0  3.935456  0  0  0.597467  0  4.22612  0  0  0.630851  0  4.219353  0  0  0.204706  0.574827  0  4.230241  0
C  C43  1  0.23165125  0.76350654  0.79525960  1  0  0.644607  0  3.935383  0  0  0.597481  0  4.226025  0  0  0.630864  0  4.219259  0  0  0.204698  0.574841  0  4.230144  0
C  C44  1  0.63102249  0.11270745  0.09923315  1  0  -0.060972  0  3.761897  0  0  -0.037472  0  3.992853  0  0  -0.043471  0  4.014171  0  0  -0.013946  -0.033566  0  3.978839  0
C  C45  1  0.36897709  0.88729247  0.90076826  1  0  -0.060942  0  3.761956  0  0  -0.037447  0  3.992899  0  0  -0.043445  0  4.014216  0  0  -0.013952  -0.033541  0  3.978884  0
C  C46  1  0.65829628  0.98449394  0.01952246  1  0  -0.078333  0  3.747454  0  0  -0.101686  0  3.997454  0  0  -0.102125  0  4.016618  0  0  -0.08501  -0.101446  0  3.98465  0
C  C47  1  0.34170180  0.01550490  0.98047743  1  0  -0.078376  0  3.747399  0  0  -0.10169  0  3.997394  0  0  -0.102129  0  4.016557  0  0  -0.085016  -0.101456  0  3.984594  0
C  C48  1  0.47200364  0.12735241  0.07896826  1  0  -0.077997  0  3.747328  0  0  -0.0997  0  3.996746  0  0  -0.100282  0  4.016645  0  0  -0.080597  -0.09955  0  3.983646  0
C  C49  1  0.52799477  0.87264753  0.92103107  1  0  -0.078051  0  3.747355  0  0  -0.099756  0  3.996788  0  0  -0.100339  0  4.01669  0  0  -0.080618  -0.099606  0  3.983687  0
C  C50  1  0.10764786  0.73651744  0.42858549  1  0  0.655505  0  3.903829  0  0  0.601977  0  4.201356  0  0  0.635735  0  4.193623  0  0  0.213238  0.579235  0  4.205577  0
C  C51  1  0.89235339  0.26348034  0.57140819  1  0  0.655587  0  3.903667  0  0  0.602123  0  4.20108  0  0  0.635888  0  4.193343  0  0  0.213342  0.579379  0  4.2053  0
C  C52  1  0.04936060  0.87114159  0.46653269  1  0  -0.065108  0  3.761607  0  0  -0.043141  0  3.995314  0  0  -0.049802  0  4.018296  0  0  -0.016118  -0.038594  0  3.979682  0
C  C53  1  0.95064066  0.12885619  0.53346192  1  0  -0.064979  0  3.761526  0  0  -0.042998  0  3.995152  0  0  -0.049658  0  4.018133  0  0  -0.016045  -0.038449  0  3.979517  0
C  C54  1  0.89262677  0.87162544  0.39792626  1  0  -0.080984  0  3.739129  0  0  -0.102169  0  3.986165  0  0  -0.103047  0  4.006297  0  0  -0.084934  -0.101461  0  3.972536  0
C  C55  1  0.10737214  0.12837235  0.60206697  1  0  -0.080974  0  3.739082  0  0  -0.102163  0  3.986119  0  0  -0.103041  0  4.006249  0  0  -0.08492  -0.101455  0  3.972486  0
C  C56  1  0.15587846  0.99998872  0.56865163  1  0  -0.066564  0  3.72844  0  0  -0.088776  0  3.972641  0  0  -0.089735  0  3.992728  0  0  -0.080404  -0.088287  0  3.959209  0
C  C57  1  0.84412013  0.00000796  0.43134309  1  0  -0.066672  0  3.728544  0  0  -0.088895  0  3.972732  0  0  -0.089856  0  3.992822  0  0  -0.080523  -0.088407  0  3.959299  0
C  C58  1  0.79137342  0.93031420  0.71037920  1  0  0.397048  0  3.806133  0  0  0.3245  0  4.092435  0  0  0.351192  0  4.095179  0  0  0.179999  0.306702  0  4.089708  0
C  C59  1  0.20862649  0.06968684  0.28961980  1  0  0.397148  0  3.80606  0  0  0.324644  0  4.092349  0  0  0.351336  0  4.095087  0  0  0.180037  0.306845  0  4.089622  0
C  C60  1  0.89387776  0.18610273  0.86079348  1  0  -0.181748  0  3.640277  0  0  -0.283695  0  3.891814  0  0  -0.280519  0  3.902495  0  0  -0.135014  -0.28557  0  3.8845  0
C  C61  1  0.10611998  0.81389502  0.13920510  1  0  -0.181585  0  3.640265  0  0  -0.283555  0  3.89185  0  0  -0.280375  0  3.902516  0  0  -0.134974  -0.285434  0  3.884534  0
C  C62  1  0.60152593  0.08106947  0.72496734  1  0  -0.181961  0  3.625418  0  0  -0.280568  0  3.868171  0  0  -0.277301  0  3.878154  0  0  -0.133916  -0.28244  0  3.861418  0
C  C63  1  0.39847182  0.91892829  0.27503031  1  0  -0.181954  0  3.625448  0  0  -0.280549  0  3.868186  0  0  -0.277285  0  3.878171  0  0  -0.133855  -0.282421  0  3.86143  0
N  N64  1  0.76332279  0.05957489  0.76276584  1  0  -0.077843  0  3.516222  0  0  0.025233  0  3.749523  0  0  0.004317  0  3.77762  0  0  -0.274811  0.039212  0  3.73003  0
N  N65  1  0.23667529  0.94042396  0.23723312  1  0  -0.077892  0  3.516237  0  0  0.025166  0  3.749563  0  0  0.00425  0  3.777661  0  0  -0.274855  0.039144  0  3.730072  0
O  O66  1  0.19378515  0.46180658  0.17561360  1  0  -0.659613  0  2.0279  0  0  -0.586106  0  2.29478  0  0  -0.61558  0  2.27791  0  0  -0.326774  -0.56564  0  2.305893  0
O  O67  1  0.80622296  0.53819443  0.82438788  1  0  -0.6596  0  2.028134  0  0  -0.586122  0  2.294965  0  0  -0.615604  0  2.278101  0  0  -0.326702  -0.56566  0  2.306082  0
O  O68  1  0.43767105  0.49953743  0.32857432  1  0  -0.718985  0  1.953997  0  0  -0.677622  0  2.199686  0  0  -0.697975  0  2.185335  0  0  -0.420074  -0.662992  0  2.20967  0
O  O69  1  0.56233790  0.50046244  0.67143257  1  0  -0.719171  0  1.953967  0  0  -0.677845  0  2.19964  0  0  -0.698178  0  2.185252  0  0  -0.420192  -0.663213  0  2.209631  0
O  O70  1  0.74218571  0.32450825  0.30296334  1  0  -0.653577  0  1.992247  0  0  -0.609763  0  2.237639  0  0  -0.632292  0  2.227626  0  0  -0.374502  -0.594195  0  2.244268  0
O  O71  1  0.25781555  0.67548946  0.69703869  1  0  -0.653616  0  1.992191  0  0  -0.609812  0  2.237603  0  0  -0.632344  0  2.227591  0  0  -0.37451  -0.594243  0  2.244231  0
O  O72  1  0.90960179  0.24619274  0.18465161  1  0  -0.672793  0  2.035639  0  0  -0.599275  0  2.303066  0  0  -0.629199  0  2.287116  0  0  -0.330893  -0.578361  0  2.313338  0
O  O73  1  0.09039812  0.75380831  0.81534554  1  0  -0.672775  0  2.035644  0  0  -0.599245  0  2.303056  0  0  -0.629172  0  2.287112  0  0  -0.330878  -0.578331  0  2.313325  0
O  O74  1  0.25576870  0.74726558  0.44950788  1  0  -0.640379  0  1.977467  0  0  -0.601799  0  2.222984  0  0  -0.622628  0  2.212036  0  0  -0.364158  -0.587034  0  2.230032  0
O  O75  1  0.74423406  0.25273323  0.55049474  1  0  -0.640501  0  1.977424  0  0  -0.601961  0  2.222915  0  0  -0.622788  0  2.21196  0  0  -0.364274  -0.587197  0  2.229968  0
O  O76  1  0.99371617  0.61223526  0.37156068  1  0  -0.686457  0  2.084828  0  0  -0.598952  0  2.350328  0  0  -0.629616  0  2.333447  0  0  -0.317524  -0.577739  0  2.361287  0
O  O77  1  0.00628742  0.38776254  0.62843066  1  0  -0.686511  0  2.084718  0  0  -0.599028  0  2.350218  0  0  -0.6297  0  2.333322  0  0  -0.317563  -0.577813  0  2.361177  0
O  O78  1  0.68468435  0.81532248  0.62732203  1  0  -0.580738  0  2.039369  0  0  -0.526576  0  2.274298  0  0  -0.549134  0  2.266441  0  0  -0.344147  -0.510644  0  2.27927  0
O  O79  1  0.31531607  0.18467635  0.37267737  1  0  -0.580812  0  2.03938  0  0  -0.526652  0  2.27429  0  0  -0.549207  0  2.266429  0  0  -0.344164  -0.510721  0  2.279264  0
O  O80  1  0.19861730  0.40378342  0.46725435  1  0  -0.881764  0  1.995271  0  0  -0.816669  0  2.237041  0  0  -0.838429  0  2.194873  0  0  -0.60065  -0.80159  0  2.266775  0
O  O81  1  0.80138378  0.59621761  0.53274488  1  0  -0.881786  0  1.995244  0  0  -0.816667  0  2.237029  0  0  -0.838427  0  2.194864  0  0  -0.600636  -0.801592  0  2.266763  0
