# generated using pymatgen
data_CuH7C12(NO2)2
_symmetry_space_group_name_H-M   'P 1'
_cell_length_a   5.19648175
_cell_length_b   17.95803927
_cell_length_c   28.28210267
_cell_angle_alpha   89.23737803
_cell_angle_beta   84.72884508
_cell_angle_gamma   81.67530662
_symmetry_Int_Tables_number   1
_chemical_formula_structural   CuH7C12(NO2)2
_chemical_formula_sum   'Cu8 H56 C96 N16 O32'
_cell_volume   2600.39483738
_cell_formula_units_Z   8
loop_
 _symmetry_equiv_pos_site_id
 _symmetry_equiv_pos_as_xyz
  1  'x, y, z'
loop_
 _atom_site_type_symbol
 _atom_site_label
 _atom_site_symmetry_multiplicity
 _atom_site_fract_x
 _atom_site_fract_y
 _atom_site_fract_z
 _atom_site_occupancy
 _atom_site_pbe_bader_charge
 _atom_site_pbe_bader_spin_density
 _atom_site_pbe_cm5_charge
 _atom_site_pbe_ddec_charge
 _atom_site_pbe_ddec_spin_density
 _atom_site_pbe_ddec_sum_bond_order
 _atom_site_pbe_magmom
Cu  Cu0  1  0.36832785  0.46906323  0.24004630  1  1.049886  0.558882  0.75175  0.744604  0.738223  2.301935  0.558
Cu  Cu1  1  0.07947100  0.53091100  0.75998317  1  1.052143  -0.558444  0.750972  0.742602  -0.784807  2.303125  -0.557
Cu  Cu2  1  0.58793837  0.03093474  0.74010411  1  1.050833  -0.558513  0.75171  0.744361  -0.786071  2.301143  -0.558
Cu  Cu3  1  0.35915666  0.96897166  0.25985141  1  1.05094  0.55855  0.751408  0.744807  0.737985  2.299383  0.558
Cu  Cu4  1  0.89359692  0.21939416  0.00851090  1  1.050775  0.556874  0.750572  0.750894  0.736346  2.254924  0.557
Cu  Cu5  1  0.12183207  0.78058725  0.99147888  1  1.050549  0.556518  0.749705  0.749567  0.735794  2.253714  0.556
Cu  Cu6  1  0.86294672  0.28056208  0.50847401  1  1.052031  0.55654  0.750291  0.750686  0.736196  2.252879  0.557
Cu  Cu7  1  0.65297981  0.71940438  0.49140239  1  1.051835  0.556887  0.750457  0.75036  0.736224  2.25513  0.557
H  H8  1  0.79503859  0.44899580  0.11392445  1  0.163367  0.00146  0.115946  0.131367  0.00084  1.000687  0.001
H  H9  1  0.35981787  0.55077204  0.88610308  1  0.15747  -0.001405  0.116183  0.132361  -0.000875  0.999213  -0.001
H  H10  1  0.99442913  0.05079735  0.61397502  1  0.142667  -0.001424  0.116241  0.132059  -0.000875  0.998948  -0.001
H  H11  1  0.65968096  0.94929322  0.38608690  1  0.156316  0.001468  0.116114  0.131807  0.000841  0.999626  0.001
H  H12  1  0.45366695  0.27192101  0.10803946  1  0.167847  0.001376  0.112888  0.129763  0.001019  1.034853  0.001
H  H13  1  0.83430098  0.72808188  0.89197785  1  0.163373  -0.000267  0.113017  0.129695  0.000113  1.034896  0.0
H  H14  1  0.47545410  0.22795423  0.60798886  1  0.164406  -0.000264  0.112682  0.129289  0.00011  1.035835  0.0
H  H15  1  0.31188963  0.77208443  0.39198521  1  0.168087  0.001375  0.112661  0.129447  0.001021  1.034796  0.001
H  H16  1  0.59491786  0.32973069  0.18128606  1  0.115177  0.001911  0.125682  0.105105  0.000879  0.97789  0.002
H  H17  1  0.10707762  0.67035983  0.81874786  1  0.136164  -0.00184  0.125733  0.105303  -0.000926  0.976799  -0.002
H  H18  1  0.67453764  0.17032746  0.68130792  1  0.118296  -0.001859  0.125735  0.105778  -0.000927  0.976845  -0.002
H  H19  1  0.52656577  0.82979653  0.31871444  1  0.144034  0.00188  0.125618  0.105014  0.000878  0.97763  0.002
H  H20  1  0.91473236  0.49147605  0.37044777  1  0.124149  0.001548  0.113103  0.121093  0.000837  1.037563  0.001
H  H21  1  0.77761794  0.50835005  0.62943056  1  0.118972  -0.001471  0.113613  0.122197  -0.000852  1.037212  -0.001
H  H22  1  0.15652945  0.00853710  0.87052131  1  0.124225  -0.001464  0.113352  0.121427  -0.000852  1.038401  -0.001
H  H23  1  0.03655300  0.99164389  0.12954506  1  0.121691  0.001554  0.113361  0.121767  0.000836  1.038275  0.001
H  H24  1  0.23374344  0.65963847  0.37602784  1  0.136357  0.001289  0.11705  0.131233  0.00082  1.007801  0.001
H  H25  1  0.26961206  0.34038676  0.62395476  1  0.133733  -0.000471  0.117391  0.132525  -0.000133  1.006865  0.0
H  H26  1  0.64433780  0.84027205  0.87610200  1  0.129974  -0.000474  0.117131  0.131095  -0.000134  1.008526  0.0
H  H27  1  0.36053154  0.15963748  0.12403293  1  0.13768  0.001288  0.116921  0.131088  0.000821  1.007878  0.001
H  H28  1  0.11960837  0.60445043  0.29965415  1  0.13422  0.001755  0.126133  0.107623  0.000802  0.979692  0.002
H  H29  1  0.02466992  0.39557198  0.70039446  1  0.130807  -0.001726  0.126116  0.107558  -0.000847  0.980048  -0.002
H  H30  1  0.47458961  0.89548300  0.79975719  1  0.123033  -0.001733  0.126509  0.108833  -0.000847  0.980243  -0.002
H  H31  1  0.17035889  0.10436464  0.20039503  1  0.142751  0.001747  0.126466  0.108906  0.0008  0.980784  0.002
H  H32  1  0.60556693  0.19322010  0.84701293  1  0.129444  0.001466  0.118929  0.133082  0.000768  0.97812  0.001
H  H33  1  0.64650807  0.80678161  0.15304096  1  0.126998  0.001403  0.119234  0.132909  0.000711  0.97894  0.001
H  H34  1  0.54893466  0.30672215  0.34693705  1  0.078907  0.001449  0.119095  0.13308  0.000713  0.978283  0.001
H  H35  1  0.20468470  0.69319542  0.65303267  1  0.129911  0.001465  0.119497  0.133995  0.000765  0.978044  0.001
H  H36  1  0.31385878  0.10009352  0.86647678  1  0.168005  -0.000186  0.105233  0.113184  -0.000292  1.056768  0.0
H  H37  1  0.28101858  0.89995910  0.13368193  1  0.17046  0.000247  0.10528  0.113619  0.000288  1.056668  0.0
H  H38  1  0.16402326  0.39992023  0.36631386  1  0.15585  0.000244  0.105227  0.113298  0.000288  1.055079  0.0
H  H39  1  0.93169558  0.60019680  0.63361037  1  0.126674  -0.000196  0.105545  0.11333  -0.000291  1.056625  0.0
H  H40  1  0.26244982  0.05095965  0.95188313  1  0.153846  0.000974  0.112428  0.135215  0.000517  1.012056  0.001
H  H41  1  0.26550786  0.94918847  0.04830723  1  0.153279  0.001018  0.112722  0.135214  0.000545  1.010745  0.001
H  H42  1  0.06337998  0.44915134  0.45171786  1  0.162552  0.001006  0.112918  0.135844  0.000544  1.009964  0.001
H  H43  1  0.96504683  0.55112310  0.54823541  1  0.149928  0.000978  0.112744  0.1351  0.000518  1.008491  0.001
H  H44  1  0.49959376  0.10712573  0.01265789  1  0.137538  0.002695  0.12597  0.107284  0.001269  0.997396  0.002
H  H45  1  0.61930427  0.89313280  0.98745966  1  0.157534  0.002681  0.12549  0.106598  0.001283  0.99728  0.002
H  H46  1  0.35654374  0.39299845  0.51251622  1  0.164308  0.002668  0.125636  0.107029  0.001282  0.997591  0.002
H  H47  1  0.26309576  0.60701838  0.48741111  1  0.130563  0.002705  0.126049  0.107111  0.00127  0.996692  0.002
H  H48  1  0.83181797  0.28213394  0.83750345  1  0.099878  0.001545  0.120713  0.133949  0.000786  0.975125  0.001
H  H49  1  0.95147721  0.71793625  0.16250739  1  0.094808  0.001477  0.120416  0.133148  0.000753  0.975128  0.001
H  H50  1  0.86394400  0.21804010  0.33743304  1  0.095189  0.001475  0.120323  0.133171  0.000754  0.974635  0.001
H  H51  1  0.42092002  0.78205006  0.66244207  1  0.104145  0.001538  0.120547  0.133639  0.000785  0.975174  0.001
H  H52  1  0.13743552  0.37818550  0.83231097  1  0.191519  9.4e-05  0.114917  0.129847  8.3e-05  1.01176  0.0
H  H53  1  0.34769791  0.62175950  0.16768938  1  0.191139  -4.8e-05  0.115199  0.130458  -8.3e-05  1.011728  0.0
H  H54  1  0.26550124  0.12191914  0.33219889  1  0.187486  -4.9e-05  0.115106  0.129344  -8.4e-05  1.012482  0.0
H  H55  1  0.72056694  0.87827936  0.66759175  1  0.157892  9e-05  0.115093  0.129746  8.1e-05  1.012479  0.0
H  H56  1  0.35696202  0.40417736  0.90360087  1  0.127263  0.001098  0.113884  0.125921  0.000548  0.990889  0.001
H  H57  1  0.66458483  0.59575894  0.09642544  1  0.113629  0.00117  0.114333  0.125906  0.00063  0.991656  0.001
H  H58  1  0.51100834  0.09578881  0.40348382  1  0.12842  0.00116  0.114788  0.126696  0.000632  0.991173  0.001
H  H59  1  0.01093287  0.90442581  0.59627094  1  0.112705  0.00111  0.11487  0.126997  0.00055  0.992249  0.001
H  H60  1  0.26453209  0.33189652  0.97925403  1  0.12987  0.002617  0.127903  0.105758  0.001213  0.980221  0.002
H  H61  1  0.57581244  0.66800745  0.02077319  1  0.141423  0.002594  0.128157  0.105741  0.001212  0.980677  0.002
H  H62  1  0.34637671  0.16797054  0.47916300  1  0.124076  0.00262  0.127469  0.105555  0.001213  0.97969  0.002
H  H63  1  0.99426309  0.83216611  0.52061248  1  0.156556  0.002583  0.127932  0.105871  0.001212  0.980088  0.002
C  C64  1  0.06782060  0.45039937  0.16670216  1  0.462364  -0.000193  0.107992  0.097987  5e-05  3.971581  0.0
C  C65  1  0.68692302  0.54945066  0.83332898  1  0.481523  0.001491  0.107836  0.10023  0.000613  3.970784  0.001
C  C66  1  0.26874897  0.04949787  0.66674082  1  0.4857  0.001514  0.108579  0.099874  0.000615  3.969824  0.001
C  C67  1  0.98523791  0.95059554  0.33327999  1  0.475037  -0.000178  0.108358  0.100516  5.4e-05  3.971164  0.0
C  C68  1  0.97442835  0.42161724  0.12742114  1  -0.044951  0.003547  -0.063611  -0.133938  0.002486  3.905975  0.002
C  C69  1  0.52527554  0.57817387  0.87261246  1  -0.059535  -0.002289  -0.064246  -0.137697  -0.001823  3.905214  -0.001
C  C70  1  0.14642233  0.07820244  0.62745872  1  0.010582  -0.002329  -0.063798  -0.136227  -0.00183  3.901605  -0.001
C  C71  1  0.85241169  0.92184561  0.37256241  1  0.013735  0.0035  -0.063582  -0.135418  0.002484  3.90314  0.002
C  C72  1  0.11100502  0.35595110  0.10620415  1  -0.00955  0.005305  0.010836  0.032803  0.003815  3.900306  0.005
C  C73  1  0.57467931  0.64386388  0.89383535  1  0.021481  0.011542  0.011635  0.035919  0.008044  3.898195  0.008
C  C74  1  0.21714040  0.14386908  0.60621177  1  -0.059786  0.01158  0.0107  0.034497  0.008035  3.897874  0.008
C  C75  1  0.96757497  0.85613639  0.39376801  1  -0.042211  0.005321  0.01106  0.034014  0.003824  3.899479  0.005
C  C76  1  0.33974712  0.32192085  0.12477858  1  -0.009395  0.006014  -0.064036  -0.11127  0.004189  3.879302  0.005
C  C77  1  0.78768198  0.67799539  0.87525955  1  -0.012062  -0.005509  -0.065024  -0.112335  -0.003949  3.879819  -0.005
C  C78  1  0.41171440  0.17796208  0.62476459  1  0.007277  -0.005519  -0.06395  -0.111618  -0.003962  3.882145  -0.005
C  C79  1  0.21480279  0.82206365  0.37521056  1  -0.00221  0.005972  -0.064356  -0.112036  0.004182  3.880547  0.005
C  C80  1  0.42102615  0.35372297  0.16452788  1  0.481122  -0.000907  0.059327  0.108107  7.6e-05  3.901711  0.0
C  C81  1  0.94065442  0.64626425  0.83550656  1  0.455997  0.000875  0.058834  0.106497  -0.000481  3.901976  0.0
C  C82  1  0.52477868  0.14628110  0.66454916  1  0.466963  0.000857  0.058275  0.105723  -0.000489  3.901331  0.0
C  C83  1  0.33590290  0.85381843  0.33545390  1  0.447076  -0.000883  0.059028  0.107587  7.4e-05  3.901253  0.0
C  C84  1  0.93087357  0.51900202  0.19354010  1  1.589629  -0.001605  0.197064  0.526803  6.1e-05  4.273778  -0.002
C  C85  1  0.64606815  0.48074747  0.80653683  1  1.598081  0.001886  0.197103  0.525379  -0.000184  4.273392  0.002
C  C86  1  0.20101517  0.98084278  0.69356001  1  1.588356  0.001888  0.196717  0.525634  -0.00019  4.273358  0.002
C  C87  1  0.87537662  0.01925089  0.30646931  1  1.597983  -0.00159  0.197309  0.525899  6.1e-05  4.269888  -0.002
C  C88  1  0.00006232  0.32193825  0.06550624  1  1.581989  -0.001596  0.193186  0.542561  -0.000217  4.22385  -0.003
C  C89  1  0.38857966  0.67788261  0.93448974  1  1.576292  -0.001599  0.19243  0.540701  -0.000258  4.225587  -0.004
C  C90  1  0.07199410  0.17787481  0.56552995  1  1.585906  -0.00162  0.193903  0.543978  -0.000275  4.220111  -0.004
C  C91  1  0.81604442  0.82207914  0.43444839  1  1.577498  -0.001564  0.194013  0.544025  -0.000224  4.220187  -0.003
C  C92  1  0.65808928  0.48895184  0.31493954  1  0.384548  -0.000168  0.110144  0.100174  -9e-06  3.969329  0.0
C  C93  1  0.46356001  0.51087950  0.68505379  1  0.437726  0.001696  0.110495  0.101956  0.000787  3.968457  0.002
C  C94  1  0.89747823  0.01101430  0.81500491  1  0.450785  0.001725  0.110343  0.101757  0.000786  3.968907  0.002
C  C95  1  0.72450423  0.98902158  0.18507117  1  0.421524  -0.000195  0.110206  0.101561  -1e-06  3.968437  0.0
C  C96  1  0.73720391  0.51717470  0.35582097  1  0.029849  0.003486  -0.067937  -0.14242  0.002532  3.921494  0.002
C  C97  1  0.61137910  0.48263656  0.64414210  1  0.093036  -0.002015  -0.068057  -0.144586  -0.001599  3.922565  -0.001
C  C98  1  0.00498844  0.98275966  0.85586533  1  -0.036204  -0.001919  -0.067087  -0.142372  -0.001592  3.921372  -0.001
C  C99  1  0.84445665  0.01732652  0.14421140  1  0.047892  0.003465  -0.06806  -0.144858  0.002531  3.921528  0.002
C  C100  1  0.58629718  0.57962310  0.37822180  1  -0.001442  0.00593  0.009968  0.030347  0.004245  3.910729  0.005
C  C101  1  0.54498765  0.42021823  0.62176434  1  -0.089441  0.012365  0.009764  0.030831  0.008581  3.913166  0.009
C  C102  1  0.91687509  0.92026277  0.87824608  1  0.015155  0.012242  0.008674  0.029841  0.008566  3.91028  0.009
C  C103  1  0.71566879  0.07974595  0.12182573  1  -0.05576  0.005955  0.010262  0.032414  0.004244  3.908418  0.005
C  C104  1  0.35833734  0.61198471  0.35868090  1  0.053078  0.005508  -0.0658  -0.120631  0.003889  3.889279  0.004
C  C105  1  0.32977049  0.38792422  0.64133069  1  0.063753  -0.00562  -0.066423  -0.123161  -0.004097  3.890233  -0.005
C  C106  1  0.72126887  0.88789584  0.85872155  1  0.059462  -0.005658  -0.065923  -0.120153  -0.004089  3.889584  -0.005
C  C107  1  0.46809652  0.11203359  0.14137335  1  0.043076  0.005523  -0.066247  -0.120832  0.00389  3.890475  0.004
C  C108  1  0.29210797  0.58163775  0.31718152  1  0.438394  -0.000721  0.05797  0.106515  0.000169  3.90527  0.0
C  C109  1  0.19200266  0.41831289  0.68285139  1  0.433424  0.000961  0.058536  0.108064  -0.000368  3.900591  0.001
C  C110  1  0.62437172  0.91829066  0.81725521  1  0.458071  0.000994  0.058154  0.10498  -0.000376  3.905875  0.001
C  C111  1  0.36042700  0.08162027  0.18285185  1  0.441288  -0.00075  0.057394  0.104043  0.000156  3.908517  0.0
C  C112  1  0.80304596  0.42099959  0.28805516  1  1.599403  -0.001273  0.195032  0.521585  0.000352  4.272462  -0.002
C  C113  1  0.51392093  0.57888864  0.71185857  1  1.607279  0.001608  0.194172  0.519549  -0.000408  4.273448  0.002
C  C114  1  0.97391198  0.07911214  0.78819831  1  1.609079  0.00161  0.194062  0.518615  -0.000402  4.275601  0.002
C  C115  1  0.84262121  0.92101947  0.21193141  1  1.610479  -0.001267  0.195621  0.521828  0.000352  4.275459  -0.002
C  C116  1  0.67378792  0.61064731  0.42257376  1  1.598162  -0.001385  0.199788  0.545145  1.4e-05  4.240124  -0.003
C  C117  1  0.70741477  0.38917699  0.57738321  1  1.581972  -0.001295  0.200904  0.548404  -2.6e-05  4.237046  -0.003
C  C118  1  0.03505308  0.88926773  0.92262783  1  1.571397  -0.001291  0.198981  0.544188  -1.7e-05  4.241814  -0.003
C  C119  1  0.84702090  0.11073526  0.07741984  1  1.592156  -0.001381  0.199398  0.545868  1.2e-05  4.243295  -0.003
C  C120  1  0.71378916  0.19942170  0.91879118  1  0.474749  0.000759  0.115464  0.157514  0.00103  4.015509  0.001
C  C121  1  0.83234792  0.80067490  0.08122705  1  0.428063  0.00082  0.116332  0.157798  0.001034  4.014739  0.001
C  C122  1  0.66308262  0.30059317  0.41873098  1  0.481244  0.00074  0.116093  0.159558  0.001034  4.012679  0.001
C  C123  1  0.38415245  0.69939793  0.58118662  1  0.438136  0.000761  0.116444  0.160011  0.001027  4.012941  0.001
C  C124  1  0.58192009  0.17266274  0.88330099  1  -0.047145  0.00333  -0.071731  -0.137443  0.002505  3.911384  0.002
C  C125  1  0.63848213  0.82738893  0.11676421  1  0.003497  0.003189  -0.07153  -0.135816  0.002415  3.911653  0.002
C  C126  1  0.50459651  0.32732959  0.38321461  1  0.000948  0.003236  -0.072055  -0.138179  0.002419  3.910139  0.002
C  C127  1  0.21705040  0.67267623  0.61673573  1  -0.044985  0.003305  -0.072414  -0.139835  0.002502  3.909565  0.002
C  C128  1  0.41777828  0.11907930  0.89482075  1  -0.091327  -0.004268  -0.066704  -0.020535  -0.002965  3.927839  -0.003
C  C129  1  0.43219266  0.88100687  0.10531388  1  -0.06422  -0.003521  -0.067712  -0.023393  -0.002502  3.929593  -0.002
C  C130  1  0.28686447  0.38094176  0.39467478  1  -0.105797  -0.003528  -0.066909  -0.021239  -0.002503  3.926976  -0.002
C  C131  1  0.06395444  0.61919198  0.60526384  1  -0.051699  -0.004249  -0.067326  -0.020901  -0.002962  3.926895  -0.003
C  C132  1  0.38726506  0.09342087  0.94151432  1  0.005044  0.005822  -0.076233  -0.127999  0.003954  3.927374  0.005
C  C133  1  0.42257348  0.90673960  0.05864192  1  -0.067054  0.005969  -0.075618  -0.126333  0.004033  3.925828  0.005
C  C134  1  0.23060615  0.40665702  0.44135368  1  0.044034  0.005857  -0.076196  -0.127529  0.00404  3.927295  0.005
C  C135  1  0.07979355  0.59352345  0.55858632  1  0.006859  0.005837  -0.076056  -0.126775  0.00395  3.926374  0.005
C  C136  1  0.52292609  0.12302352  0.97541163  1  0.483207  -0.002182  0.059832  0.112978  -0.000865  3.910024  -0.002
C  C137  1  0.62151425  0.87715924  0.02469465  1  0.491371  -0.002103  0.060433  0.114365  -0.000789  3.910642  -0.002
C  C138  1  0.39574408  0.37704021  0.47528038  1  0.412156  -0.001956  0.060366  0.114053  -0.00079  3.914532  -0.002
C  C139  1  0.24936531  0.62301340  0.52463828  1  0.497468  -0.002206  0.060455  0.113891  -0.000869  3.909952  -0.002
C  C140  1  0.88941574  0.25654369  0.91108977  1  0.418355  0.001007  0.117663  0.158447  0.001264  4.014423  0.001
C  C141  1  0.05725847  0.74351129  0.08891090  1  0.425557  0.001046  0.117411  0.157547  0.001246  4.014057  0.001
C  C142  1  0.89580387  0.24345155  0.41104838  1  0.421117  0.001056  0.117576  0.15648  0.001247  4.016234  0.001
C  C143  1  0.55190806  0.75655303  0.58882662  1  0.447278  0.001032  0.117065  0.157259  0.001258  4.015342  0.001
C  C144  1  0.93083242  0.29419981  0.86818229  1  0.002875  0.003299  -0.067008  -0.133493  0.002505  3.902184  0.002
C  C145  1  0.09325635  0.70585689  0.13182554  1  0.016722  0.003221  -0.066558  -0.132521  0.002459  3.90198  0.002
C  C146  1  0.97499733  0.20588941  0.36811214  1  -0.0035  0.003225  -0.066226  -0.132234  0.00246  3.902578  0.002
C  C147  1  0.55040587  0.79417823  0.63174471  1  0.039939  0.003311  -0.066077  -0.132611  0.002506  3.900225  0.003
C  C148  1  0.09954709  0.34799698  0.86523500  1  -0.029285  -0.00346  -0.055126  -0.006022  -0.00247  3.899679  -0.002
C  C149  1  0.31264187  0.65200307  0.13477786  1  -0.085188  -0.003566  -0.056048  -0.007411  -0.002521  3.900208  -0.002
C  C150  1  0.19746726  0.15208126  0.36513852  1  -0.030908  -0.003558  -0.056499  -0.006749  -0.002525  3.901843  -0.002
C  C151  1  0.71576146  0.84807324  0.63466523  1  -0.029726  -0.003464  -0.056834  -0.007393  -0.002472  3.898848  -0.002
C  C152  1  0.22309467  0.36269732  0.90517342  1  -0.041156  0.005585  -0.073592  -0.112827  0.003851  3.927993  0.005
C  C153  1  0.49088540  0.63727484  0.09485458  1  0.040777  0.00559  -0.073272  -0.112054  0.00392  3.930513  0.005
C  C154  1  0.33568441  0.13729513  0.40506885  1  -0.021976  0.005637  -0.073847  -0.11274  0.003923  3.927471  0.005
C  C155  1  0.87893267  0.86286863  0.59470894  1  -0.008773  0.005536  -0.07352  -0.113106  0.003855  3.929197  0.005
C  C156  1  0.17311122  0.32330516  0.94696779  1  0.453417  -0.001793  0.057824  0.11071  -0.000534  3.923532  -0.002
C  C157  1  0.44350035  0.67667400  0.05305565  1  0.449547  -0.001748  0.056912  0.109428  -0.000547  3.926037  -0.002
C  C158  1  0.24626988  0.17662399  0.44688897  1  0.486674  -0.001823  0.057631  0.10926  -0.000554  3.922184  -0.002
C  C159  1  0.87083689  0.82347699  0.55291612  1  0.4141  -0.001709  0.057614  0.110034  -0.000524  3.923693  -0.002
N  N160  1  0.28709905  0.41661632  0.18463189  1  -1.199536  0.078815  -0.350772  -0.238544  0.053743  3.641742  0.068
N  N161  1  0.89007165  0.58333748  0.81539152  1  -1.216305  -0.079266  -0.34988  -0.23739  -0.057508  3.642896  -0.068
N  N162  1  0.45396570  0.08338335  0.68467923  1  -1.212205  -0.079512  -0.350237  -0.237262  -0.057632  3.640673  -0.069
N  N163  1  0.22227818  0.91672047  0.31533199  1  -1.221519  0.078583  -0.350522  -0.238756  0.053532  3.643522  0.068
N  N164  1  0.43932399  0.52128179  0.29632900  1  -1.211631  0.078147  -0.349874  -0.234545  0.053377  3.643311  0.067
N  N165  1  0.25841905  0.47862081  0.70369359  1  -1.220322  -0.079031  -0.350471  -0.235311  -0.057424  3.641806  -0.068
N  N166  1  0.71099928  0.97868834  0.79641128  1  -1.214572  -0.079003  -0.350316  -0.235157  -0.057436  3.643267  -0.068
N  N167  1  0.48695869  0.02125560  0.20366584  1  -1.207453  0.07818  -0.349875  -0.234534  0.053406  3.644619  0.067
N  N168  1  0.68304428  0.17413191  0.96410444  1  -1.217699  0.086829  -0.344073  -0.276019  0.059024  3.613837  0.075
N  N169  1  0.82149305  0.82599567  0.03592867  1  -1.214284  0.086759  -0.344588  -0.277236  0.058938  3.613515  0.075
N  N170  1  0.60699187  0.32590830  0.46402839  1  -1.209271  0.086803  -0.344615  -0.278166  0.058992  3.614791  0.075
N  N171  1  0.39836031  0.67410420  0.53588084  1  -1.217527  0.086615  -0.344644  -0.277928  0.058954  3.613323  0.075
N  N172  1  0.00940488  0.27181086  0.94968484  1  -1.188446  0.087657  -0.347898  -0.283583  0.059571  3.643004  0.076
N  N173  1  0.23112815  0.72820456  0.05032054  1  -1.215671  0.087269  -0.347878  -0.281627  0.059318  3.641837  0.076
N  N174  1  0.03105378  0.22812919  0.44964035  1  -1.212837  0.08728  -0.347604  -0.280703  0.0593  3.640725  0.076
N  N175  1  0.71017373  0.77188986  0.55021345  1  -1.199659  0.087685  -0.348064  -0.28224  0.059595  3.643377  0.076
O  O176  1  0.05311118  0.53994373  0.22803174  1  -1.103579  0.11549  -0.332808  -0.540282  0.075586  2.313449  0.105
O  O177  1  0.82382589  0.45986799  0.77205024  1  -1.112811  -0.115099  -0.332207  -0.538782  -0.080164  2.311759  -0.105
O  O178  1  0.34439502  0.95994655  0.72803314  1  -1.105371  -0.114841  -0.332496  -0.539567  -0.080029  2.311182  -0.104
O  O179  1  0.03187202  0.03999493  0.27187076  1  -1.10637  0.115867  -0.332954  -0.540611  0.075945  2.309316  0.105
O  O180  1  0.71505454  0.55039368  0.18264585  1  -1.162247  0.024292  -0.307467  -0.540331  0.015704  2.198907  0.021
O  O181  1  0.45111844  0.44921755  0.81747767  1  -1.161527  -0.024051  -0.30773  -0.540236  -0.016614  2.199727  -0.021
O  O182  1  0.01683328  0.94934788  0.68267053  1  -1.158738  -0.023978  -0.308006  -0.540599  -0.016586  2.198804  -0.021
O  O183  1  0.64904860  0.05083431  0.31747971  1  -1.168106  0.024419  -0.307792  -0.540267  0.015791  2.197118  0.021
O  O184  1  0.79078882  0.35294318  0.05097610  1  -1.154575  0.001339  -0.328411  -0.549065  0.000556  2.097378  0.002
O  O185  1  0.19601156  0.64678932  0.94901547  1  -1.150235  0.002026  -0.327938  -0.548026  0.001013  2.098927  0.003
O  O186  1  0.89397085  0.14678840  0.55099756  1  -1.155533  0.002017  -0.328755  -0.549726  0.001006  2.096537  0.003
O  O187  1  0.59227401  0.85305974  0.44900293  1  -1.158824  0.001338  -0.329094  -0.550052  0.000557  2.09551  0.002
O  O188  1  0.13207539  0.25930319  0.04896975  1  -1.097717  0.120006  -0.328055  -0.521924  0.078654  2.287951  0.107
O  O189  1  0.44083221  0.74061187  0.95099008  1  -1.098113  0.12041  -0.327276  -0.521486  0.078672  2.287439  0.108
O  O190  1  0.14100117  0.24057162  0.54901567  1  -1.099112  0.120229  -0.327746  -0.52278  0.078626  2.287167  0.108
O  O191  1  0.93158798  0.75940785  0.45093871  1  -1.100634  0.120088  -0.327554  -0.52188  0.078686  2.287462  0.107
O  O192  1  0.68692053  0.40001228  0.25286960  1  -1.091707  0.110173  -0.332577  -0.534034  0.07198  2.300012  0.1
O  O193  1  0.34190734  0.59993011  0.74708445  1  -1.104726  -0.109348  -0.33206  -0.533251  -0.076247  2.299667  -0.099
O  O194  1  0.83681630  0.10006626  0.75299513  1  -1.110325  -0.109363  -0.332412  -0.533488  -0.076145  2.300919  -0.099
O  O195  1  0.69120682  0.90001428  0.24709791  1  -1.10897  0.110195  -0.332241  -0.533782  0.072165  2.299788  0.1
O  O196  1  0.01726707  0.38987926  0.30010690  1  -1.164189  0.022344  -0.312341  -0.530748  0.014355  2.159442  0.02
O  O197  1  0.70879799  0.61004096  0.69969019  1  -1.155683  -0.022211  -0.311753  -0.52943  -0.015249  2.159071  -0.02
O  O198  1  0.15621408  0.11044389  0.80036407  1  -1.156298  -0.022216  -0.311583  -0.52897  -0.015252  2.159205  -0.02
O  O199  1  0.06890831  0.88992517  0.19987191  1  -1.161876  0.022347  -0.312659  -0.531365  0.014367  2.162054  0.02
O  O200  1  0.85204419  0.57394173  0.44344075  1  -1.166282  2.7e-05  -0.316954  -0.542871  -0.000353  2.118395  0.0
O  O201  1  0.87083846  0.42566389  0.55664376  1  -1.167045  0.0007  -0.317809  -0.544555  0.000105  2.11826  0.001
O  O202  1  0.17695825  0.92587482  0.94347413  1  -1.162487  0.000694  -0.316319  -0.542224  9.9e-05  2.121466  0.001
O  O203  1  0.04642508  0.07414310  0.05657164  1  -1.165151  1.9e-05  -0.316579  -0.543101  -0.000357  2.121366  0.0
O  O204  1  0.54591293  0.67583007  0.43496709  1  -1.103428  0.108444  -0.322482  -0.51886  0.071237  2.376526  0.098
O  O205  1  0.65565464  0.32423707  0.56483543  1  -1.105457  0.108602  -0.322724  -0.519938  0.071257  2.375056  0.098
O  O206  1  0.97154737  0.82419366  0.93506751  1  -1.101974  0.108477  -0.321804  -0.518131  0.071068  2.37823  0.098
O  O207  1  0.73058001  0.17575498  0.06495014  1  -1.100995  0.108438  -0.322206  -0.519519  0.071167  2.379118  0.098
