# generated using pymatgen
data_CuH3C5N2
_symmetry_space_group_name_H-M   'P 1'
_cell_length_a   6.73512475
_cell_length_b   9.45272186
_cell_length_c   15.34923386
_cell_angle_alpha   83.84402963
_cell_angle_beta   81.44106106
_cell_angle_gamma   72.24912039
_symmetry_Int_Tables_number   1
_chemical_formula_structural   CuH3C5N2
_chemical_formula_sum   'Cu8 H24 C40 N16'
_cell_volume   918.33662026
_cell_formula_units_Z   8
loop_
 _symmetry_equiv_pos_site_id
 _symmetry_equiv_pos_as_xyz
  1  'x, y, z'
loop_
 _atom_site_type_symbol
 _atom_site_label
 _atom_site_symmetry_multiplicity
 _atom_site_fract_x
 _atom_site_fract_y
 _atom_site_fract_z
 _atom_site_occupancy
 _atom_site_hle17_bader_spin_density
 _atom_site_hle17_ddec_charge
 _atom_site_hle17_ddec_spin_density
 _atom_site_hle17_ddec_sum_bond_order
 _atom_site_hle17_magmom
 _atom_site_hse06_10hf_bader_spin_density
 _atom_site_hse06_10hf_ddec_charge
 _atom_site_hse06_10hf_ddec_spin_density
 _atom_site_hse06_10hf_ddec_sum_bond_order
 _atom_site_hse06_10hf_magmom
 _atom_site_hse06_bader_spin_density
 _atom_site_hse06_ddec_charge
 _atom_site_hse06_ddec_spin_density
 _atom_site_hse06_ddec_sum_bond_order
 _atom_site_hse06_magmom
 _atom_site_pbe_bader_spin_density
 _atom_site_pbe_cm5_charge
 _atom_site_pbe_ddec_charge
 _atom_site_pbe_ddec_spin_density
 _atom_site_pbe_ddec_sum_bond_order
 _atom_site_pbe_magmom
Cu  Cu0  1  0.54311504  0.74076797  0.64816708  1  0  0.538876  0  1.9467  0  0  0.4275  0  2.429829  0  0  0.426394  0  2.386242  0  0  0.58407  0.433614  0  2.455541  0
Cu  Cu1  1  0.45687920  0.25922221  0.35183240  1  0  0.538789  0  1.94646  0  0  0.427408  0  2.42963  0  0  0.426344  0  2.385994  0  0  0.584018  0.433523  0  2.455335  0
Cu  Cu2  1  0.35596808  0.91556083  0.14870219  1  0  0.530929  0  1.984423  0  0  0.438269  0  2.443108  0  0  0.429244  0  2.411559  0  0  0.595727  0.450216  0  2.460613  0
Cu  Cu3  1  0.64403972  0.08443958  0.85129703  1  0  0.530879  0  1.984398  0  0  0.438227  0  2.443089  0  0  0.42922  0  2.411535  0  0  0.595711  0.450184  0  2.460578  0
Cu  Cu4  1  0.65829409  0.51693866  0.94756787  1  0  0.276856  0  2.495972  0  0  0.215483  0  2.974176  0  0  0.195015  0  2.941776  0  0  0.425695  0.233424  0  2.992658  0
Cu  Cu5  1  0.34171719  0.48306067  0.05243315  1  0  0.276856  0  2.495951  0  0  0.21551  0  2.974138  0  0  0.195101  0  2.941733  0  0  0.425746  0.233461  0  2.992622  0
Cu  Cu6  1  0.09720477  0.08436379  0.44809726  1  0  0.27772  0  2.465144  0  0  0.21081  0  2.948644  0  0  0.195286  0  2.906673  0  0  0.428511  0.225386  0  2.97386  0
Cu  Cu7  1  0.90280008  0.91563994  0.55190324  1  0  0.277711  0  2.464954  0  0  0.210781  0  2.948454  0  0  0.195277  0  2.906459  0  0  0.428485  0.225326  0  2.973731  0
H  H8  1  0.93603482  0.30300635  0.32255225  1  0  0.104326  0  0.972012  0  0  0.110865  0  1.043477  0  0  0.114804  0  1.039542  0  0  0.101559  0.107903  0  1.046532  0
H  H9  1  0.06395852  0.69699277  0.67744539  1  0  0.104326  0  0.971996  0  0  0.110858  0  1.043468  0  0  0.114799  0  1.039532  0  0  0.101588  0.107898  0  1.046522  0
H  H10  1  0.76680795  0.43470617  0.69228459  1  0  0.091014  0  0.953293  0  0  0.102705  0  1.009938  0  0  0.104661  0  1.009256  0  0  0.119613  0.101325  0  1.010379  0
H  H11  1  0.23318588  0.56529184  0.30771375  1  0  0.091107  0  0.95338  0  0  0.102757  0  1.010024  0  0  0.1047  0  1.009355  0  0  0.119665  0.101376  0  1.010466  0
H  H12  1  0.08179053  0.20903125  0.18667723  1  0  0.09535  0  0.955195  0  0  0.107162  0  1.009466  0  0  0.108442  0  1.010119  0  0  0.12064  0.106165  0  1.00931  0
H  H13  1  0.91821784  0.79097476  0.81332353  1  0  0.095312  0  0.955269  0  0  0.107135  0  1.009506  0  0  0.108412  0  1.010162  0  0  0.120625  0.106138  0  1.009349  0
H  H14  1  0.90752548  0.32881440  0.82193533  1  0  0.098742  0  0.975701  0  0  0.105229  0  1.04817  0  0  0.109037  0  1.04442  0  0  0.098969  0.102441  0  1.050755  0
H  H15  1  0.09246936  0.67118474  0.17806873  1  0  0.098759  0  0.97577  0  0  0.105246  0  1.048232  0  0  0.109045  0  1.044496  0  0  0.098984  0.102456  0  1.05082  0
H  H16  1  0.39427996  0.88580403  0.96585555  1  0  0.115602  0  0.983654  0  0  0.123596  0  1.049606  0  0  0.125905  0  1.048658  0  0  0.10461  0.121877  0  1.050251  0
H  H17  1  0.60571637  0.11419512  0.03414581  1  0  0.115524  0  0.9836  0  0  0.123503  0  1.049585  0  0  0.12581  0  1.048641  0  0  0.104554  0.121786  0  1.05023  0
H  H18  1  0.54066831  0.77913857  0.46231284  1  0  0.121483  0  0.970022  0  0  0.131369  0  1.031645  0  0  0.133706  0  1.031679  0  0  0.108436  0.129823  0  1.031103  0
H  H19  1  0.45932798  0.22085723  0.53768614  1  0  0.121487  0  0.970033  0  0  0.131384  0  1.031639  0  0  0.133722  0  1.031674  0  0  0.108433  0.129839  0  1.031096  0
H  H20  1  0.96830487  0.19726228  0.62063952  1  0  0.08452  0  0.97176  0  0  0.093063  0  1.036857  0  0  0.095046  0  1.035594  0  0  0.114919  0.091566  0  1.037839  0
H  H21  1  0.03170592  0.80273816  0.37935885  1  0  0.084495  0  0.971773  0  0  0.093019  0  1.0369  0  0  0.095  0  1.035638  0  0  0.11494  0.091528  0  1.037872  0
H  H22  1  0.13034450  0.11467992  0.73278829  1  0  0.096582  0  0.95299  0  0  0.110324  0  1.007285  0  0  0.111339  0  1.008902  0  0  0.104158  0.109492  0  1.006385  0
H  H23  1  0.86964836  0.88532031  0.26721387  1  0  0.096572  0  0.953023  0  0  0.110313  0  1.007318  0  0  0.111328  0  1.008935  0  0  0.104169  0.10948  0  1.006421  0
H  H24  1  0.76101308  0.53116466  0.22979515  1  0  0.093756  0  0.955481  0  0  0.10803  0  1.009457  0  0  0.109293  0  1.010915  0  0  0.102905  0.107013  0  1.008664  0
H  H25  1  0.23897877  0.46883444  0.77020390  1  0  0.093735  0  0.955578  0  0  0.108078  0  1.009464  0  0  0.109285  0  1.010993  0  0  0.102921  0.107059  0  1.00868  0
H  H26  1  0.83186875  0.42875692  0.11395781  1  0  0.08223  0  0.965417  0  0  0.091987  0  1.029446  0  0  0.094249  0  1.027085  0  0  0.114795  0.090421  0  1.031209  0
H  H27  1  0.16813764  0.57125018  0.88604301  1  0  0.082312  0  0.965436  0  0  0.092045  0  1.029494  0  0  0.09431  0  1.027131  0  0  0.114819  0.090481  0  1.031256  0
H  H28  1  0.56474719  0.76514777  0.30031267  1  0  0.096777  0  0.982926  0  0  0.102581  0  1.051862  0  0  0.106381  0  1.049657  0  0  0.100114  0.099787  0  1.053432  0
H  H29  1  0.43525661  0.23485147  0.69968558  1  0  0.096813  0  0.982905  0  0  0.102616  0  1.051842  0  0  0.106417  0  1.049636  0  0  0.100123  0.099823  0  1.053409  0
H  H30  1  0.37153909  0.89695843  0.80471198  1  0  0.10191  0  0.980348  0  0  0.107839  0  1.047616  0  0  0.111172  0  1.045458  0  0  0.100289  0.105252  0  1.049474  0
H  H31  1  0.62845922  0.10303962  0.19528997  1  0  0.101949  0  0.980397  0  0  0.10791  0  1.047603  0  0  0.111241  0  1.045443  0  0  0.100314  0.105301  0  1.049485  0
C  C32  1  0.02779434  0.22785494  0.94292150  1  0  0.165505  0  3.723101  0  0  0.167653  0  3.952136  0  0  0.168353  0  3.977006  0  0  0.112027  0.166725  0  3.936487  0
C  C33  1  0.97220252  0.77214645  0.05708097  1  0  0.165484  0  3.723103  0  0  0.167627  0  3.952106  0  0  0.168327  0  3.976971  0  0  0.112054  0.166701  0  3.936462  0
C  C34  1  0.16786112  0.10112031  0.98467984  1  0  0.166224  0  3.742425  0  0  0.169028  0  3.974927  0  0  0.170086  0  3.998089  0  0  0.111744  0.167373  0  3.960484  0
C  C35  1  0.83213772  0.89887999  0.01532258  1  0  0.166292  0  3.742525  0  0  0.16918  0  3.974896  0  0  0.170257  0  3.998036  0  0  0.111839  0.167521  0  3.960458  0
C  C36  1  0.71747277  0.54860880  0.48465296  1  0  0.153473  0  3.748543  0  0  0.155308  0  3.984536  0  0  0.156654  0  4.00817  0  0  0.10768  0.154268  0  3.969193  0
C  C37  1  0.28252207  0.45139034  0.51534459  1  0  0.153624  0  3.748362  0  0  0.155391  0  3.984435  0  0  0.156776  0  4.008021  0  0  0.107717  0.15435  0  3.969096  0
C  C38  1  0.84674977  0.40768138  0.35127835  1  0  -0.136315  0  3.730508  0  0  -0.160941  0  3.993985  0  0  -0.162094  0  4.010292  0  0  -0.086817  -0.160971  0  3.983976  0
C  C39  1  0.15325101  0.59231447  0.64871968  1  0  -0.136235  0  3.730602  0  0  -0.160854  0  3.994078  0  0  -0.162  0  4.010364  0  0  -0.086837  -0.160883  0  3.984062  0
C  C40  1  0.83128745  0.41239596  0.44389186  1  0  0.15385  0  3.736696  0  0  0.152124  0  3.973883  0  0  0.153817  0  3.996545  0  0  0.108198  0.150919  0  3.958957  0
C  C41  1  0.16871086  0.58760210  0.55610553  1  0  0.153837  0  3.736772  0  0  0.15214  0  3.973936  0  0  0.153822  0  3.996596  0  0  0.108269  0.150941  0  3.959006  0
C  C42  1  0.78537706  0.43041958  0.62079163  1  0  0.093357  0  3.677962  0  0  0.067474  0  3.924338  0  0  0.072089  0  3.937794  0  0  0.054733  0.064369  0  3.915917  0
C  C43  1  0.21461826  0.56957845  0.37920726  1  0  0.093174  0  3.678222  0  0  0.067351  0  3.924553  0  0  0.071978  0  3.938015  0  0  0.054689  0.064243  0  3.916135  0
C  C44  1  0.06774346  0.21259987  0.11666241  1  0  0.094759  0  3.672129  0  0  0.068866  0  3.921204  0  0  0.073415  0  3.933146  0  0  0.056607  0.064967  0  3.915116  0
C  C45  1  0.93226385  0.78740164  0.88333937  1  0  0.094774  0  3.672099  0  0  0.068922  0  3.921173  0  0  0.073474  0  3.933119  0  0  0.056652  0.065022  0  3.915084  0
C  C46  1  0.01523843  0.23092024  0.85158393  1  0  -0.139706  0  3.72928  0  0  -0.164164  0  3.990094  0  0  -0.165231  0  4.00565  0  0  -0.088008  -0.163218  0  3.980167  0
C  C47  1  0.98475641  0.76907890  0.14841948  1  0  -0.139662  0  3.729276  0  0  -0.164134  0  3.990104  0  0  -0.1652  0  4.005663  0  0  -0.087932  -0.163183  0  3.980181  0
C  C48  1  0.29123305  0.98227923  0.93331885  1  0  -0.145309  0  3.712307  0  0  -0.171077  0  3.971705  0  0  -0.171432  0  3.986506  0  0  -0.094738  -0.170946  0  3.962645  0
C  C49  1  0.70876575  0.01771771  0.06668379  1  0  -0.145238  0  3.712078  0  0  -0.171051  0  3.971486  0  0  -0.171409  0  3.986279  0  0  -0.094748  -0.170905  0  3.962387  0
C  C50  1  0.62495431  0.67608507  0.43103931  1  0  -0.131078  0  3.69141  0  0  -0.153675  0  3.939283  0  0  -0.158087  0  3.963051  0  0  -0.086909  -0.150654  0  3.922814  0
C  C51  1  0.37504352  0.32391410  0.56895999  1  0  -0.131077  0  3.691411  0  0  -0.153652  0  3.939284  0  0  -0.158079  0  3.963049  0  0  -0.086856  -0.150634  0  3.922816  0
C  C52  1  0.89870361  0.29773147  0.58084466  1  0  0.086007  0  3.667953  0  0  0.056511  0  3.919025  0  0  0.061057  0  3.932439  0  0  0.054995  0.052501  0  3.911581  0
C  C53  1  0.10130116  0.70226555  0.41915302  1  0  0.086059  0  3.66796  0  0  0.056552  0  3.919042  0  0  0.061099  0  3.932455  0  0  0.054941  0.052548  0  3.911589  0
C  C54  1  0.13812220  0.11357237  0.80318060  1  0  -0.033554  0  3.731632  0  0  -0.050039  0  3.984682  0  0  -0.049786  0  4.001743  0  0  -0.076737  -0.051007  0  3.97451  0
C  C55  1  0.86187313  0.88642565  0.19682351  1  0  -0.03341  0  3.731548  0  0  -0.049912  0  3.984594  0  0  -0.049658  0  4.001654  0  0  -0.076719  -0.050886  0  3.974428  0
C  C56  1  0.75216396  0.53340154  0.30106930  1  0  -0.040883  0  3.731955  0  0  -0.05537  0  3.979122  0  0  -0.05773  0  4.002476  0  0  -0.079212  -0.05395  0  3.964096  0
C  C57  1  0.24783188  0.46659873  0.69892940  1  0  -0.040938  0  3.73206  0  0  -0.055472  0  3.979222  0  0  -0.057792  0  4.002589  0  0  -0.079255  -0.054053  0  3.964194  0
C  C58  1  0.92944909  0.33615346  0.07582042  1  0  0.085428  0  3.67099  0  0  0.050727  0  3.935535  0  0  0.057012  0  3.944137  0  0  0.053227  0.045685  0  3.93299  0
C  C59  1  0.07055080  0.66385133  0.92417968  1  0  0.085279  0  3.671122  0  0  0.050556  0  3.935719  0  0  0.05685  0  3.944306  0  0  0.053172  0.045523  0  3.933174  0
C  C60  1  0.64075743  0.66759077  0.34100640  1  0  -0.046396  0  3.734063  0  0  -0.05695  0  3.978656  0  0  -0.060187  0  4.002305  0  0  -0.080521  -0.054923  0  3.962825  0
C  C61  1  0.35924338  0.33240843  0.65899205  1  0  -0.046471  0  3.734153  0  0  -0.05704  0  3.97877  0  0  -0.060274  0  4.002403  0  0  -0.080561  -0.055013  0  3.962937  0
C  C62  1  0.27697781  0.98898370  0.84397468  1  0  -0.048123  0  3.736256  0  0  -0.060906  0  3.98762  0  0  -0.060143  0  4.002441  0  0  -0.086016  -0.06212  0  3.979143  0
C  C63  1  0.72301704  0.01101543  0.15602872  1  0  -0.048287  0  3.736168  0  0  -0.061068  0  3.987472  0  0  -0.060302  0  4.002289  0  0  -0.086064  -0.062265  0  3.979013  0
C  C64  1  0.54053254  0.63626335  0.04927362  1  0  -0.082083  0  3.536229  0  0  -0.093751  0  3.917929  0  0  -0.070947  0  3.903252  0  0  -0.069712  -0.10952  0  3.926649  0
C  C65  1  0.45945894  0.36374693  0.95072536  1  0  -0.082121  0  3.535294  0  0  -0.093809  0  3.917047  0  0  -0.071004  0  3.902384  0  0  -0.069758  -0.109589  0  3.925772  0
C  C66  1  0.21237405  0.03350841  0.33265064  1  0  -0.073401  0  3.488159  0  0  -0.080647  0  3.857011  0  0  -0.062829  0  3.848035  0  0  -0.04832  -0.094114  0  3.863361  0
C  C67  1  0.78763226  0.96649198  0.66735324  1  0  -0.073362  0  3.488602  0  0  -0.080602  0  3.857431  0  0  -0.062785  0  3.84845  0  0  -0.048321  -0.09406  0  3.863786  0
C  C68  1  0.64245362  0.60471569  0.83190536  1  0  -0.072268  0  3.463571  0  0  -0.079884  0  3.819632  0  0  -0.064521  0  3.818786  0  0  -0.047786  -0.090226  0  3.818936  0
C  C69  1  0.35755568  0.39528473  0.16809572  1  0  -0.072261  0  3.463732  0  0  -0.079884  0  3.819774  0  0  -0.064539  0  3.818957  0  0  -0.04778  -0.090227  0  3.819083  0
C  C70  1  0.22556260  0.96957799  0.54782381  1  0  -0.069618  0  3.510062  0  0  -0.075486  0  3.875539  0  0  -0.055104  0  3.864607  0  0  -0.057687  -0.089733  0  3.881855  0
C  C71  1  0.77443930  0.03042906  0.45217340  1  0  -0.069704  0  3.510428  0  0  -0.075573  0  3.875882  0  0  -0.055201  0  3.864962  0  0  -0.057672  -0.08981  0  3.882206  0
N  N72  1  0.90540126  0.34467174  0.99092390  1  0  -0.248358  0  3.274482  0  0  -0.188479  0  3.552555  0  0  -0.193097  0  3.561042  0  0  -0.32606  -0.187594  0  3.549007  0
N  N73  1  0.09460057  0.65532860  0.00907702  1  0  -0.248359  0  3.274318  0  0  -0.188493  0  3.552446  0  0  -0.193118  0  3.56094  0  0  -0.32614  -0.187626  0  3.548913  0
N  N74  1  0.92578845  0.28772861  0.49400693  1  0  -0.245038  0  3.294601  0  0  -0.18425  0  3.574827  0  0  -0.188444  0  3.581241  0  0  -0.328917  -0.182398  0  3.571294  0
N  N75  1  0.07421337  0.71227172  0.50599138  1  0  -0.245051  0  3.294571  0  0  -0.184262  0  3.574796  0  0  -0.188459  0  3.581219  0  0  -0.328942  -0.182413  0  3.571275  0
N  N76  1  0.69916003  0.55561418  0.57457521  1  0  -0.291094  0  3.271803  0  0  -0.231184  0  3.561263  0  0  -0.235387  0  3.564515  0  0  -0.323126  -0.229666  0  3.560024  0
N  N77  1  0.30083230  0.44438380  0.42542257  1  0  -0.291162  0  3.271897  0  0  -0.231237  0  3.561324  0  0  -0.235456  0  3.564567  0  0  -0.323178  -0.229722  0  3.560089  0
N  N78  1  0.18401127  0.09525298  0.07312362  1  0  -0.284943  0  3.266877  0  0  -0.223667  0  3.546738  0  0  -0.227968  0  3.553176  0  0  -0.32284  -0.221904  0  3.543629  0
N  N79  1  0.81599008  0.90474846  0.92687856  1  0  -0.284933  0  3.266632  0  0  -0.223733  0  3.54654  0  0  -0.228052  0  3.552987  0  0  -0.322922  -0.22197  0  3.543427  0
N  N80  1  0.48911893  0.73797418  0.09473289  1  0  -0.422965  0  3.321043  0  0  -0.357926  0  3.668903  0  0  -0.369736  0  3.666699  0  0  -0.444211  -0.350533  0  3.668839  0
N  N81  1  0.51088435  0.26202282  0.90526164  1  0  -0.423035  0  3.320089  0  0  -0.357982  0  3.667994  0  0  -0.369791  0  3.665776  0  0  -0.444245  -0.350594  0  3.667941  0
N  N82  1  0.35027575  0.89415363  0.59300108  1  0  -0.424081  0  3.325166  0  0  -0.353976  0  3.674222  0  0  -0.368208  0  3.671314  0  0  -0.447298  -0.345495  0  3.674936  0
N  N83  1  0.64973497  0.10584010  0.40700360  1  0  -0.423889  0  3.32541  0  0  -0.353777  0  3.674432  0  0  -0.368016  0  3.671534  0  0  -0.447257  -0.345287  0  3.675117  0
N  N84  1  0.27541427  0.98233659  0.26351580  1  0  -0.436494  0  3.341868  0  0  -0.37033  0  3.680842  0  0  -0.384357  0  3.683202  0  0  -0.44426  -0.361365  0  3.678623  0
N  N85  1  0.72459648  0.01766050  0.73648084  1  0  -0.436478  0  3.342363  0  0  -0.37031  0  3.681308  0  0  -0.384342  0  3.683674  0  0  -0.444233  -0.361347  0  3.679085  0
N  N86  1  0.61180774  0.66364143  0.76142574  1  0  -0.433541  0  3.34683  0  0  -0.361749  0  3.685998  0  0  -0.377161  0  3.689574  0  0  -0.445036  -0.352128  0  3.68231  0
N  N87  1  0.38819606  0.33635781  0.23857187  1  0  -0.433506  0  3.346969  0  0  -0.361715  0  3.686164  0  0  -0.377127  0  3.689746  0  0  -0.445022  -0.352089  0  3.682465  0
