# generated using pymatgen
data_CsH15C16SO9
_symmetry_space_group_name_H-M   'P 1'
_cell_length_a   6.85626614
_cell_length_b   9.44976718
_cell_length_c   14.70529915
_cell_angle_alpha   102.47168997
_cell_angle_beta   96.45919257
_cell_angle_gamma   108.25227434
_symmetry_Int_Tables_number   1
_chemical_formula_structural   CsH15C16SO9
_chemical_formula_sum   'Cs2 H30 C32 S2 O18'
_cell_volume   866.64023159
_cell_formula_units_Z   2
loop_
 _symmetry_equiv_pos_site_id
 _symmetry_equiv_pos_as_xyz
  1  'x, y, z'
loop_
 _atom_site_type_symbol
 _atom_site_label
 _atom_site_symmetry_multiplicity
 _atom_site_fract_x
 _atom_site_fract_y
 _atom_site_fract_z
 _atom_site_occupancy
 _atom_site_hle17_bader_spin_density
 _atom_site_hle17_ddec_charge
 _atom_site_hle17_ddec_spin_density
 _atom_site_hle17_ddec_sum_bond_order
 _atom_site_hle17_magmom
 _atom_site_hse06_10hf_bader_spin_density
 _atom_site_hse06_10hf_ddec_charge
 _atom_site_hse06_10hf_ddec_spin_density
 _atom_site_hse06_10hf_ddec_sum_bond_order
 _atom_site_hse06_10hf_magmom
 _atom_site_hse06_bader_spin_density
 _atom_site_hse06_ddec_charge
 _atom_site_hse06_ddec_spin_density
 _atom_site_hse06_ddec_sum_bond_order
 _atom_site_hse06_magmom
 _atom_site_pbe_bader_spin_density
 _atom_site_pbe_cm5_charge
 _atom_site_pbe_ddec_charge
 _atom_site_pbe_ddec_spin_density
 _atom_site_pbe_ddec_sum_bond_order
 _atom_site_pbe_magmom
Cs  Cs0  1  0.21679818  0.24916276  0.49269531  1  0  0.972776  0  0.513768  0  0  0.926698  0  0.731663  0  0  0.94052  0  0.708988  0  0  0.850474  0.915127  0  0.749224  0
Cs  Cs1  1  0.78319814  0.75083521  0.50730373  1  0  0.972778  0  0.513782  0  0  0.926674  0  0.731684  0  0  0.940504  0  0.70901  0  0  0.85045  0.915103  0  0.749247  0
H  H2  1  0.14692926  0.94348777  0.19455842  1  0  0.121338  0  0.966731  0  0  0.127868  0  1.03198  0  0  0.132019  0  1.029256  0  0  0.107708  0.124924  0  1.033878  0
H  H3  1  0.85306007  0.05651141  0.80544300  1  0  0.121341  0  0.966628  0  0  0.127882  0  1.031877  0  0  0.132034  0  1.029153  0  0  0.107685  0.124937  0  1.033775  0
H  H4  1  0.05251997  0.08021196  0.07927707  1  0  0.078456  0  0.992339  0  0  0.08518  0  1.067413  0  0  0.087962  0  1.064815  0  0  0.095172  0.083217  0  1.068955  0
H  H5  1  0.94747312  0.91978257  0.92072266  1  0  0.078498  0  0.992314  0  0  0.085207  0  1.067415  0  0  0.087988  0  1.064819  0  0  0.095174  0.083245  0  1.068957  0
H  H6  1  0.54606998  0.12739930  0.21635521  1  0  0.10939  0  0.9508  0  0  0.119474  0  1.014949  0  0  0.122887  0  1.012094  0  0  0.108301  0.11702  0  1.017152  0
H  H7  1  0.45392103  0.87259180  0.78364938  1  0  0.109477  0  0.950713  0  0  0.119452  0  1.014971  0  0  0.122861  0  1.012128  0  0  0.108296  0.116998  0  1.017173  0
H  H8  1  0.68140631  0.01959098  0.94845899  1  0  0.088951  0  0.944211  0  0  0.095467  0  1.012624  0  0  0.097832  0  1.009907  0  0  0.121607  0.094974  0  1.012543  0
H  H9  1  0.31859901  0.98041393  0.05154360  1  0  0.088962  0  0.944113  0  0  0.095463  0  1.012567  0  0  0.097827  0  1.009848  0  0  0.121588  0.094971  0  1.012486  0
H  H10  1  0.62639822  0.36223261  0.79227729  1  0  0.158155  0  0.958999  0  0  0.163962  0  1.023496  0  0  0.168922  0  1.020177  0  0  0.116032  0.160221  0  1.026281  0
H  H11  1  0.37361464  0.63777453  0.20771863  1  0  0.158184  0  0.959011  0  0  0.163973  0  1.023519  0  0  0.168932  0  1.020202  0  0  0.116056  0.160242  0  1.026303  0
H  H12  1  0.74031750  0.79160050  0.00527626  1  0  0.101098  0  0.969588  0  0  0.109839  0  1.037763  0  0  0.112449  0  1.037736  0  0  0.098641  0.108992  0  1.036245  0
H  H13  1  0.25967248  0.20839982  0.99472399  1  0  0.101038  0  0.96957  0  0  0.1098  0  1.037731  0  0  0.11239  0  1.037757  0  0  0.098632  0.108954  0  1.03621  0
H  H14  1  0.82337571  0.67039407  0.13197990  1  0  0.106121  0  0.944596  0  0  0.115134  0  1.006699  0  0  0.118342  0  1.003813  0  0  0.106656  0.112699  0  1.008821  0
H  H15  1  0.17660472  0.32959817  0.86801661  1  0  0.106126  0  0.944511  0  0  0.11508  0  1.006677  0  0  0.118289  0  1.003788  0  0  0.106623  0.112646  0  1.008798  0
H  H16  1  0.67936366  0.53968811  0.70089410  1  0  0.10323  0  0.944551  0  0  0.123317  0  1.002939  0  0  0.123756  0  1.002896  0  0  0.11134  0.122712  0  1.003279  0
H  H17  1  0.32065206  0.46031447  0.29911165  1  0  0.103189  0  0.944504  0  0  0.123311  0  1.002846  0  0  0.12376  0  1.002788  0  0  0.111335  0.122706  0  1.003186  0
H  H18  1  0.52092959  0.65853753  0.69378183  1  0  0.097604  0  0.944997  0  0  0.114312  0  1.011757  0  0  0.114925  0  1.011392  0  0  0.110959  0.113333  0  1.012802  0
H  H19  1  0.47907256  0.34145922  0.30621065  1  0  0.097534  0  0.945015  0  0  0.114245  0  1.011818  0  0  0.114857  0  1.011455  0  0  0.110928  0.113267  0  1.012864  0
H  H20  1  0.41581461  0.47824196  0.72285034  1  0  0.092579  0  0.948948  0  0  0.106891  0  1.018418  0  0  0.107939  0  1.01731  0  0  0.105547  0.105877  0  1.019487  0
H  H21  1  0.58419322  0.52175250  0.27714905  1  0  0.092555  0  0.948962  0  0  0.106919  0  1.018368  0  0  0.107963  0  1.017273  0  0  0.105565  0.105904  0  1.019441  0
H  H22  1  0.69719626  0.25515712  0.48024240  1  0  0.416347  0  0.890135  0  0  0.386496  0  0.953052  0  0  0.396618  0  0.938174  0  0  0.288697  0.378916  0  0.964121  0
H  H23  1  0.30280888  0.74484660  0.51975526  1  0  0.416294  0  0.890204  0  0  0.386461  0  0.953098  0  0  0.396582  0  0.938222  0  0  0.288732  0.378881  0  0.964165  0
H  H24  1  0.80815269  0.42640504  0.54582227  1  0  0.418516  0  0.889906  0  0  0.389161  0  0.95165  0  0  0.400018  0  0.935631  0  0  0.28349  0.381405  0  0.963144  0
H  H25  1  0.19185820  0.57359866  0.45417715  1  0  0.418565  0  0.889837  0  0  0.389208  0  0.951584  0  0  0.400065  0  0.935566  0  0  0.283511  0.381452  0  0.963079  0
H  H26  1  0.94494913  0.42700256  0.30482785  1  0  0.428798  0  0.871992  0  0  0.396396  0  0.938469  0  0  0.407178  0  0.922595  0  0  0.287919  0.388686  0  0.949764  0
H  H27  1  0.05505812  0.57300002  0.69517322  1  0  0.428799  0  0.872  0  0  0.396393  0  0.938484  0  0  0.407177  0  0.922605  0  0  0.287914  0.388682  0  0.949781  0
H  H28  1  0.87693881  0.40130950  0.40290125  1  0  0.40171  0  0.911258  0  0  0.371271  0  0.976311  0  0  0.381759  0  0.961029  0  0  0.279085  0.363895  0  0.987057  0
H  H29  1  0.12306734  0.59869076  0.59709944  1  0  0.401703  0  0.911264  0  0  0.371264  0  0.976314  0  0  0.381748  0  0.961038  0  0  0.27908  0.363888  0  0.987058  0
H  H30  1  0.11657900  0.90828537  0.33699145  1  0  0.402308  0  0.847302  0  0  0.381266  0  0.912173  0  0  0.391736  0  0.900085  0  0  0.318545  0.37391  0  0.920456  0
H  H31  1  0.88341923  0.09170799  0.66301053  1  0  0.402316  0  0.847301  0  0  0.381275  0  0.912188  0  0  0.391747  0  0.900098  0  0  0.318533  0.373916  0  0.920473  0
C  C32  1  0.90275257  0.96051113  0.27065437  1  0  0.330118  0  3.806164  0  0  0.315019  0  4.068177  0  0  0.328437  0  4.083191  0  0  0.07982  0.305539  0  4.058401  0
C  C33  1  0.09725704  0.03949378  0.72934988  1  0  0.330074  0  3.806103  0  0  0.314998  0  4.068151  0  0  0.328417  0  4.083164  0  0  0.079849  0.305517  0  4.058377  0
C  C34  1  0.01389167  0.98260785  0.19763174  1  0  -0.193793  0  3.745603  0  0  -0.211155  0  3.998598  0  0  -0.217861  0  4.016939  0  0  -0.106371  -0.206892  0  3.986768  0
C  C35  1  0.98610526  0.01738550  0.80236811  1  0  -0.193835  0  3.745609  0  0  -0.211201  0  3.998603  0  0  -0.217908  0  4.016944  0  0  -0.106384  -0.206938  0  3.986775  0
C  C36  1  0.96049724  0.05893465  0.13365691  1  0  -0.079112  0  3.778677  0  0  -0.1034  0  4.031747  0  0  -0.100467  0  4.049329  0  0  -0.090738  -0.104822  0  4.019453  0
C  C37  1  0.03950199  0.94106104  0.86634680  1  0  -0.079257  0  3.778375  0  0  -0.10355  0  4.031467  0  0  -0.100616  0  4.049045  0  0  -0.090793  -0.104975  0  4.019179  0
C  C38  1  0.79641817  0.11671680  0.14034913  1  0  0.052493  0  3.807646  0  0  0.066655  0  4.047742  0  0  0.064755  0  4.072084  0  0  -0.022357  0.068106  0  4.031089  0
C  C39  1  0.20359061  0.88327999  0.85965266  1  0  0.05264  0  3.807717  0  0  0.066789  0  4.047741  0  0  0.064892  0  4.072077  0  0  -0.022319  0.068241  0  4.031088  0
C  C40  1  0.67840916  0.08778823  0.21051487  1  0  -0.075451  0  3.721292  0  0  -0.114895  0  3.982563  0  0  -0.110571  0  3.997983  0  0  -0.08297  -0.118423  0  3.972861  0
C  C41  1  0.32159080  0.91220981  0.78949395  1  0  -0.075594  0  3.721435  0  0  -0.114928  0  3.982775  0  0  -0.110606  0  3.998192  0  0  -0.08299  -0.118458  0  3.973074  0
C  C42  1  0.72622547  0.00726717  0.27397925  1  0  -0.234519  0  3.694154  0  0  -0.213006  0  3.949951  0  0  -0.222958  0  3.969131  0  0  -0.031598  -0.206581  0  3.937581  0
C  C43  1  0.27378476  0.99273311  0.72602582  1  0  -0.234357  0  3.694008  0  0  -0.21295  0  3.9499  0  0  -0.222901  0  3.969077  0  0  -0.031588  -0.206522  0  3.93753  0
C  C44  1  0.76013621  0.20864472  0.07478598  1  0  -0.154331  0  3.803184  0  0  -0.14902  0  4.061273  0  0  -0.160556  0  4.084266  0  0  -0.033113  -0.141294  0  4.045633  0
C  C45  1  0.23985342  0.79135793  0.92521454  1  0  -0.154625  0  3.803394  0  0  -0.149212  0  4.061351  0  0  -0.160752  0  4.084339  0  0  -0.033198  -0.141471  0  4.045721  0
C  C46  1  0.70990276  0.14151623  0.97958755  1  0  0.124948  0  3.664722  0  0  0.075133  0  3.941859  0  0  0.089782  0  3.952966  0  0  0.030413  0.064781  0  3.93353  0
C  C47  1  0.29008435  0.85848410  0.02041182  1  0  0.125058  0  3.664737  0  0  0.075225  0  3.941845  0  0  0.089873  0  3.952954  0  0  0.030492  0.064877  0  3.933512  0
C  C48  1  0.71153950  0.36800063  0.93877983  1  0  0.284432  0  3.744967  0  0  0.268936  0  4.001242  0  0  0.283999  0  4.016293  0  0  0.098592  0.258986  0  3.990884  0
C  C49  1  0.28847250  0.63200539  0.06121996  1  0  0.284493  0  3.744895  0  0  0.26907  0  4.001102  0  0  0.284137  0  4.016152  0  0  0.098642  0.259124  0  3.990746  0
C  C50  1  0.67018087  0.43312464  0.86552316  1  0  -0.2951  0  3.665381  0  0  -0.32452  0  3.921313  0  0  -0.334623  0  3.93644  0  0  -0.112305  -0.317926  0  3.911554  0
C  C51  1  0.32982518  0.56687791  0.13447442  1  0  -0.295124  0  3.665433  0  0  -0.324568  0  3.921444  0  0  -0.334672  0  3.936569  0  0  -0.112364  -0.317986  0  3.911692  0
C  C52  1  0.68006845  0.58656162  0.89080789  1  0  0.314741  0  3.781755  0  0  0.303834  0  4.03859  0  0  0.319554  0  4.052755  0  0  0.097652  0.293065  0  4.029493  0
C  C53  1  0.31993205  0.41343864  0.10918968  1  0  0.314565  0  3.781785  0  0  0.303619  0  4.038681  0  0  0.319351  0  4.052842  0  0  0.097625  0.29285  0  4.029583  0
C  C54  1  0.73800857  0.67295681  0.98725720  1  0  -0.197937  0  3.753979  0  0  -0.221471  0  4.018469  0  0  -0.23162  0  4.041079  0  0  -0.105082  -0.215731  0  4.003767  0
C  C55  1  0.26199587  0.32704804  0.01273784  1  0  -0.197861  0  3.754185  0  0  -0.221396  0  4.018663  0  0  -0.231546  0  4.041255  0  0  -0.105101  -0.215656  0  4.003961  0
C  C56  1  0.78178995  0.60588822  0.05748991  1  0  -0.024324  0  3.749145  0  0  -0.051543  0  4.006474  0  0  -0.045889  0  4.024986  0  0  -0.080438  -0.054424  0  3.99396  0
C  C57  1  0.21820500  0.39410975  0.94250767  1  0  -0.024262  0  3.749202  0  0  -0.051423  0  4.006515  0  0  -0.045769  0  4.025028  0  0  -0.080388  -0.054295  0  3.993982  0
C  C58  1  0.76696116  0.44960061  0.03523321  1  0  -0.167161  0  3.821133  0  0  -0.155138  0  4.061473  0  0  -0.169443  0  4.086625  0  0  -0.036783  -0.146441  0  4.044626  0
C  C59  1  0.23302888  0.55039972  0.96476636  1  0  -0.167274  0  3.82098  0  0  -0.155271  0  4.06131  0  0  -0.169583  0  4.086456  0  0  -0.036849  -0.14657  0  4.044488  0
C  C60  1  0.80032422  0.37424737  0.10926388  1  0  0.398948  0  3.821131  0  0  0.368257  0  4.098467  0  0  0.395031  0  4.099333  0  0  0.132635  0.350777  0  4.096983  0
C  C61  1  0.19966781  0.62575061  0.89073349  1  0  0.39915  0  3.821084  0  0  0.368439  0  4.098397  0  0  0.39523  0  4.099234  0  0  0.13272  0.350917  0  4.096976  0
C  C62  1  0.55820200  0.57790126  0.73011734  1  0  -0.090478  0  3.602101  0  0  -0.18928  0  3.863719  0  0  -0.18251  0  3.868296  0  0  -0.137795  -0.193332  0  3.861116  0
C  C63  1  0.44180027  0.42209669  0.26988075  1  0  -0.090281  0  3.601943  0  0  -0.189168  0  3.863539  0  0  -0.182398  0  3.868121  0  0  -0.137725  -0.193222  0  3.860938  0
S  S64  1  0.57104792  0.97018618  0.36198290  1  0  1.337753  0  5.629543  0  0  1.24241  0  6.149583  0  0  1.291083  0  6.124307  0  0  0.4894  1.208904  0  6.165541  0
S  S65  1  0.42894337  0.02981416  0.63801949  1  0  1.337618  0  5.629949  0  0  1.242331  0  6.149951  0  0  1.291003  0  6.124677  0  0  0.489366  1.208823  0  6.165911  0
O  O66  1  0.39296244  0.02210765  0.34146969  1  0  -0.705075  0  1.97669  0  0  -0.652501  0  2.228285  0  0  -0.673969  0  2.214297  0  0  -0.370784  -0.637088  0  2.237655  0
O  O67  1  0.60702442  0.97789499  0.65852860  1  0  -0.705112  0  1.976957  0  0  -0.652521  0  2.228471  0  0  -0.673997  0  2.214497  0  0  -0.370797  -0.637109  0  2.237843  0
O  O68  1  0.50754228  0.80383713  0.35238485  1  0  -0.684821  0  1.94938  0  0  -0.636631  0  2.197733  0  0  -0.657715  0  2.184053  0  0  -0.418273  -0.621542  0  2.206976  0
O  O69  1  0.49245176  0.19616200  0.64761281  1  0  -0.684737  0  1.94938  0  0  -0.636576  0  2.197733  0  0  -0.657659  0  2.184055  0  0  -0.418262  -0.621482  0  2.206972  0
O  O70  1  0.71214193  0.06470541  0.45361924  1  0  -0.726229  0  1.976923  0  0  -0.677842  0  2.231173  0  0  -0.699181  0  2.21655  0  0  -0.405799  -0.661932  0  2.240804  0
O  O71  1  0.28785946  0.93529491  0.54638589  1  0  -0.726231  0  1.977079  0  0  -0.677803  0  2.231216  0  0  -0.69914  0  2.216592  0  0  -0.405803  -0.661898  0  2.240853  0
O  O72  1  0.99911906  0.43071380  0.37129133  1  0  -0.890022  0  1.844108  0  0  -0.835797  0  2.005008  0  0  -0.855371  0  1.97448  0  0  -0.636249  -0.821753  0  2.026405  0
O  O73  1  0.00088907  0.56928412  0.62870717  1  0  -0.890007  0  1.844107  0  0  -0.835771  0  2.005015  0  0  -0.855348  0  1.9745  0  0  -0.636236  -0.821729  0  2.026412  0
O  O74  1  0.70924893  0.36388920  0.48444826  1  0  -0.900403  0  1.828965  0  0  -0.84607  0  1.98861  0  0  -0.866393  0  1.959682  0  0  -0.660336  -0.831437  0  2.010076  0
O  O75  1  0.29075246  0.63611340  0.51555240  1  0  -0.900389  0  1.82898  0  0  -0.846084  0  1.988595  0  0  -0.866405  0  1.959669  0  0  -0.660386  -0.83145  0  2.010057  0
O  O76  1  0.96771520  0.89759795  0.33841542  1  0  -0.561677  0  2.134203  0  0  -0.516458  0  2.350721  0  0  -0.534033  0  2.339924  0  0  -0.411285  -0.503765  0  2.357588  0
O  O77  1  0.03228514  0.10240233  0.66158419  1  0  -0.561653  0  2.134183  0  0  -0.516433  0  2.350669  0  0  -0.534007  0  2.339866  0  0  -0.41126  -0.50374  0  2.357538  0
O  O78  1  0.68868812  0.21411478  0.91154929  1  0  -0.196604  0  2.458249  0  0  -0.118961  0  2.684342  0  0  -0.139078  0  2.69011  0  0  -0.115043  -0.105223  0  2.680171  0
O  O79  1  0.31131682  0.78589123  0.08844661  1  0  -0.196588  0  2.458305  0  0  -0.118989  0  2.684427  0  0  -0.13911  0  2.690198  0  0  -0.115029  -0.105252  0  2.680255  0
O  O80  1  0.86013467  0.44800920  0.19523206  1  0  -0.515965  0  1.966282  0  0  -0.467938  0  2.186251  0  0  -0.486952  0  2.178484  0  0  -0.284262  -0.454214  0  2.190524  0
O  O81  1  0.13986930  0.55199798  0.80476460  1  0  -0.51598  0  1.966359  0  0  -0.467963  0  2.186348  0  0  -0.486985  0  2.178569  0  0  -0.284254  -0.45422  0  2.190635  0
O  O82  1  0.63249317  0.66288449  0.82833815  1  0  -0.247812  0  2.349546  0  0  -0.167338  0  2.587537  0  0  -0.188283  0  2.593246  0  0  -0.177077  -0.153234  0  2.582731  0
O  O83  1  0.36750369  0.33712041  0.17165976  1  0  -0.247785  0  2.349539  0  0  -0.167286  0  2.587561  0  0  -0.188253  0  2.593289  0  0  -0.177099  -0.153178  0  2.58275  0
