# generated using pymatgen
data_ZnH5C13Br4NO4
_symmetry_space_group_name_H-M   'P 1'
_cell_length_a   9.70564089
_cell_length_b   15.58599901
_cell_length_c   15.63631555
_cell_angle_alpha   89.93789024
_cell_angle_beta   97.06684129
_cell_angle_gamma   93.78413394
_symmetry_Int_Tables_number   1
_chemical_formula_structural   ZnH5C13Br4NO4
_chemical_formula_sum   'Zn4 H20 C52 Br16 N4 O16'
_cell_volume   2342.19278192
_cell_formula_units_Z   4
loop_
 _symmetry_equiv_pos_site_id
 _symmetry_equiv_pos_as_xyz
  1  'x, y, z'
loop_
 _atom_site_type_symbol
 _atom_site_label
 _atom_site_symmetry_multiplicity
 _atom_site_fract_x
 _atom_site_fract_y
 _atom_site_fract_z
 _atom_site_occupancy
 _atom_site_pbe_bader_charge
 _atom_site_pbe_bader_spin_density
 _atom_site_pbe_cm5_charge
 _atom_site_pbe_ddec_charge
 _atom_site_pbe_ddec_spin_density
 _atom_site_pbe_ddec_sum_bond_order
 _atom_site_pbe_magmom
Zn  Zn0  1  0.63235536  0.50581931  0.01389384  1  1.291009  0  0.674321  0.826442  0  2.408323  0
Zn  Zn1  1  0.65220174  0.00586760  0.51483970  1  1.288379  0  0.672427  0.822114  0  2.395656  0
Zn  Zn2  1  0.34029132  0.48791678  0.98555803  1  1.293641  0  0.677311  0.838787  0  2.403536  0
Zn  Zn3  1  0.36039355  0.99074442  0.48683569  1  1.29941  0  0.679139  0.841087  0  2.421768  0
H  H4  1  0.41691564  0.21000324  0.09007387  1  0.136771  0  0.110462  0.132005  0  0.980927  0
H  H5  1  0.79822638  0.75157337  0.15943473  1  0.105259  0  0.097999  0.132191  0  0.977443  0
H  H6  1  0.52054773  0.31901798  0.45232693  1  0.064655  0  0.09818  0.132975  0  0.974193  0
H  H7  1  0.80689784  0.26089176  0.66455273  1  0.094126  0  0.099131  0.132195  0  0.972102  0
H  H8  1  0.12338655  0.39147079  0.06886498  1  0.14473  0  0.136954  0.126289  0  0.972176  0
H  H9  1  0.14325620  0.89144327  0.56869457  1  0.154147  0  0.138502  0.128054  0  0.967038  0
H  H10  1  0.87266207  0.40263359  0.09206474  1  0.151622  0  0.137081  0.121128  0  0.964646  0
H  H11  1  0.89118548  0.90128255  0.58953573  1  0.170095  0  0.139032  0.124854  0  0.964665  0
H  H12  1  0.81778123  0.62660827  0.84782675  1  0.143878  0  0.111779  0.162308  0  0.975103  0
H  H13  1  0.86525459  0.69938008  0.93696208  1  0.116328  0  0.11156  0.155643  0  0.962295  0
H  H14  1  0.83363207  0.12649564  0.34501457  1  0.12499  0  0.112302  0.160292  0  0.970877  0
H  H15  1  0.27450058  0.28043711  0.80361279  1  0.116583  0  0.107739  0.129549  0  1.000936  0
H  H16  1  0.89028176  0.19753533  0.43438790  1  0.106033  0  0.112155  0.154445  0  0.966338  0
H  H17  1  0.44359072  0.71747568  0.59535088  1  0.110274  0  0.110295  0.131609  0  0.978856  0
H  H18  1  0.28003575  0.77952110  0.31617314  1  0.117775  0  0.10637  0.127038  0  1.007008  0
H  H19  1  0.66429818  0.81175406  0.95537697  1  0.113347  0  0.098801  0.130569  0  0.976239  0
H  H20  1  0.81564190  0.66578659  0.23593312  1  0.104949  0  0.09592  0.130961  0  0.986425  0
H  H21  1  0.69860706  0.30340357  0.44027335  1  0.079441  0  0.098074  0.129056  0  0.982074  0
H  H22  1  0.82658237  0.17425605  0.73991045  1  0.107198  0  0.096836  0.132526  0  0.989104  0
H  H23  1  0.48408147  0.82880657  0.95919944  1  0.068809  0  0.095668  0.129417  0  0.982716  0
C  C24  1  0.48844304  0.61431795  0.11670003  1  1.597771  0  0.209806  0.602016  0  4.180415  0
C  C25  1  0.06854581  0.05428787  0.44747403  1  0.561911  0  0.128676  0.110259  0  3.895255  0
C  C26  1  0.06237153  0.44176963  0.03797409  1  0.525544  0  0.071439  0.053422  0  3.840792  0
C  C27  1  0.08141678  0.94030554  0.53585312  1  0.475955  0  0.071991  0.053799  0  3.841407  0
C  C28  1  0.92350813  0.44825599  0.05120830  1  0.478497  0  0.075155  0.065172  0  3.850039  0
C  C29  1  0.94225983  0.94660849  0.54848977  1  0.491784  0  0.07501  0.063367  0  3.842076  0
C  C30  1  0.91198545  0.56382353  0.96449252  1  0.621156  0  0.146614  0.228038  0  3.882535  0
C  C31  1  0.93037647  0.06122451  0.46043687  1  0.618117  0  0.144254  0.22216  0  3.881064  0
C  C32  1  0.89003240  0.63999692  0.90644209  1  -0.039918  0  -0.150149  -0.305849  0  3.825609  0
C  C33  1  0.90932564  0.13764940  0.40246377  1  -0.004221  0  -0.148297  -0.301509  0  3.828065  0
C  C34  1  0.04923876  0.63599817  0.89362309  1  0.022604  0  0.012944  0.128764  0  3.665677  0
C  C35  1  0.48467667  0.60968583  0.87892295  1  1.622698  0  0.21624  0.614719  0  4.191865  0
C  C36  1  0.06673121  0.13041844  0.38646197  1  0.011002  0  0.012866  0.12337  0  3.674335  0
C  C37  1  0.48932981  0.37595485  0.88699594  1  1.581192  0  0.215427  0.596441  0  4.175905  0
C  C38  1  0.48785798  0.38002395  0.11753529  1  1.597959  0  0.221976  0.60993  0  4.165574  0
C  C39  1  0.50219729  0.87226238  0.39362061  1  1.59047  0  0.214904  0.596544  0  4.176236  0
C  C40  1  0.50809947  0.88796857  0.62521233  1  1.603131  0  0.222489  0.614473  0  4.169044  0
C  C41  1  0.52448631  0.76454644  0.83828731  1  -0.000209  0  -0.006945  0.08823  0  3.906115  0
C  C42  1  0.60888922  0.72115431  0.22369959  1  -0.046468  0  0.004214  0.107978  0  3.880598  0
C  C43  1  0.54695645  0.25563790  0.32857563  1  0.008792  0  -0.004195  0.089883  0  3.909596  0
C  C44  1  0.61560694  0.22452125  0.72456865  1  -0.016185  0  0.003577  0.107028  0  3.883592  0
C  C45  1  0.48875778  0.67965592  0.81333880  1  0.046193  0  -0.017012  -0.113368  0  3.965421  0
C  C46  1  0.50533686  0.11873940  0.61317115  1  1.603225  0  0.212687  0.607154  0  4.174481  0
C  C47  1  0.48431247  0.67830442  0.18742344  1  0.01731  0  -0.0142  -0.118279  0  3.912937  0
C  C48  1  0.50537418  0.17070232  0.30566927  1  -0.024687  0  -0.017857  -0.117176  0  3.953134  0
C  C49  1  0.49460177  0.18095065  0.68436150  1  0.087554  0  -0.012224  -0.112601  0  3.915829  0
C  C50  1  0.46100258  0.66588497  0.72387636  1  -0.157666  0  -0.009667  0.093435  0  3.960527  0
C  C51  1  0.36577006  0.70140563  0.22453449  1  -0.069762  0  -0.000458  0.112255  0  3.893375  0
C  C52  1  0.46130460  0.15695462  0.21716086  1  -0.051293  0  -0.006232  0.100312  0  3.940614  0
C  C53  1  0.37162910  0.20233111  0.71732357  1  -0.168615  0  -0.000589  0.111356  0  3.898836  0
C  C54  1  0.45400980  0.22426105  0.15751917  1  -0.04389  0  -0.087721  -0.160426  0  3.942185  0
C  C55  1  0.37214301  0.26481551  0.78167425  1  0.104684  0  -0.086924  -0.154943  0  3.937495  0
C  C56  1  0.46678599  0.73251708  0.66390309  1  0.060447  0  -0.090191  -0.16651  0  3.950621  0
C  C57  1  0.50568455  0.10386289  0.37432568  1  1.608599  0  0.214179  0.60849  0  4.18308  0
C  C58  1  0.37424455  0.76315110  0.29035829  1  0.072543  0  -0.086101  -0.151264  0  3.935543  0
C  C59  1  0.49545160  0.30948274  0.18243602  1  0.096757  0  -0.002506  -0.005632  0  3.937122  0
C  C60  1  0.49525599  0.30855454  0.81997475  1  -0.01672  0  -0.002726  -0.010715  0  3.928259  0
C  C61  1  0.50288343  0.81783475  0.69060244  1  -0.020705  0  -0.00266  -0.003641  0  3.942164  0
C  C62  1  0.50073407  0.80554162  0.32505370  1  -0.064816  0  -0.001946  -0.011405  0  3.929812  0
C  C63  1  0.54429863  0.32232492  0.26924125  1  -0.038372  0  -0.026067  -0.043005  0  3.948916  0
C  C64  1  0.61729719  0.28479886  0.79051986  1  0.015486  0  -0.019101  -0.02912  0  3.914793  0
C  C65  1  0.53170557  0.83107825  0.77907596  1  0.021455  0  -0.027355  -0.044031  0  3.950825  0
C  C66  1  0.61795858  0.78183506  0.28989962  1  0.041642  0  -0.02049  -0.028764  0  3.918632  0
C  C67  1  0.59423238  0.38859517  0.33776751  1  0.006819  0  0.013999  0.173972  0  3.657292  0
C  C68  1  0.56475756  0.82242364  0.91665040  1  -0.033098  0  -0.152608  -0.258896  0  3.824532  0
C  C69  1  0.77336131  0.29873060  0.79924087  1  -0.019927  0  0.014777  0.178574  0  3.637341  0
C  C70  1  0.57331706  0.89728876  0.84885324  1  0.010097  0  0.014443  0.175012  0  3.6586  0
C  C71  1  0.77395184  0.79284468  0.29499006  1  0.03346  0  0.013719  0.17748  0  3.639269  0
C  C72  1  0.76413835  0.72514938  0.21900229  1  -0.031409  0  -0.156311  -0.269155  0  3.853346  0
C  C73  1  0.59559945  0.31350287  0.40584258  1  0.010462  0  -0.153257  -0.260789  0  3.831552  0
C  C74  1  0.77162473  0.23227530  0.72293292  1  -0.008336  0  -0.155787  -0.269837  0  3.851537  0
C  C75  1  0.05074308  0.55788871  0.95228225  1  0.531647  0  0.12867  0.107814  0  3.890208  0
Br  Br76  1  0.41571913  0.55165295  0.68144746  1  -0.052241  0  0.022469  -0.058028  0  1.39426  0
Br  Br77  1  0.87041999  0.25814587  0.90850580  1  -0.095628  0  -0.018375  -0.110685  0  1.299731  0
Br  Br78  1  0.76129330  0.95329572  0.84886448  1  -0.094764  0  -0.027866  -0.117385  0  1.255419  0
Br  Br79  1  0.87291536  0.75261569  0.40392787  1  -0.101391  0  -0.02191  -0.114437  0  1.285641  0
Br  Br80  1  0.46133144  0.47573124  0.35233145  1  -0.086653  0  -0.016462  -0.101462  0  1.282818  0
Br  Br81  1  0.84890674  0.41508602  0.77487875  1  -0.089315  0  -0.021823  -0.118722  0  1.405519  0
Br  Br82  1  0.43925760  0.98530327  0.85685360  1  -0.086121  0  -0.020061  -0.109911  0  1.296111  0
Br  Br83  1  0.85479380  0.90692615  0.26742002  1  -0.087055  0  -0.027513  -0.123539  0  1.414977  0
Br  Br84  1  0.18189108  0.65173705  0.19085663  1  -0.049539  0  0.015203  -0.064279  0  1.47849  0
Br  Br85  1  0.41483628  0.04350560  0.17313745  1  -0.045324  0  0.021952  -0.054857  0  1.411972  0
Br  Br86  1  0.19349476  0.14528071  0.68184316  1  -0.058592  0  0.015592  -0.064522  0  1.466867  0
Br  Br87  1  0.07838996  0.61281300  0.77514743  1  -0.022239  0  0.030032  -0.037072  0  1.424916  0
Br  Br88  1  0.16130266  0.73729114  0.94119025  1  -0.031872  0  0.025527  -0.052325  0  1.382738  0
Br  Br89  1  0.08649516  0.10084713  0.26773055  1  -0.019231  0  0.030452  -0.036412  0  1.44297  0
Br  Br90  1  0.18734566  0.23085101  0.42619857  1  -0.027407  0  0.030189  -0.042224  0  1.386958  0
Br  Br91  1  0.77975142  0.44551890  0.33047661  1  -0.094207  0  -0.027232  -0.117015  0  1.271349  0
N  N92  1  0.12891847  0.49685907  0.98708983  1  -1.194766  0  -0.282927  -0.154811  0  3.448384  0
N  N93  1  0.14775500  0.99481929  0.48435747  1  -1.204028  0  -0.280622  -0.152415  0  3.451793  0
N  N94  1  0.84508697  0.51005509  0.01385238  1  -1.217846  0  -0.287363  -0.180533  0  3.438951  0
N  N95  1  0.86399887  0.00847348  0.51098771  1  -1.22569  0  -0.284927  -0.175589  0  3.434596  0
O  O96  1  0.60554810  0.61088687  0.08776074  1  -1.154838  0  -0.315062  -0.527858  0  2.278052  0
O  O97  1  0.59955073  0.42698961  0.11484011  1  -1.157216  0  -0.313142  -0.541179  0  2.326836  0
O  O98  1  0.61692574  0.91522191  0.41554924  1  -1.164155  0  -0.31248  -0.545975  0  2.351811  0
O  O99  1  0.62572419  0.90739231  0.60021780  1  -1.158648  0  -0.309196  -0.53594  0  2.303909  0
O  O100  1  0.37075166  0.40503304  0.89136873  1  -1.150297  0  -0.315385  -0.532745  0  2.325241  0
O  O101  1  0.37225915  0.38615261  0.07091215  1  -1.161492  0  -0.309728  -0.537668  0  2.295097  0
O  O102  1  0.38750211  0.88104597  0.42354299  1  -1.153011  0  -0.318081  -0.533817  0  2.311604  0
O  O103  1  0.39373876  0.92050849  0.60006980  1  -1.158519  0  -0.309839  -0.547175  0  2.315317  0
O  O104  1  0.60076248  0.57979096  0.90524127  1  -1.157383  0  -0.304714  -0.530586  0  2.347963  0
O  O105  1  0.62523741  0.09058072  0.61065090  1  -1.14976  0  -0.312404  -0.525366  0  2.289624  0
O  O106  1  0.61820362  0.10175696  0.42534932  1  -1.16338  0  -0.30651  -0.52597  0  2.318349  0
O  O107  1  0.37855651  0.56848964  0.09104722  1  -1.166213  0  -0.315676  -0.555693  0  2.437171  0
O  O108  1  0.36856000  0.58903261  0.90460531  1  -1.154945  0  -0.306391  -0.536661  0  2.408087  0
O  O109  1  0.39752724  0.10022709  0.56031909  1  -1.167382  0  -0.320482  -0.565571  0  2.445251  0
O  O110  1  0.39387839  0.05828145  0.37847790  1  -1.158158  0  -0.309344  -0.539551  0  2.400356  0
O  O111  1  0.60284164  0.39846732  0.93329785  1  -1.164818  0  -0.31442  -0.548089  0  2.344149  0
