# generated using pymatgen
data_ZnH8C4(O2F)4
_symmetry_space_group_name_H-M   'P 1'
_cell_length_a   9.03751636
_cell_length_b   10.69425795
_cell_length_c   10.94104127
_cell_angle_alpha   115.49964944
_cell_angle_beta   89.99977587
_cell_angle_gamma   90.00004717
_symmetry_Int_Tables_number   1
_chemical_formula_structural   ZnH8C4(O2F)4
_chemical_formula_sum   'Zn4 H32 C16 O32 F16'
_cell_volume   954.43844393
_cell_formula_units_Z   4
loop_
 _symmetry_equiv_pos_site_id
 _symmetry_equiv_pos_as_xyz
  1  'x, y, z'
loop_
 _atom_site_type_symbol
 _atom_site_label
 _atom_site_symmetry_multiplicity
 _atom_site_fract_x
 _atom_site_fract_y
 _atom_site_fract_z
 _atom_site_occupancy
 _atom_site_hle17_bader_spin_density
 _atom_site_hle17_ddec_charge
 _atom_site_hle17_ddec_spin_density
 _atom_site_hle17_ddec_sum_bond_order
 _atom_site_hle17_magmom
 _atom_site_hse06_10hf_bader_spin_density
 _atom_site_hse06_10hf_ddec_charge
 _atom_site_hse06_10hf_ddec_spin_density
 _atom_site_hse06_10hf_ddec_sum_bond_order
 _atom_site_hse06_10hf_magmom
 _atom_site_hse06_bader_spin_density
 _atom_site_hse06_ddec_charge
 _atom_site_hse06_ddec_spin_density
 _atom_site_hse06_ddec_sum_bond_order
 _atom_site_hse06_magmom
 _atom_site_pbe_bader_spin_density
 _atom_site_pbe_cm5_charge
 _atom_site_pbe_ddec_charge
 _atom_site_pbe_ddec_spin_density
 _atom_site_pbe_ddec_sum_bond_order
 _atom_site_pbe_magmom
Zn  Zn0  1  0.86683806  0.76414442  0.00831885  1  0  1.233217  0  1.641363  0  0  1.082219  0  2.081587  0  0  1.126171  0  2.023579  0  0  0.676888  1.052467  0  2.121391  0
Zn  Zn1  1  0.36683978  0.23585644  0.49168102  1  0  1.23322  0  1.64137  0  0  1.082255  0  2.081544  0  0  1.126204  0  2.023538  0  0  0.67684  1.052456  0  2.121341  0
Zn  Zn2  1  0.13316267  0.23585425  0.99167909  1  0  1.233208  0  1.641387  0  0  1.082246  0  2.081611  0  0  1.1262  0  2.023602  0  0  0.676922  1.052514  0  2.121414  0
Zn  Zn3  1  0.63316317  0.76414636  0.50832231  1  0  1.233309  0  1.641288  0  0  1.08233  0  2.081502  0  0  1.126283  0  2.023494  0  0  0.676905  1.052555  0  2.121303  0
H  H4  1  0.92960598  0.99600186  0.23849703  1  0  0.429545  0  0.872034  0  0  0.393593  0  0.943626  0  0  0.405111  0  0.926947  0  0  0.294087  0.385582  0  0.955202  0
H  H5  1  0.42960967  0.00399894  0.26150444  1  0  0.429524  0  0.872079  0  0  0.393609  0  0.943603  0  0  0.405127  0  0.926925  0  0  0.294093  0.385596  0  0.955181  0
H  H6  1  0.07039254  0.00399783  0.76150225  1  0  0.4295  0  0.872101  0  0  0.393574  0  0.943646  0  0  0.405093  0  0.926966  0  0  0.294072  0.385564  0  0.955219  0
H  H7  1  0.57039106  0.99600076  0.73849576  1  0  0.42951  0  0.872075  0  0  0.393597  0  0.943599  0  0  0.405115  0  0.926921  0  0  0.294094  0.385587  0  0.955173  0
H  H8  1  0.76587420  0.99581512  0.17671131  1  0  0.435531  0  0.84069  0  0  0.399319  0  0.924431  0  0  0.410658  0  0.907614  0  0  0.30084  0.391681  0  0.93506  0
H  H9  1  0.26587317  0.00418790  0.32328979  1  0  0.435507  0  0.840734  0  0  0.399328  0  0.924417  0  0  0.410666  0  0.9076  0  0  0.300851  0.391684  0  0.935054  0
H  H10  1  0.23412543  0.00418562  0.82328658  1  0  0.435516  0  0.840718  0  0  0.399335  0  0.924408  0  0  0.410674  0  0.90759  0  0  0.300848  0.391697  0  0.935039  0
H  H11  1  0.73412757  0.99581283  0.67671084  1  0  0.435533  0  0.840644  0  0  0.399357  0  0.924359  0  0  0.410693  0  0.907544  0  0  0.30089  0.391719  0  0.934953  0
H  H12  1  0.84103392  0.75917209  0.26005841  1  0  0.433865  0  0.835999  0  0  0.405482  0  0.906323  0  0  0.415393  0  0.895113  0  0  0.307666  0.398498  0  0.91425  0
H  H13  1  0.34103130  0.24082776  0.23994386  1  0  0.433681  0  0.83616  0  0  0.405302  0  0.906485  0  0  0.415213  0  0.895276  0  0  0.307594  0.398315  0  0.914419  0
H  H14  1  0.15896571  0.24082865  0.73994040  1  0  0.433842  0  0.835993  0  0  0.40545  0  0.906344  0  0  0.415362  0  0.895133  0  0  0.30765  0.398455  0  0.914276  0
H  H15  1  0.65896723  0.75916883  0.76005686  1  0  0.433815  0  0.83605  0  0  0.405423  0  0.906405  0  0  0.415337  0  0.895189  0  0  0.307646  0.398438  0  0.914333  0
H  H16  1  0.79455342  0.61831075  0.14686412  1  0  0.429989  0  0.864652  0  0  0.395942  0  0.93638  0  0  0.40606  0  0.921728  0  0  0.299013  0.388876  0  0.946631  0
H  H17  1  0.29455373  0.38169225  0.35313688  1  0  0.429963  0  0.864674  0  0  0.395912  0  0.936422  0  0  0.406031  0  0.921768  0  0  0.298986  0.38884  0  0.946681  0
H  H18  1  0.20544510  0.38168791  0.85313290  1  0  0.429971  0  0.864664  0  0  0.395926  0  0.936403  0  0  0.406043  0  0.921751  0  0  0.298999  0.388852  0  0.94666  0
H  H19  1  0.70544480  0.61830641  0.64686471  1  0  0.429955  0  0.864698  0  0  0.395949  0  0.936373  0  0  0.406068  0  0.921718  0  0  0.298983  0.388883  0  0.946622  0
H  H20  1  0.77425311  0.51924480  0.80136759  1  0  0.436646  0  0.844993  0  0  0.401418  0  0.919911  0  0  0.412108  0  0.9042  0  0  0.297376  0.394151  0  0.930539  0
H  H21  1  0.27425313  0.48075049  0.69863660  1  0  0.436621  0  0.845029  0  0  0.401445  0  0.919868  0  0  0.412118  0  0.904172  0  0  0.297388  0.394179  0  0.930502  0
H  H22  1  0.22574541  0.48075283  0.19863356  1  0  0.436681  0  0.844903  0  0  0.401442  0  0.919862  0  0  0.412136  0  0.90415  0  0  0.297405  0.394179  0  0.930488  0
H  H23  1  0.72574650  0.51924816  0.30136499  1  0  0.436678  0  0.844902  0  0  0.401469  0  0.91982  0  0  0.41214  0  0.904129  0  0  0.297415  0.394206  0  0.930454  0
H  H24  1  0.94390028  0.52208260  0.84560847  1  0  0.425705  0  0.866016  0  0  0.391216  0  0.940394  0  0  0.402553  0  0.923766  0  0  0.293212  0.383733  0  0.951335  0
H  H25  1  0.44390493  0.47791565  0.65439641  1  0  0.425752  0  0.865986  0  0  0.391264  0  0.940341  0  0  0.4026  0  0.923715  0  0  0.293191  0.383778  0  0.951285  0
H  H26  1  0.05609603  0.47791400  0.15438950  1  0  0.425691  0  0.866005  0  0  0.391201  0  0.940405  0  0  0.402537  0  0.92378  0  0  0.293185  0.383724  0  0.951339  0
H  H27  1  0.55609580  0.52208611  0.34560831  1  0  0.425774  0  0.865971  0  0  0.391289  0  0.940306  0  0  0.402624  0  0.92368  0  0  0.293219  0.383806  0  0.951245  0
H  H28  1  0.88841519  0.78923765  0.77720900  1  0  0.431469  0  0.858284  0  0  0.400188  0  0.925465  0  0  0.410479  0  0.910254  0  0  0.296173  0.393176  0  0.935795  0
H  H29  1  0.38841595  0.21076170  0.72278831  1  0  0.431435  0  0.858231  0  0  0.400151  0  0.925496  0  0  0.410438  0  0.910291  0  0  0.296176  0.393135  0  0.935831  0
H  H30  1  0.11158333  0.21075998  0.22278759  1  0  0.4314  0  0.85832  0  0  0.400078  0  0.925606  0  0  0.410369  0  0.910396  0  0  0.296109  0.393061  0  0.935942  0
H  H31  1  0.61158479  0.78923593  0.27720919  1  0  0.431588  0  0.8581  0  0  0.400276  0  0.925361  0  0  0.410568  0  0.910146  0  0  0.296214  0.393261  0  0.935695  0
H  H32  1  0.01773334  0.89038337  0.86716917  1  0  0.444404  0  0.841694  0  0  0.415632  0  0.899984  0  0  0.425919  0  0.884966  0  0  0.29956  0.408554  0  0.910297  0
H  H33  1  0.51773593  0.10961320  0.63282998  1  0  0.444498  0  0.84154  0  0  0.415691  0  0.899905  0  0  0.425979  0  0.884882  0  0  0.299573  0.408598  0  0.910243  0
H  H34  1  0.98226629  0.10961529  0.13282967  1  0  0.444428  0  0.84164  0  0  0.415648  0  0.899954  0  0  0.425934  0  0.884937  0  0  0.299571  0.408559  0  0.910279  0
H  H35  1  0.48226370  0.89038650  0.36717113  1  0  0.444365  0  0.84174  0  0  0.415596  0  0.900025  0  0  0.425881  0  0.885011  0  0  0.299532  0.40851  0  0.910349  0
C  C36  1  0.17104834  0.64404312  0.96462560  1  0  0.598916  0  3.903672  0  0  0.534865  0  4.215761  0  0  0.5673  0  4.208734  0  0  0.212924  0.512625  0  4.221216  0
C  C37  1  0.67105053  0.35596056  0.53537972  1  0  0.599199  0  3.903191  0  0  0.535217  0  4.215372  0  0  0.567654  0  4.208336  0  0  0.213049  0.512975  0  4.220838  0
C  C38  1  0.82895350  0.35595658  0.03537460  1  0  0.599  0  3.903496  0  0  0.534986  0  4.215537  0  0  0.567421  0  4.208507  0  0  0.21298  0.512749  0  4.220988  0
C  C39  1  0.32895021  0.64404121  0.46462318  1  0  0.598865  0  3.903611  0  0  0.534808  0  4.215689  0  0  0.567239  0  4.20866  0  0  0.212965  0.512573  0  4.22115  0
C  C40  1  0.33665034  0.68072163  0.00098548  1  0  0.317778  0  3.63505  0  0  0.267772  0  3.949152  0  0  0.281311  0  3.937922  0  0  0.189433  0.257203  0  3.958841  0
C  C41  1  0.83665361  0.31928030  0.49901129  1  0  0.318651  0  3.633564  0  0  0.267629  0  3.949254  0  0  0.281159  0  3.938056  0  0  0.189391  0.257063  0  3.958942  0
C  C42  1  0.66334818  0.31927910  0.99901242  1  0  0.317872  0  3.634853  0  0  0.267765  0  3.9491  0  0  0.281308  0  3.937877  0  0  0.189389  0.257197  0  3.958791  0
C  C43  1  0.16335044  0.68072251  0.50098840  1  0  0.317835  0  3.635049  0  0  0.267845  0  3.949138  0  0  0.28139  0  3.937909  0  0  0.189421  0.257269  0  3.958835  0
C  C44  1  0.38889807  0.80646933  0.97558959  1  0  0.314603  0  3.636219  0  0  0.262512  0  3.952934  0  0  0.275652  0  3.942835  0  0  0.189314  0.252491  0  3.961507  0
C  C45  1  0.88890015  0.19353105  0.52440998  1  0  0.314544  0  3.636045  0  0  0.262396  0  3.95301  0  0  0.275523  0  3.942953  0  0  0.189338  0.252375  0  3.96158  0
C  C46  1  0.61110156  0.19352933  0.02441017  1  0  0.314533  0  3.636278  0  0  0.262415  0  3.953067  0  0  0.275537  0  3.943017  0  0  0.189332  0.252395  0  3.961641  0
C  C47  1  0.11110280  0.80646969  0.47558974  1  0  0.31456  0  3.636221  0  0  0.262443  0  3.952995  0  0  0.27557  0  3.942926  0  0  0.189328  0.25242  0  3.961574  0
C  C48  1  0.54915233  0.85308528  0.02703280  1  0  0.583022  0  3.916264  0  0  0.51633  0  4.238363  0  0  0.548176  0  4.231945  0  0  0.207504  0.494667  0  4.242882  0
C  C49  1  0.04915294  0.14691276  0.47296507  1  0  0.583075  0  3.916295  0  0  0.51644  0  4.238335  0  0  0.548289  0  4.231908  0  0  0.207533  0.494772  0  4.242863  0
C  C50  1  0.45084730  0.14691338  0.97296787  1  0  0.583046  0  3.916267  0  0  0.516366  0  4.238381  0  0  0.548213  0  4.231962  0  0  0.207518  0.494704  0  4.242893  0
C  C51  1  0.95084779  0.85308590  0.52703195  1  0  0.583032  0  3.916275  0  0  0.51633  0  4.238411  0  0  0.548176  0  4.231993  0  0  0.207508  0.494668  0  4.242934  0
O  O52  1  0.08245652  0.72743118  0.04884304  1  0  -0.58025  0  2.079236  0  0  -0.529152  0  2.343784  0  0  -0.555696  0  2.332406  0  0  -0.303793  -0.51179  0  2.351838  0
O  O53  1  0.58246219  0.27256993  0.45115877  1  0  -0.580307  0  2.078975  0  0  -0.529323  0  2.343722  0  0  -0.555881  0  2.332366  0  0  -0.30385  -0.51196  0  2.351781  0
O  O54  1  0.91754200  0.27256748  0.95115307  1  0  -0.580328  0  2.079204  0  0  -0.529258  0  2.343745  0  0  -0.555814  0  2.332386  0  0  -0.303819  -0.51189  0  2.351797  0
O  O55  1  0.41754187  0.72743287  0.54884274  1  0  -0.580252  0  2.079142  0  0  -0.529188  0  2.34373  0  0  -0.555745  0  2.332376  0  0  -0.303816  -0.511815  0  2.351777  0
O  O56  1  0.14333408  0.53807391  0.85538962  1  0  -0.607027  0  2.033212  0  0  -0.546953  0  2.249501  0  0  -0.571722  0  2.238412  0  0  -0.29466  -0.530484  0  2.257098  0
O  O57  1  0.64333585  0.46192876  0.64461262  1  0  -0.607273  0  2.033278  0  0  -0.547069  0  2.24944  0  0  -0.571837  0  2.238354  0  0  -0.294692  -0.530625  0  2.257068  0
O  O58  1  0.85666002  0.46192682  0.14461010  1  0  -0.607049  0  2.033124  0  0  -0.546956  0  2.249372  0  0  -0.571722  0  2.238282  0  0  -0.294665  -0.530493  0  2.256992  0
O  O59  1  0.35666157  0.53807093  0.35539123  1  0  -0.607039  0  2.03323  0  0  -0.546911  0  2.249483  0  0  -0.571679  0  2.238406  0  0  -0.294665  -0.530434  0  2.257064  0
O  O60  1  0.65031398  0.78607086  0.94476280  1  0  -0.617495  0  2.109217  0  0  -0.558484  0  2.374065  0  0  -0.585399  0  2.362362  0  0  -0.303967  -0.540661  0  2.382252  0
O  O61  1  0.15031442  0.21393285  0.55523620  1  0  -0.617621  0  2.109339  0  0  -0.558549  0  2.374015  0  0  -0.585463  0  2.362308  0  0  -0.304006  -0.540712  0  2.382199  0
O  O62  1  0.34968454  0.21393195  0.05523780  1  0  -0.617495  0  2.109202  0  0  -0.558479  0  2.37406  0  0  -0.585393  0  2.362354  0  0  -0.303964  -0.540643  0  2.382241  0
O  O63  1  0.84968631  0.78606478  0.44476129  1  0  -0.617538  0  2.109181  0  0  -0.558504  0  2.37404  0  0  -0.58542  0  2.362336  0  0  -0.303965  -0.540664  0  2.382222  0
O  O64  1  0.56451141  0.94833839  0.14447070  1  0  -0.572643  0  2.029625  0  0  -0.521903  0  2.259009  0  0  -0.545703  0  2.248881  0  0  -0.290243  -0.505915  0  2.26578  0
O  O65  1  0.06451027  0.05165652  0.35552763  1  0  -0.57262  0  2.029577  0  0  -0.521912  0  2.258981  0  0  -0.545728  0  2.248884  0  0  -0.290218  -0.505926  0  2.265753  0
O  O66  1  0.43549154  0.05166027  0.85552815  1  0  -0.572643  0  2.029621  0  0  -0.521934  0  2.259013  0  0  -0.54574  0  2.248899  0  0  -0.29024  -0.505939  0  2.265778  0
O  O67  1  0.93548715  0.94833904  0.64446808  1  0  -0.572625  0  2.029632  0  0  -0.521902  0  2.259042  0  0  -0.545691  0  2.248897  0  0  -0.290216  -0.505903  0  2.265803  0
O  O68  1  0.87191112  0.97525513  0.15353709  1  0  -0.837785  0  1.949045  0  0  -0.773888  0  2.166837  0  0  -0.796119  0  2.129667  0  0  -0.557594  -0.757606  0  2.191102  0
O  O69  1  0.37191111  0.02474780  0.34646546  1  0  -0.837886  0  1.949224  0  0  -0.773905  0  2.166789  0  0  -0.796133  0  2.129617  0  0  -0.55761  -0.757617  0  2.191058  0
O  O70  1  0.12808851  0.02474664  0.84646307  1  0  -0.837856  0  1.94925  0  0  -0.773864  0  2.166825  0  0  -0.796095  0  2.129654  0  0  -0.557578  -0.757585  0  2.191093  0
O  O71  1  0.62809074  0.97524982  0.65353477  1  0  -0.83791  0  1.949165  0  0  -0.773941  0  2.166805  0  0  -0.796172  0  2.129633  0  0  -0.557646  -0.757654  0  2.191041  0
O  O72  1  0.78463918  0.71964150  0.17435753  1  0  -0.822105  0  1.910291  0  0  -0.758557  0  2.116258  0  0  -0.780231  0  2.086092  0  0  -0.5559  -0.742989  0  2.136773  0
O  O73  1  0.28464062  0.28036046  0.32564764  1  0  -0.821942  0  1.910407  0  0  -0.758366  0  2.116329  0  0  -0.780032  0  2.086168  0  0  -0.555849  -0.742802  0  2.136847  0
O  O74  1  0.21536045  0.28035820  0.82564267  1  0  -0.822034  0  1.910299  0  0  -0.758525  0  2.116284  0  0  -0.780193  0  2.086122  0  0  -0.55595  -0.742991  0  2.136817  0
O  O75  1  0.71535679  0.71963716  0.67435260  1  0  -0.822025  0  1.910335  0  0  -0.758545  0  2.116294  0  0  -0.780219  0  2.086131  0  0  -0.555904  -0.74299  0  2.136811  0
O  O76  1  0.84168961  0.55044067  0.87974131  1  0  -0.828026  0  1.896305  0  0  -0.769546  0  2.109869  0  0  -0.790771  0  2.074675  0  0  -0.573874  -0.75381  0  2.132909  0
O  O77  1  0.34169218  0.44955663  0.62026351  1  0  -0.828045  0  1.896331  0  0  -0.769617  0  2.109782  0  0  -0.790813  0  2.074637  0  0  -0.573866  -0.753894  0  2.132799  0
O  O78  1  0.15830891  0.44955592  0.12025758  1  0  -0.828071  0  1.896219  0  0  -0.769552  0  2.109821  0  0  -0.790784  0  2.074608  0  0  -0.573855  -0.753806  0  2.132849  0
O  O79  1  0.65830855  0.55044306  0.37973943  1  0  -0.828056  0  1.896123  0  0  -0.769681  0  2.109729  0  0  -0.790876  0  2.074583  0  0  -0.573931  -0.753964  0  2.132738  0
O  O80  1  0.95092112  0.81377826  0.85793795  1  0  -0.850686  0  1.936061  0  0  -0.795484  0  2.148058  0  0  -0.815906  0  2.112976  0  0  -0.587795  -0.78066  0  2.171723  0
O  O81  1  0.45092002  0.18621585  0.64205695  1  0  -0.850729  0  1.935875  0  0  -0.795514  0  2.147924  0  0  -0.815935  0  2.112846  0  0  -0.587832  -0.780687  0  2.171597  0
O  O82  1  0.04907850  0.18622041  0.14205816  1  0  -0.850368  0  1.93579  0  0  -0.795396  0  2.14815  0  0  -0.815818  0  2.113069  0  0  -0.587781  -0.7806  0  2.171839  0
O  O83  1  0.54908182  0.81378385  0.35794143  1  0  -0.850759  0  1.935877  0  0  -0.795553  0  2.147882  0  0  -0.815975  0  2.112804  0  0  -0.587837  -0.780738  0  2.171558  0
F  F84  1  0.42601115  0.56995611  0.92594282  1  0  -0.202721  0  1.207431  0  0  -0.159536  0  1.369346  0  0  -0.167265  0  1.35613  0  0  -0.102127  -0.154111  0  1.378604  0
F  F85  1  0.92601543  0.43004423  0.57405662  1  0  -0.202834  0  1.207167  0  0  -0.159502  0  1.369441  0  0  -0.167227  0  1.356232  0  0  -0.102128  -0.154088  0  1.3787  0
F  F86  1  0.57398738  0.43004462  0.07405691  1  0  -0.202757  0  1.207377  0  0  -0.159546  0  1.36933  0  0  -0.167275  0  1.356114  0  0  -0.102126  -0.154117  0  1.378587  0
F  F87  1  0.07398641  0.56995960  0.42594807  1  0  -0.202706  0  1.207471  0  0  -0.159535  0  1.369421  0  0  -0.167261  0  1.356204  0  0  -0.10209  -0.154093  0  1.378674  0
F  F88  1  0.36003700  0.71223762  0.13497726  1  0  -0.197158  0  1.235117  0  0  -0.151824  0  1.402983  0  0  -0.160114  0  1.390264  0  0  -0.097491  -0.146007  0  1.411852  0
F  F89  1  0.86003645  0.28776325  0.36501624  1  0  -0.197668  0  1.234877  0  0  -0.151842  0  1.402915  0  0  -0.160127  0  1.390204  0  0  -0.097537  -0.146022  0  1.411781  0
F  F90  1  0.63996153  0.28776208  0.86501837  1  0  -0.197272  0  1.235053  0  0  -0.151857  0  1.402906  0  0  -0.160144  0  1.390188  0  0  -0.097526  -0.14604  0  1.411777  0
F  F91  1  0.13996429  0.71224163  0.63498341  1  0  -0.197268  0  1.23509  0  0  -0.151897  0  1.402922  0  0  -0.160187  0  1.390204  0  0  -0.097541  -0.146067  0  1.411789  0
F  F92  1  0.37897751  0.76822432  0.83888396  1  0  -0.195237  0  1.225713  0  0  -0.150693  0  1.392321  0  0  -0.158635  0  1.380306  0  0  -0.097972  -0.145231  0  1.400973  0
F  F93  1  0.87897787  0.23177607  0.66111656  1  0  -0.195261  0  1.225733  0  0  -0.150617  0  1.392352  0  0  -0.158554  0  1.380342  0  0  -0.097923  -0.145145  0  1.400997  0
F  F94  1  0.62102323  0.23177745  0.16111712  1  0  -0.195175  0  1.225652  0  0  -0.15066  0  1.392358  0  0  -0.158596  0  1.380352  0  0  -0.097932  -0.145186  0  1.401007  0
F  F95  1  0.12102618  0.76822570  0.33888451  1  0  -0.195206  0  1.225689  0  0  -0.150675  0  1.39233  0  0  -0.158611  0  1.380318  0  0  -0.097959  -0.145196  0  1.400979  0
F  F96  1  0.29299788  0.91536063  0.03958810  1  0  -0.203535  0  1.220573  0  0  -0.150454  0  1.378096  0  0  -0.159315  0  1.36704  0  0  -0.098545  -0.144409  0  1.385911  0
F  F97  1  0.79299890  0.08464134  0.46040882  1  0  -0.203575  0  1.220513  0  0  -0.150405  0  1.378094  0  0  -0.15926  0  1.367048  0  0  -0.098559  -0.14436  0  1.385908  0
F  F98  1  0.70700396  0.08464010  0.96041345  1  0  -0.203516  0  1.220576  0  0  -0.150398  0  1.378096  0  0  -0.159254  0  1.367052  0  0  -0.098535  -0.144347  0  1.385908  0
F  F99  1  0.20700184  0.91536147  0.53958995  1  0  -0.203486  0  1.220578  0  0  -0.150418  0  1.378136  0  0  -0.159275  0  1.367087  0  0  -0.098523  -0.144354  0  1.385945  0
