# generated using pymatgen
data_ZnH14C20N2O5
_symmetry_space_group_name_H-M   'P 1'
_cell_length_a   9.20517359
_cell_length_b   10.49561818
_cell_length_c   11.46337258
_cell_angle_alpha   114.52950453
_cell_angle_beta   90.89315909
_cell_angle_gamma   115.71596192
_symmetry_Int_Tables_number   1
_chemical_formula_structural   ZnH14C20N2O5
_chemical_formula_sum   'Zn2 H28 C40 N4 O10'
_cell_volume   881.50944272
_cell_formula_units_Z   2
loop_
 _symmetry_equiv_pos_site_id
 _symmetry_equiv_pos_as_xyz
  1  'x, y, z'
loop_
 _atom_site_type_symbol
 _atom_site_label
 _atom_site_symmetry_multiplicity
 _atom_site_fract_x
 _atom_site_fract_y
 _atom_site_fract_z
 _atom_site_occupancy
 _atom_site_hle17_bader_spin_density
 _atom_site_hle17_ddec_charge
 _atom_site_hle17_ddec_spin_density
 _atom_site_hle17_ddec_sum_bond_order
 _atom_site_hle17_magmom
 _atom_site_hse06_10hf_bader_spin_density
 _atom_site_hse06_10hf_ddec_charge
 _atom_site_hse06_10hf_ddec_spin_density
 _atom_site_hse06_10hf_ddec_sum_bond_order
 _atom_site_hse06_10hf_magmom
 _atom_site_hse06_bader_spin_density
 _atom_site_hse06_ddec_charge
 _atom_site_hse06_ddec_spin_density
 _atom_site_hse06_ddec_sum_bond_order
 _atom_site_hse06_magmom
 _atom_site_pbe_bader_spin_density
 _atom_site_pbe_cm5_charge
 _atom_site_pbe_ddec_charge
 _atom_site_pbe_ddec_spin_density
 _atom_site_pbe_ddec_sum_bond_order
 _atom_site_pbe_magmom
Zn  Zn0  1  0.03099681  0.11798314  0.79765894  1  0  1.040456  0  1.810097  0  0  0.856647  0  2.272142  0  0  0.906244  0  2.215348  0  0  0.680623  0.821705  0  2.311818  0
Zn  Zn1  1  0.96900141  0.88201603  0.20234024  1  0  1.040442  0  1.810129  0  0  0.856614  0  2.272176  0  0  0.90621  0  2.215382  0  0  0.680614  0.821677  0  2.311848  0
H  H2  1  0.73757213  0.86515235  0.29905906  1  0  0.407497  0  0.912435  0  0  0.375015  0  0.979556  0  0  0.387234  0  0.962105  0  0  0.280279  0.366359  0  0.991913  0
H  H3  1  0.26242717  0.13484682  0.70094014  1  0  0.407514  0  0.912411  0  0  0.375036  0  0.979523  0  0  0.387255  0  0.962073  0  0  0.280291  0.366382  0  0.99188  0
H  H4  1  0.82689841  0.81579398  0.38440004  1  0  0.423213  0  0.887718  0  0  0.391914  0  0.952747  0  0  0.403053  0  0.936722  0  0  0.285213  0.384039  0  0.96406  0
H  H5  1  0.17310149  0.18420639  0.61559962  1  0  0.423229  0  0.88769  0  0  0.39194  0  0.9527  0  0  0.403078  0  0.936677  0  0  0.285232  0.384066  0  0.964012  0
H  H6  1  0.41606476  0.31405400  0.25938097  1  0  0.100298  0  0.972176  0  0  0.109425  0  1.035638  0  0  0.112786  0  1.033875  0  0  0.103861  0.106923  0  1.037203  0
H  H7  1  0.58393394  0.68594397  0.74061863  1  0  0.100323  0  0.972166  0  0  0.109449  0  1.035626  0  0  0.112809  0  1.033863  0  0  0.103863  0.106945  0  1.037191  0
H  H8  1  0.29841167  0.08963823  0.08922336  1  0  0.103427  0  0.978992  0  0  0.10878  0  1.049989  0  0  0.112876  0  1.046036  0  0  0.100143  0.105733  0  1.05303  0
H  H9  1  0.70158656  0.91036095  0.91077495  1  0  0.103448  0  0.978967  0  0  0.108805  0  1.049959  0  0  0.112902  0  1.046002  0  0  0.100154  0.105761  0  1.053002  0
H  H10  1  0.47508240  0.05627325  0.22990375  1  0  0.097878  0  0.94586  0  0  0.106601  0  1.009099  0  0  0.110299  0  1.006776  0  0  0.099858  0.103778  0  1.011154  0
H  H11  1  0.52491630  0.94372473  0.77009498  1  0  0.097875  0  0.945877  0  0  0.1066  0  1.00911  0  0  0.110298  0  1.006787  0  0  0.099855  0.103776  0  1.011162  0
H  H12  1  0.13464091  0.89599219  0.46620522  1  0  0.097985  0  0.951852  0  0  0.104997  0  1.015924  0  0  0.107923  0  1.012954  0  0  0.12115  0.102805  0  1.018256  0
H  H13  1  0.86535899  0.10400818  0.53379531  1  0  0.098006  0  0.951829  0  0  0.105021  0  1.015899  0  0  0.107949  0  1.012929  0  0  0.12116  0.102829  0  1.018231  0
H  H14  1  0.34062037  0.82166026  0.51743449  1  0  0.118908  0  0.946299  0  0  0.128047  0  1.003747  0  0  0.131872  0  1.002319  0  0  0.110734  0.125419  0  1.004636  0
H  H15  1  0.65937845  0.17834011  0.48256515  1  0  0.118914  0  0.946284  0  0  0.12805  0  1.003732  0  0  0.131875  0  1.002304  0  0  0.110735  0.125423  0  1.004622  0
H  H16  1  0.44288550  0.67531836  0.33098753  1  0  0.099188  0  0.946097  0  0  0.111625  0  1.004691  0  0  0.113529  0  1.004171  0  0  0.108644  0.11009  0  1.00535  0
H  H17  1  0.55711500  0.32468320  0.66901346  1  0  0.099178  0  0.946092  0  0  0.111615  0  1.004689  0  0  0.113519  0  1.004171  0  0  0.108647  0.110081  0  1.005348  0
H  H18  1  0.43337570  0.55737781  0.08717191  1  0  0.103093  0  0.934933  0  0  0.11918  0  0.987102  0  0  0.121533  0  0.986806  0  0  0.110392  0.117368  0  0.987661  0
H  H19  1  0.56662310  0.44262255  0.91282947  1  0  0.103108  0  0.934846  0  0  0.1192  0  0.987017  0  0  0.121553  0  0.98672  0  0  0.1104  0.117388  0  0.987575  0
H  H20  1  0.32839985  0.50751103  0.86418201  1  0  0.103118  0  0.958566  0  0  0.116029  0  1.017748  0  0  0.118592  0  1.01651  0  0  0.105035  0.11417  0  1.018808  0
H  H21  1  0.67160112  0.49248933  0.13581941  1  0  0.103115  0  0.958565  0  0  0.116022  0  1.017754  0  0  0.118585  0  1.016516  0  0  0.105031  0.114165  0  1.018815  0
H  H22  1  0.15967566  0.54875323  0.71815087  1  0  0.099743  0  0.932881  0  0  0.114596  0  0.98721  0  0  0.116735  0  0.986136  0  0  0.111787  0.112969  0  0.988102  0
H  H23  1  0.84032652  0.45124952  0.28185148  1  0  0.099727  0  0.932894  0  0  0.11459  0  0.987221  0  0  0.11673  0  0.986148  0  0  0.111799  0.112966  0  0.988111  0
H  H24  1  0.96901051  0.65683641  0.70085304  1  0  0.108759  0  0.935226  0  0  0.122493  0  0.98604  0  0  0.125003  0  0.986427  0  0  0.112669  0.120773  0  0.985706  0
H  H25  1  0.03099047  0.34316395  0.29914751  1  0  0.108783  0  0.935179  0  0  0.122507  0  0.986003  0  0  0.125022  0  0.986384  0  0  0.112676  0.120787  0  0.985672  0
H  H26  1  0.88451265  0.79156238  0.90319289  1  0  0.099322  0  0.936753  0  0  0.104872  0  1.003126  0  0  0.108251  0  0.999132  0  0  0.123189  0.102189  0  1.006477  0
H  H27  1  0.11548617  0.20843799  0.09680675  1  0  0.099314  0  0.936775  0  0  0.104862  0  1.003155  0  0  0.10824  0  0.999166  0  0  0.123171  0.102184  0  1.006494  0
H  H28  1  0.32427472  0.42278596  0.64614298  1  0  0.091943  0  0.987831  0  0  0.100408  0  1.055789  0  0  0.104241  0  1.052465  0  0  0.100592  0.097698  0  1.058213  0
H  H29  1  0.67572567  0.57721321  0.35385711  1  0  0.091966  0  0.987814  0  0  0.100429  0  1.055775  0  0  0.104262  0  1.052452  0  0  0.100604  0.09772  0  1.058201  0
C  C30  1  0.40121317  0.45775944  0.58236793  1  0  -0.090471  0  3.767117  0  0  -0.113161  0  4.015074  0  0  -0.114244  0  4.034553  0  0  -0.09099  -0.112349  0  4.001831  0
C  C31  1  0.59878491  0.54223733  0.41763207  1  0  -0.090558  0  3.767274  0  0  -0.113239  0  4.015239  0  0  -0.114321  0  4.034718  0  0  -0.091026  -0.112427  0  4.001999  0
C  C32  1  0.45322580  0.39609603  0.36468246  1  0  -0.075176  0  3.739194  0  0  -0.097806  0  3.984881  0  0  -0.098648  0  4.004932  0  0  -0.085752  -0.097038  0  3.971453  0
C  C33  1  0.54677398  0.60390194  0.63531716  1  0  -0.075277  0  3.739188  0  0  -0.097897  0  3.984887  0  0  -0.098739  0  4.00494  0  0  -0.085793  -0.097128  0  3.971453  0
C  C34  1  0.35289696  0.35219865  0.44667067  1  0  -0.058341  0  3.758505  0  0  -0.034088  0  3.986287  0  0  -0.040352  0  4.008417  0  0  -0.017854  -0.029881  0  3.971239  0
C  C35  1  0.64710114  0.64779812  0.55332846  1  0  -0.058329  0  3.758535  0  0  -0.034098  0  3.986336  0  0  -0.040363  0  4.008466  0  0  -0.01786  -0.029889  0  3.971286  0
C  C36  1  0.19758852  0.19289268  0.39023995  1  0  0.633181  0  3.925613  0  0  0.582195  0  4.218826  0  0  0.616402  0  4.211129  0  0  0.204631  0.558918  0  4.223411  0
C  C37  1  0.80241078  0.80710649  0.60975924  1  0  0.633228  0  3.92545  0  0  0.582251  0  4.218655  0  0  0.616458  0  4.210958  0  0  0.204681  0.558973  0  4.223237  0
C  C38  1  0.38846949  0.05216636  0.05137679  1  0  -0.084751  0  3.74477  0  0  -0.110053  0  4.000314  0  0  -0.1111  0  4.020658  0  0  -0.093461  -0.109132  0  3.986536  0
C  C39  1  0.61153032  0.94783162  0.94862022  1  0  -0.084845  0  3.74454  0  0  -0.110161  0  4.000078  0  0  -0.111208  0  4.020421  0  0  -0.093515  -0.109245  0  3.986303  0
C  C40  1  0.48568296  0.03236454  0.12928772  1  0  -0.079217  0  3.748193  0  0  -0.102961  0  4.002378  0  0  -0.104151  0  4.022883  0  0  -0.09034  -0.102008  0  3.988655  0
C  C41  1  0.51431418  0.96763464  0.87071057  1  0  -0.079183  0  3.748014  0  0  -0.102914  0  4.002205  0  0  -0.104104  0  4.02271  0  0  -0.090306  -0.101963  0  3.988484  0
C  C42  1  0.40228358  0.02049487  0.92195386  1  0  -0.065884  0  3.774914  0  0  -0.042339  0  4.005903  0  0  -0.049398  0  4.029696  0  0  -0.022575  -0.03774  0  3.989722  0
C  C43  1  0.59771247  0.97950431  0.07804440  1  0  -0.065884  0  3.774828  0  0  -0.042311  0  4.005778  0  0  -0.049369  0  4.029569  0  0  -0.022575  -0.037717  0  3.9896  0
C  C44  1  0.30080984  0.04768640  0.84088163  1  0  0.639524  0  3.918624  0  0  0.589147  0  4.211364  0  0  0.623382  0  4.204546  0  0  0.202888  0.566036  0  4.214852  0
C  C45  1  0.69918717  0.95231038  0.15911661  1  0  0.639504  0  3.918574  0  0  0.589123  0  4.211307  0  0  0.623357  0  4.204489  0  0  0.202861  0.566015  0  4.214793  0
C  C46  1  0.18288355  0.83549208  0.38801996  1  0  0.158537  0  3.652428  0  0  0.126164  0  3.903887  0  0  0.134841  0  3.919989  0  0  0.061957  0.120453  0  3.892907  0
C  C47  1  0.81711695  0.16450948  0.61198104  1  0  0.158493  0  3.652448  0  0  0.126104  0  3.903915  0  0  0.134779  0  3.920017  0  0  0.061922  0.120393  0  3.892932  0
C  C48  1  0.29771309  0.79063022  0.41544823  1  0  -0.117363  0  3.71456  0  0  -0.129347  0  3.965404  0  0  -0.136748  0  3.985908  0  0  -0.079813  -0.124527  0  3.95136  0
C  C49  1  0.70228741  0.20937134  0.58455276  1  0  -0.117381  0  3.714533  0  0  -0.129353  0  3.965373  0  0  -0.136753  0  3.985876  0  0  -0.079811  -0.124533  0  3.95133  0
C  C50  1  0.35355704  0.71140176  0.31315684  1  0  -0.029938  0  3.672214  0  0  -0.055604  0  3.920468  0  0  -0.052613  0  3.938613  0  0  -0.056862  -0.057281  0  3.908269  0
C  C51  1  0.64644514  0.28860099  0.68684551  1  0  -0.029901  0  3.672229  0  0  -0.055571  0  3.920475  0  0  -0.052581  0  3.938621  0  0  -0.056872  -0.057249  0  3.908277  0
C  C52  1  0.29546902  0.67786140  0.18344944  1  0  0.032592  0  3.785197  0  0  0.046564  0  4.021162  0  0  0.044228  0  4.04525  0  0  0.002105  0.047958  0  4.004761  0
C  C53  1  0.70453147  0.32214016  0.81655155  1  0  0.032553  0  3.785252  0  0  0.046534  0  4.021218  0  0  0.044199  0  4.045306  0  0  0.002108  0.047927  0  4.004817  0
C  C54  1  0.34682014  0.59726946  0.07155508  1  0  -0.08173  0  3.713465  0  0  -0.106888  0  3.97059  0  0  -0.109525  0  3.99285  0  0  -0.078011  -0.10488  0  3.955813  0
C  C55  1  0.65318363  0.40273210  0.92844510  1  0  -0.081745  0  3.713441  0  0  -0.106917  0  3.970584  0  0  -0.109555  0  3.992844  0  0  -0.078026  -0.104906  0  3.955804  0
C  C56  1  0.29050211  0.57177553  0.94869473  1  0  -0.091886  0  3.716163  0  0  -0.116897  0  3.975755  0  0  -0.119966  0  3.998369  0  0  -0.081159  -0.115004  0  3.960882  0
C  C57  1  0.70949719  0.42822364  0.05130447  1  0  -0.091853  0  3.716159  0  0  -0.116861  0  3.975765  0  0  -0.119929  0  3.99838  0  0  -0.081142  -0.11497  0  3.960895  0
C  C58  1  0.17839694  0.62553827  0.92762466  1  0  0.030793  0  3.782434  0  0  0.046539  0  4.017167  0  0  0.043786  0  4.041973  0  0  0.000988  0.048262  0  4.000391  0
C  C59  1  0.82160464  0.37446328  0.07237722  1  0  0.030757  0  3.782505  0  0  0.04646  0  4.017212  0  0  0.043707  0  4.042016  0  0  0.000972  0.048183  0  4.000439  0
C  C60  1  0.11989232  0.60765986  0.80410352  1  0  -0.035623  0  3.667393  0  0  -0.062405  0  3.91885  0  0  -0.059521  0  3.937265  0  0  -0.057094  -0.064137  0  3.906307  0
C  C61  1  0.88011035  0.39234170  0.19589751  1  0  -0.035494  0  3.667446  0  0  -0.062306  0  3.918929  0  0  -0.059424  0  3.937346  0  0  -0.057051  -0.064039  0  3.90639  0
C  C62  1  0.01427818  0.66626942  0.79392302  1  0  -0.109686  0  3.723321  0  0  -0.125942  0  3.983857  0  0  -0.133067  0  4.005185  0  0  -0.078646  -0.121436  0  3.969463  0
C  C63  1  0.98572329  0.33372975  0.20607621  1  0  -0.109805  0  3.723348  0  0  -0.126038  0  3.983895  0  0  -0.133165  0  4.00522  0  0  -0.078695  -0.121532  0  3.969505  0
C  C64  1  0.96560788  0.74176297  0.90664337  1  0  0.166044  0  3.644284  0  0  0.130038  0  3.903959  0  0  0.139664  0  3.918319  0  0  0.066998  0.123643  0  3.89465  0
C  C65  1  0.03439249  0.25823619  0.09335758  1  0  0.166105  0  3.644279  0  0  0.130106  0  3.903983  0  0  0.139729  0  3.918345  0  0  0.067055  0.123712  0  3.894677  0
C  C66  1  0.12282039  0.70327065  0.03604245  1  0  0.129305  0  3.760131  0  0  0.120479  0  3.997385  0  0  0.124851  0  4.019948  0  0  0.119789  0.117835  0  3.981806  0
C  C67  1  0.87718013  0.29673093  0.96395681  1  0  0.129254  0  3.760172  0  0  0.120616  0  3.997212  0  0  0.124989  0  4.019771  0  0  0.119816  0.117973  0  3.981633  0
C  C68  1  0.18181915  0.72953394  0.16555552  1  0  0.124423  0  3.767309  0  0  0.118345  0  4.004592  0  0  0.122197  0  4.027178  0  0  0.118408  0.115832  0  3.989092  0
C  C69  1  0.81818243  0.27046762  0.83444550  1  0  0.124439  0  3.767443  0  0  0.118308  0  4.004692  0  0  0.122161  0  4.027278  0  0  0.118395  0.115796  0  3.989191  0
N  N70  1  0.01732703  0.75791001  0.02359411  1  0  -0.349562  0  3.283901  0  0  -0.274296  0  3.554999  0  0  -0.29335  0  3.570533  0  0  -0.318407  -0.261598  0  3.544718  0
N  N71  1  0.98267346  0.24209155  0.97640775  1  0  -0.349553  0  3.283784  0  0  -0.274396  0  3.554905  0  0  -0.293452  0  3.570442  0  0  -0.318457  -0.261696  0  3.54462  0
N  N72  1  0.12694373  0.80595227  0.26666406  1  0  -0.356469  0  3.258044  0  0  -0.286308  0  3.525405  0  0  -0.305208  0  3.542369  0  0  -0.316162  -0.273335  0  3.513754  0
N  N73  1  0.87305677  0.19404929  0.73333781  1  0  -0.356442  0  3.258127  0  0  -0.286277  0  3.525514  0  0  -0.305177  0  3.542478  0  0  -0.316134  -0.273304  0  3.51386  0
O  O74  1  0.15589421  0.10870599  0.26392359  1  0  -0.625312  0  2.054899  0  0  -0.555405  0  2.321013  0  0  -0.584049  0  2.308471  0  0  -0.314442  -0.535071  0  2.329047  0
O  O75  1  0.84410401  0.89129318  0.73607558  1  0  -0.625361  0  2.05482  0  0  -0.555465  0  2.320947  0  0  -0.584109  0  2.308403  0  0  -0.31448  -0.535131  0  2.328982  0
O  O76  1  0.11564686  0.14695116  0.46549967  1  0  -0.628196  0  2.005365  0  0  -0.574065  0  2.234809  0  0  -0.598293  0  2.223685  0  0  -0.312952  -0.557231  0  2.242157  0
O  O77  1  0.88435292  0.85304681  0.53449995  1  0  -0.628184  0  2.005389  0  0  -0.574041  0  2.234816  0  0  -0.598271  0  2.223691  0  0  -0.312953  -0.557208  0  2.242163  0
O  O78  1  0.20092678  0.09531301  0.89580753  1  0  -0.646351  0  2.051815  0  0  -0.574953  0  2.312471  0  0  -0.603961  0  2.300625  0  0  -0.327565  -0.554599  0  2.320387  0
O  O79  1  0.79907194  0.90468497  0.10419032  1  0  -0.646351  0  2.051762  0  0  -0.574958  0  2.312417  0  0  -0.603974  0  2.300585  0  0  -0.327568  -0.554604  0  2.320335  0
O  O80  1  0.32182884  0.02622668  0.72631459  1  0  -0.628872  0  1.961856  0  0  -0.576129  0  2.182257  0  0  -0.60087  0  2.173617  0  0  -0.323458  -0.558629  0  2.187397  0
O  O81  1  0.67816998  0.97377369  0.27368505  1  0  -0.628805  0  1.961882  0  0  -0.576057  0  2.182274  0  0  -0.600799  0  2.173636  0  0  -0.323404  -0.558556  0  2.187413  0
O  O82  1  0.78679119  0.79243882  0.29202473  1  0  -0.854355  0  1.934817  0  0  -0.791402  0  2.157199  0  0  -0.814403  0  2.119285  0  0  -0.586367  -0.775038  0  2.183745  0
O  O83  1  0.21320812  0.20756035  0.70797446  1  0  -0.85437  0  1.934778  0  0  -0.79143  0  2.157163  0  0  -0.81443  0  2.11925  0  0  -0.586396  -0.775068  0  2.183709  0
