# generated using pymatgen
data_NiH16C16S4(BrN2)2
_symmetry_space_group_name_H-M   'P 1'
_cell_length_a   8.13769061
_cell_length_b   9.64388884
_cell_length_c   13.66953616
_cell_angle_alpha   90.00064386
_cell_angle_beta   112.29489942
_cell_angle_gamma   90.00239691
_symmetry_Int_Tables_number   1
_chemical_formula_structural   NiH16C16S4(BrN2)2
_chemical_formula_sum   'Ni2 H32 C32 S8 Br4 N8'
_cell_volume   992.57466946
_cell_formula_units_Z   2
loop_
 _symmetry_equiv_pos_site_id
 _symmetry_equiv_pos_as_xyz
  1  'x, y, z'
loop_
 _atom_site_type_symbol
 _atom_site_label
 _atom_site_symmetry_multiplicity
 _atom_site_fract_x
 _atom_site_fract_y
 _atom_site_fract_z
 _atom_site_occupancy
 _atom_site_pbe_bader_spin_density
 _atom_site_pbe_cm5_charge
 _atom_site_pbe_ddec_charge
 _atom_site_pbe_ddec_spin_density
 _atom_site_pbe_ddec_sum_bond_order
 _atom_site_pbe_magmom
Ni  Ni0  1  0.50000119  0.00000671  0.99999887  1  0  0.279657  0.188046  0  3.259822  0
Ni  Ni1  1  0.50000289  0.49999689  0.50000484  1  0  0.279652  0.188045  0  3.259817  0
H  H2  1  0.80418426  0.68510204  0.84802227  1  0  0.100765  0.09927  0  1.031352  0
H  H3  1  0.19582041  0.18514742  0.65192035  1  0  0.100724  0.099299  0  1.031272  0
H  H4  1  0.19582824  0.31490936  0.15198940  1  0  0.100732  0.099206  0  1.031348  0
H  H5  1  0.80417224  0.81483288  0.34806783  1  0  0.10073  0.099233  0  1.031261  0
H  H6  1  0.34398773  0.55565262  0.91303944  1  0  0.09659  0.108084  0  1.039996  0
H  H7  1  0.65605225  0.05565980  0.58699907  1  0  0.096553  0.108043  0  1.039983  0
H  H8  1  0.65601104  0.44435360  0.08694621  1  0  0.09662  0.108193  0  1.039866  0
H  H9  1  0.34394450  0.94433086  0.41302068  1  0  0.096571  0.107984  0  1.040103  0
H  H10  1  0.70847935  0.44370358  0.82694702  1  0  0.094432  0.102461  0  1.022934  0
H  H11  1  0.29152279  0.94376151  0.67302989  1  0  0.094418  0.102353  0  1.023332  0
H  H12  1  0.29152230  0.55630264  0.17307071  1  0  0.094403  0.102378  0  1.02318  0
H  H13  1  0.70846740  0.05622293  0.32695931  1  0  0.094374  0.102319  0  1.023368  0
H  H14  1  0.92354768  0.25281221  0.84922975  1  0  0.085497  0.095577  0  1.060237  0
H  H15  1  0.07649420  0.75283388  0.65076280  1  0  0.085506  0.095543  0  1.059868  0
H  H16  1  0.07646168  0.74719298  0.15077767  1  0  0.085511  0.095636  0  1.060193  0
H  H17  1  0.92349225  0.24715263  0.34923744  1  0  0.085442  0.095445  0  1.060028  0
H  H18  1  0.38961671  0.38411596  0.80074848  1  0  0.266585  0.285468  0  1.009255  0
H  H19  1  0.61040179  0.88411715  0.69926926  1  0  0.266582  0.28534  0  1.009322  0
H  H20  1  0.61037377  0.61589337  0.19924297  1  0  0.266679  0.285609  0  1.009208  0
H  H21  1  0.38958790  0.11587352  0.30073598  1  0  0.266537  0.285246  0  1.009457  0
H  H22  1  0.48967353  0.22194599  0.85269840  1  0  0.265595  0.288259  0  1.012196  0
H  H23  1  0.51037442  0.72192315  0.64733359  1  0  0.265509  0.288099  0  1.012165  0
H  H24  1  0.51032985  0.77806956  0.14730278  1  0  0.265587  0.288292  0  1.012148  0
H  H25  1  0.48961620  0.27806751  0.35266889  1  0  0.265463  0.288022  0  1.012175  0
H  H26  1  0.91634745  0.85501000  0.91561909  1  0  0.288185  0.285936  0  1.004563  0
H  H27  1  0.08370692  0.35505363  0.58441797  1  0  0.288141  0.28587  0  1.004555  0
H  H28  1  0.08366668  0.14500556  0.08437527  1  0  0.288153  0.285959  0  1.00443  0
H  H29  1  0.91629691  0.64493185  0.41557669  1  0  0.288198  0.285922  0  1.004596  0
H  H30  1  0.06909555  0.98093882  0.91692875  1  0  0.28184  0.290253  0  1.01022  0
H  H31  1  0.93093490  0.48097238  0.58305188  1  0  0.28188  0.290275  0  1.009979  0
H  H32  1  0.93092869  0.01906844  0.08306382  1  0  0.281897  0.290395  0  1.010104  0
H  H33  1  0.06908056  0.51901828  0.41694273  1  0  0.28188  0.290197  0  1.010006  0
C  C34  1  0.14634440  0.78366426  0.90211659  1  0  0.151599  0.299182  0  3.979728  0
C  C35  1  0.85367636  0.28367997  0.59787994  1  0  0.151615  0.299414  0  3.980412  0
C  C36  1  0.85367277  0.21634819  0.09788127  1  0  0.15156  0.299356  0  3.979963  0
C  C37  1  0.14632378  0.71631069  0.40211624  1  0  0.151547  0.299315  0  3.980584  0
C  C38  1  0.08384119  0.63816144  0.88384190  1  0  -0.0114  0.024137  0  3.962651  0
C  C39  1  0.91616932  0.13821511  0.61614496  1  0  -0.011302  0.023971  0  3.962693  0
C  C40  1  0.91614193  0.36183856  0.11615259  1  0  -0.011338  0.024004  0  3.962818  0
C  C41  1  0.08383774  0.86177763  0.38385469  1  0  -0.011278  0.023887  0  3.962679  0
C  C42  1  0.90401459  0.60477872  0.85933927  1  0  -0.078115  -0.089631  0  3.908736  0
C  C43  1  0.09600629  0.10479179  0.64064158  1  0  -0.07782  -0.089311  0  3.908365  0
C  C44  1  0.09600925  0.39524305  0.14067010  1  0  -0.078108  -0.089431  0  3.90849  0
C  C45  1  0.90398041  0.89519992  0.35935064  1  0  -0.077785  -0.089134  0  3.908102  0
C  C46  1  0.20454839  0.53036935  0.89296380  1  0  -0.077139  -0.117982  0  3.898893  0
C  C47  1  0.79548224  0.03036597  0.60703291  1  0  -0.077251  -0.118259  0  3.89862  0
C  C48  1  0.79545485  0.46962753  0.10702635  1  0  -0.077253  -0.118207  0  3.898881  0
C  C49  1  0.20450357  0.96961640  0.39297235  1  0  -0.077335  -0.118154  0  3.898588  0
C  C50  1  0.84858945  0.46716395  0.84761931  1  0  -0.085866  -0.059139  0  3.978052  0
C  C51  1  0.15144973  0.96718575  0.65237442  1  0  -0.085899  -0.058863  0  3.978484  0
C  C52  1  0.15142693  0.53283605  0.15239234  1  0  -0.085838  -0.059118  0  3.978228  0
C  C53  1  0.84854011  0.03279351  0.34762205  1  0  -0.085861  -0.058924  0  3.978376  0
C  C54  1  0.96966376  0.36019001  0.85919029  1  0  -0.080868  -0.087727  0  3.924184  0
C  C55  1  0.03036528  0.86022629  0.64079890  1  0  -0.081049  -0.088062  0  3.923811  0
C  C56  1  0.03032819  0.63982243  0.14081244  1  0  -0.08078  -0.087751  0  3.924089  0
C  C57  1  0.96963412  0.13976956  0.35920155  1  0  -0.080928  -0.087873  0  3.924059  0
C  C58  1  0.14810010  0.39204530  0.88023345  1  0  -0.01337  0.019628  0  3.98449  0
C  C59  1  0.85189650  0.89203618  0.61975177  1  0  -0.013261  0.019982  0  3.984501  0
C  C60  1  0.85190760  0.60797854  0.11976120  1  0  -0.013326  0.019857  0  3.984501  0
C  C61  1  0.14808809  0.10797004  0.38025399  1  0  -0.013283  0.019936  0  3.984876  0
C  C62  1  0.27964889  0.28093529  0.89168447  1  0  0.15716  0.302371  0  3.987834  0
C  C63  1  0.72038501  0.78094434  0.60832472  1  0  0.157116  0.302168  0  3.988447  0
C  C64  1  0.72034993  0.71907196  0.10831146  1  0  0.157085  0.302175  0  3.988177  0
C  C65  1  0.27961424  0.21904529  0.39168450  1  0  0.157063  0.302036  0  3.988563  0
S  S66  1  0.27359482  0.14182427  0.96696379  1  0  -0.10179  -0.209774  0  2.931789  0
S  S67  1  0.72640341  0.64182009  0.53304654  1  0  -0.101848  -0.209753  0  2.931863  0
S  S68  1  0.72640856  0.85818921  0.03303739  1  0  -0.101779  -0.209728  0  2.931883  0
S  S69  1  0.27360104  0.35817162  0.46696290  1  0  -0.101851  -0.209811  0  2.931948  0
S  S70  1  0.35335773  0.81938876  0.90577143  1  0  -0.107677  -0.20308  0  2.82419  0
S  S71  1  0.64666212  0.31938620  0.59422338  1  0  -0.107587  -0.203024  0  2.82406  0
S  S72  1  0.64665434  0.18061850  0.09422696  1  0  -0.1077  -0.203133  0  2.824062  0
S  S73  1  0.35334175  0.68061069  0.40578155  1  0  -0.10762  -0.203086  0  2.824096  0
Br  Br74  1  0.65530882  0.05741117  0.81716094  1  0  -0.301422  -0.537802  0  1.089387  0
Br  Br75  1  0.34469095  0.55738118  0.68284595  1  0  -0.301402  -0.537804  0  1.089444  0
Br  Br76  1  0.34467715  0.94260749  0.18283555  1  0  -0.301416  -0.537765  0  1.089381  0
Br  Br77  1  0.65528064  0.44261156  0.31714934  1  0  -0.301413  -0.537808  0  1.089377  0
N  N78  1  0.39926159  0.29939931  0.84985429  1  0  -0.524068  -0.482864  0  3.42296  0
N  N79  1  0.60079934  0.79938971  0.65017637  1  0  -0.523857  -0.482332  0  3.422819  0
N  N80  1  0.60074291  0.70061106  0.15014563  1  0  -0.524111  -0.482997  0  3.423209  0
N  N81  1  0.39919432  0.20059888  0.34982960  1  0  -0.52373  -0.482054  0  3.422645  0
N  N82  1  0.03660210  0.87821296  0.91271452  1  0  -0.546378  -0.506687  0  3.474413  0
N  N83  1  0.96342339  0.37823860  0.58728974  1  0  -0.546557  -0.506841  0  3.474289  0
N  N84  1  0.96341488  0.12179845  0.08728184  1  0  -0.546394  -0.506988  0  3.474185  0
N  N85  1  0.03657617  0.62175103  0.41270193  1  0  -0.546581  -0.506781  0  3.474385  0
