# generated using pymatgen
data_CdH20C22(N3O4)2
_symmetry_space_group_name_H-M   'P 1'
_cell_length_a   9.62831776
_cell_length_b   12.55218317
_cell_length_c   13.70300000
_cell_angle_alpha   73.81951847
_cell_angle_beta   74.35388259
_cell_angle_gamma   70.44542915
_symmetry_Int_Tables_number   1
_chemical_formula_structural   CdH20C22(N3O4)2
_chemical_formula_sum   'Cd2 H40 C44 N12 O16'
_cell_volume   1470.00536582
_cell_formula_units_Z   2
loop_
 _symmetry_equiv_pos_site_id
 _symmetry_equiv_pos_as_xyz
  1  'x, y, z'
loop_
 _atom_site_type_symbol
 _atom_site_label
 _atom_site_symmetry_multiplicity
 _atom_site_fract_x
 _atom_site_fract_y
 _atom_site_fract_z
 _atom_site_occupancy
 _atom_site_hle17_bader_spin_density
 _atom_site_hle17_ddec_charge
 _atom_site_hle17_ddec_spin_density
 _atom_site_hle17_ddec_sum_bond_order
 _atom_site_hle17_magmom
 _atom_site_hse06_10hf_bader_spin_density
 _atom_site_hse06_10hf_ddec_charge
 _atom_site_hse06_10hf_ddec_spin_density
 _atom_site_hse06_10hf_ddec_sum_bond_order
 _atom_site_hse06_10hf_magmom
 _atom_site_hse06_bader_spin_density
 _atom_site_hse06_ddec_charge
 _atom_site_hse06_ddec_spin_density
 _atom_site_hse06_ddec_sum_bond_order
 _atom_site_hse06_magmom
 _atom_site_pbe_bader_charge
 _atom_site_pbe_bader_spin_density
 _atom_site_pbe_cm5_charge
 _atom_site_pbe_ddec_charge
 _atom_site_pbe_ddec_spin_density
 _atom_site_pbe_ddec_sum_bond_order
 _atom_site_pbe_magmom
Cd  Cd0  1  0.66107366  0.32474739  0.57463616  1  0  1.087714  0  1.696072  0  0  0.887487  0  2.14312  0  0  0.945725  0  2.091547  0  1.298597  0  0.784478  0.845922  0  2.178432  0
Cd  Cd1  1  0.33892544  0.67525346  0.42536452  1  0  1.087733  0  1.696081  0  0  0.887504  0  2.143128  0  0  0.945743  0  2.091554  0  1.298543  0  0.784506  0.845943  0  2.178437  0
H  H2  1  0.31236123  0.37610399  0.23865043  1  0  0.28707  0  0.94556  0  0  0.265435  0  1.01951  0  0  0.273645  0  1.012778  0  0.497213  0  0.301704  0.259632  0  1.024241  0
H  H3  1  0.68763927  0.62389600  0.76134875  1  0  0.287065  0  0.945565  0  0  0.265428  0  1.019518  0  0  0.273638  0  1.012787  0  0.497208  0  0.301695  0.259625  0  1.02425  0
H  H4  1  0.91347503  0.45449061  0.47705359  1  0  0.075754  0  0.929431  0  0  0.087456  0  0.988666  0  0  0.089523  0  0.987077  0  0.061527  0  0.116219  0.085837  0  0.989977  0
H  H5  1  0.08652547  0.54550938  0.52294559  1  0  0.075738  0  0.929442  0  0  0.087421  0  0.988698  0  0  0.089507  0  0.987087  0  0.061497  0  0.116205  0.085803  0  0.990008  0
H  H6  1  0.45933562  0.38226364  0.78692926  1  0  0.072651  0  0.953131  0  0  0.080526  0  1.022575  0  0  0.082451  0  1.021195  0  0.083968  0  0.112851  0.079061  0  1.023672  0
H  H7  1  0.54066317  0.61773808  0.21307199  1  0  0.072636  0  0.953184  0  0  0.080512  0  1.022625  0  0  0.082436  0  1.021247  0  0.083955  0  0.112853  0.079048  0  1.023718  0
H  H8  1  0.12236672  0.46617121  0.32479212  1  0  0.111314  0  0.989977  0  0  0.115131  0  1.060922  0  0  0.119065  0  1.058697  0  0.136912  0  0.107548  0.112213  0  1.06277  0
H  H9  1  0.87763347  0.53382965  0.67520762  1  0  0.111245  0  0.989993  0  0  0.11506  0  1.060944  0  0  0.118995  0  1.058718  0  0.136924  0  0.107525  0.112142  0  1.062792  0
H  H10  1  0.37606410  0.26442141  0.56049894  1  0  0.075188  0  0.968009  0  0  0.079543  0  1.042913  0  0  0.082039  0  1.040595  0  0.121501  0  0.110546  0.07766  0  1.044663  0
H  H11  1  0.62393887  0.73557772  0.43949999  1  0  0.075194  0  0.968  0  0  0.079544  0  1.042909  0  0  0.08204  0  1.040592  0  0.121551  0  0.110538  0.077661  0  1.044659  0
H  H12  1  0.72569769  0.29170120  0.34353644  1  0  0.091387  0  0.943361  0  0  0.097742  0  1.009403  0  0  0.10101  0  1.006018  0  0.122598  0  0.118816  0.0953  0  1.011961  0
H  H13  1  0.27430281  0.70829879  0.65646419  1  0  0.091406  0  0.94335  0  0  0.097758  0  1.009394  0  0  0.101026  0  1.006009  0  0.122591  0  0.118832  0.095316  0  1.011952  0
H  H14  1  0.93371662  0.29092163  0.18537926  1  0  0.124324  0  0.934215  0  0  0.134588  0  0.988992  0  0  0.138617  0  0.987071  0  0.127017  0  0.119026  0.131658  0  0.990561  0
H  H15  1  0.06628249  0.70907923  0.81461996  1  0  0.124318  0  0.934218  0  0  0.134571  0  0.989004  0  0  0.1386  0  0.987085  0  0.12702  0  0.119026  0.131642  0  0.990573  0
H  H16  1  0.12034097  0.25315998  0.66281735  1  0  0.120964  0  0.970015  0  0  0.126333  0  1.036478  0  0  0.13047  0  1.034501  0  0.12689  0  0.106526  0.123268  0  1.038129  0
H  H17  1  0.87965845  0.74684001  0.33718130  1  0  0.120952  0  0.969992  0  0  0.126318  0  1.036462  0  0  0.130462  0  1.034478  0  0.126906  0  0.106532  0.123245  0  1.038121  0
H  H18  1  0.65724540  0.23541827  0.88989632  1  0  0.110794  0  0.959415  0  0  0.118278  0  1.022912  0  0  0.12157  0  1.020534  0  0.121064  0  0.103707  0.115854  0  1.024681  0
H  H19  1  0.34275541  0.76458086  0.11010375  1  0  0.110794  0  0.959414  0  0  0.11828  0  1.022908  0  0  0.121571  0  1.020531  0  0.121076  0  0.103705  0.115856  0  1.024677  0
H  H20  1  0.51865044  0.44765856  0.17487173  1  0  0.098218  0  0.967292  0  0  0.10644  0  1.034442  0  0  0.108684  0  1.034303  0  0.056324  0  0.101284  0.104829  0  1.034649  0
H  H21  1  0.48134975  0.55234229  0.82512802  1  0  0.098216  0  0.967303  0  0  0.106437  0  1.034454  0  0  0.108681  0  1.034315  0  0.056327  0  0.101285  0.104826  0  1.034661  0
H  H22  1  0.77025098  0.42748393  0.05942287  1  0  0.103346  0  0.941685  0  0  0.114139  0  1.001888  0  0  0.116912  0  1.000515  0  0.090847  0  0.106742  0.11212  0  1.002955  0
H  H23  1  0.22975028  0.57251693  0.94057668  1  0  0.103337  0  0.941725  0  0  0.114115  0  1.001943  0  0  0.116899  0  1.000556  0  0.090667  0  0.106729  0.112096  0  1.00301  0
H  H24  1  0.20708456  0.37913585  0.89825255  1  0  0.13314  0  0.965564  0  0  0.140674  0  1.028401  0  0  0.145154  0  1.025488  0  0.147366  0  0.112218  0.137425  0  1.030657  0
H  H25  1  0.79291378  0.62086414  0.10174849  1  0  0.133134  0  0.965636  0  0  0.140673  0  1.028463  0  0  0.145152  0  1.025551  0  0.147378  0  0.11221  0.137428  0  1.030719  0
H  H26  1  0.40514291  0.25700684  0.00505310  1  0  0.118261  0  0.953019  0  0  0.129333  0  1.007429  0  0  0.132444  0  1.006492  0  0.118276  0  0.109897  0.127086  0  1.008217  0
H  H27  1  0.59485651  0.74299315  0.99494701  1  0  0.118255  0  0.953026  0  0  0.129327  0  1.007436  0  0  0.132438  0  1.006499  0  0.118274  0  0.109893  0.127081  0  1.008224  0
H  H28  1  0.65751292  0.09200145  0.37232532  1  0  0.116558  0  0.932942  0  0  0.136441  0  0.990997  0  0  0.138457  0  0.98945  0  0.096848  0  0.112394  0.134872  0  0.992235  0
H  H29  1  0.34248650  0.90799854  0.62767479  1  0  0.116554  0  0.932949  0  0  0.136434  0  0.991008  0  0  0.138452  0  0.98946  0  0.096844  0  0.112391  0.134865  0  0.992246  0
H  H30  1  0.61759067  0.95592486  0.39893626  1  0  0.091592  0  0.942666  0  0  0.112105  0  1.005647  0  0  0.111907  0  1.006842  0  0.039795  0  0.101784  0.112165  0  1.004835  0
H  H31  1  0.38240983  0.04407513  0.60106438  1  0  0.091592  0  0.942662  0  0  0.112103  0  1.005645  0  0  0.111907  0  1.00684  0  0.039795  0  0.10178  0.112165  0  1.004831  0
H  H32  1  0.80747222  0.96320892  0.35451346  1  0  0.116814  0  0.960676  0  0  0.132641  0  1.028928  0  0  0.134151  0  1.027535  0  0.120519  0  0.105834  0.131396  0  1.030055  0
H  H33  1  0.19252891  0.03678934  0.64548750  1  0  0.116808  0  0.960714  0  0  0.132641  0  1.028957  0  0  0.134152  0  1.027565  0  0.120524  0  0.105827  0.131397  0  1.030085  0
H  H34  1  0.76068027  0.85961849  0.64509348  1  0  0.102206  0  0.933339  0  0  0.121776  0  0.996041  0  0  0.122534  0  0.996034  0  0.061738  0  0.10692  0.121112  0  0.996184  0
H  H35  1  0.23931992  0.14038237  0.35490773  1  0  0.102217  0  0.933347  0  0  0.121789  0  0.996047  0  0  0.122548  0  0.99604  0  0.061644  0  0.106932  0.121126  0  0.99619  0
H  H36  1  0.86309065  0.81342590  0.52684378  1  0  0.113075  0  0.952964  0  0  0.12989  0  1.020074  0  0  0.130951  0  1.020144  0  0.086207  0  0.101115  0.129003  0  1.020181  0
H  H37  1  0.13690985  0.18657410  0.47315686  1  0  0.113069  0  0.952965  0  0  0.129884  0  1.020076  0  0  0.130946  0  1.020145  0  0.086214  0  0.10111  0.128997  0  1.020182  0
H  H38  1  0.66874699  0.81814221  0.57075146  1  0  0.107459  0  0.956317  0  0  0.125634  0  1.022815  0  0  0.126836  0  1.021986  0  0.08422  0  0.101477  0.124686  0  1.023463  0
H  H39  1  0.33125320  0.18185864  0.42924901  1  0  0.107448  0  0.956322  0  0  0.125619  0  1.022826  0  0  0.126823  0  1.021996  0  0.084208  0  0.101467  0.124671  0  1.023474  0
H  H40  1  0.70786077  0.04252809  0.63417245  1  0  0.048182  0  0.925842  0  0  0.056591  0  0.993004  0  0  0.059162  0  0.986953  0  0.12454  0  0.122239  0.054528  0  0.997514  0
H  H41  1  0.29214049  0.95747277  0.36582855  1  0  0.048167  0  0.925863  0  0  0.056603  0  0.992998  0  0  0.059175  0  0.986947  0  0.124573  0  0.122237  0.05454  0  0.997508  0
C  C42  1  0.92169496  0.41949462  0.41055761  1  0  0.133144  0  3.699849  0  0  0.101592  0  3.953517  0  0  0.108328  0  3.972252  0  0.498731  0  0.047065  0.097178  0  3.940813  0
C  C43  1  0.07830415  0.58050623  0.58944234  1  0  0.133084  0  3.699784  0  0  0.101542  0  3.953452  0  0  0.108264  0  3.972185  0  0.498734  0  0.047045  0.097127  0  3.94075  0
C  C44  1  0.04833274  0.37337377  0.24443493  1  0  0.007073  0  3.728352  0  0  0.022259  0  3.96235  0  0  0.021751  0  3.982702  0  -0.071203  0  0.010899  0.022537  0  3.948703  0
C  C45  1  0.95166713  0.62662795  0.75556465  1  0  0.007126  0  3.72816  0  0  0.02228  0  3.962203  0  0  0.021775  0  3.982552  0  -0.071183  0  0.010885  0.022554  0  3.948557  0
C  C46  1  0.37988324  0.35574700  0.76179430  1  0  0.131613  0  3.723085  0  0  0.100237  0  3.973798  0  0  0.108026  0  3.993006  0  0.452079  0  0.041102  0.095131  0  3.960686  0
C  C47  1  0.62011618  0.64425299  0.23820654  1  0  0.131584  0  3.723225  0  0  0.100209  0  3.973944  0  0  0.107998  0  3.993153  0  0.452035  0  0.041087  0.095103  0  3.960834  0
C  C48  1  0.04013455  0.42321876  0.32613737  1  0  -0.136786  0  3.709848  0  0  -0.15675  0  3.960453  0  0  -0.162643  0  3.9812  0  -0.007305  0  -0.078424  -0.152935  0  3.946717  0
C  C49  1  0.95986564  0.57678210  0.67386238  1  0  -0.1367  0  3.709712  0  0  -0.156646  0  3.960305  0  0  -0.162543  0  3.981059  0  -0.007302  0  -0.078398  -0.152828  0  3.946567  0
C  C50  1  0.33373303  0.28829598  0.63595993  1  0  0.117977  0  3.740645  0  0  0.085663  0  3.992348  0  0  0.093013  0  4.012306  0  0.453683  0  0.033901  0.080873  0  3.978744  0
C  C51  1  0.66626531  0.71170401  0.36403893  1  0  0.117997  0  3.74069  0  0  0.08569  0  3.992386  0  0  0.093039  0  4.012348  0  0.453623  0  0.033952  0.0809  0  3.978779  0
C  C52  1  0.81673775  0.32849314  0.33587411  1  0  0.134242  0  3.680404  0  0  0.101967  0  3.93299  0  0  0.108974  0  3.950757  0  0.45621  0  0.049143  0.097311  0  3.921007  0
C  C53  1  0.18326275  0.67150686  0.66412506  1  0  0.134204  0  3.680367  0  0  0.101926  0  3.932958  0  0  0.108933  0  3.950724  0  0.456284  0  0.049118  0.097271  0  3.920975  0
C  C54  1  0.14212767  0.31685057  0.78872020  1  0  0.186332  0  3.873152  0  0  0.197838  0  4.096912  0  0  0.207436  0  4.115169  0  0.082155  0  0.023468  0.191524  0  4.084297  0
C  C55  1  0.85787130  0.68314770  0.21127898  1  0  0.186366  0  3.872992  0  0  0.19787  0  4.096764  0  0  0.207467  0  4.115022  0  0.082235  0  0.0235  0.191555  0  4.084149  0
C  C56  1  0.44634409  0.35326568  0.09767548  1  0  0.263582  0  3.776587  0  0  0.26082  0  4.019615  0  0  0.269854  0  4.041284  0  0.327258  0  0.10334  0.254778  0  4.004827  0
C  C57  1  0.55365501  0.64673518  0.90232520  1  0  0.263567  0  3.776597  0  0  0.260811  0  4.019618  0  0  0.269846  0  4.041287  0  0.327249  0  0.103326  0.254769  0  4.004831  0
C  C58  1  0.99801445  0.31712973  0.84825349  1  0  -0.111424  0  3.825468  0  0  -0.112328  0  4.077626  0  0  -0.120542  0  4.107757  0  -0.292088  0  -0.040493  -0.106675  0  4.056985  0
C  C59  1  0.00198713  0.68287027  0.15174549  1  0  -0.111435  0  3.825518  0  0  -0.112339  0  4.077675  0  0  -0.120553  0  4.107806  0  -0.292087  0  -0.040522  -0.106686  0  4.057035  0
C  C60  1  0.93182676  0.32791580  0.24899436  1  0  -0.123  0  3.692431  0  0  -0.143841  0  3.936372  0  0  -0.149286  0  3.955817  0  0.015139  0  -0.070767  -0.140371  0  3.923539  0
C  C61  1  0.06817374  0.67208419  0.75100555  1  0  -0.122995  0  3.692389  0  0  -0.143814  0  3.936337  0  0  -0.149259  0  3.955782  0  0.015059  0  -0.070748  -0.140342  0  3.923504  0
C  C62  1  0.19251147  0.28246216  0.69247289  1  0  -0.169541  0  3.673602  0  0  -0.182291  0  3.912045  0  0  -0.190954  0  3.931262  0  -0.015098  0  -0.082308  -0.17663  0  3.899272  0
C  C63  1  0.80748656  0.71753869  0.30752727  1  0  -0.16955  0  3.673539  0  0  -0.182298  0  3.911988  0  0  -0.190965  0  3.931201  0  -0.015125  0  -0.082328  -0.176629  0  3.89922  0
C  C64  1  0.62597227  0.28244661  0.95218192  1  0  -0.082855  0  3.69959  0  0  -0.099406  0  3.941657  0  0  -0.100034  0  3.962  0  -0.078688  0  -0.076735  -0.098656  0  3.927638  0
C  C65  1  0.37402792  0.71755425  0.04781710  1  0  -0.082868  0  3.699638  0  0  -0.099422  0  3.941709  0  0  -0.100049  0  3.962052  0  -0.078706  0  -0.076748  -0.098671  0  3.92769  0
C  C66  1  0.73063079  0.32997536  0.96699723  1  0  0.099406  0  3.902461  0  0  0.111566  0  4.135034  0  0  0.110282  0  4.158832  0  0.141021  0  -0.005691  0.112294  0  4.118811  0
C  C67  1  0.26937047  0.67002550  0.03300158  1  0  0.099399  0  3.902441  0  0  0.11156  0  4.135013  0  0  0.110275  0  4.158815  0  0.141038  0  -0.005689  0.112287  0  4.118789  0
C  C68  1  0.55075149  0.39992498  0.11326605  1  0  -0.163991  0  3.758512  0  0  -0.184434  0  4.012438  0  0  -0.191226  0  4.036298  0  -0.009793  0  -0.096619  -0.179897  0  3.996235  0
C  C69  1  0.44924901  0.60007501  0.88673386  1  0  -0.163979  0  3.758497  0  0  -0.184422  0  4.012411  0  0  -0.191215  0  4.036275  0  -0.009806  0  -0.096612  -0.179885  0  3.996208  0
C  C70  1  0.69073390  0.38878974  0.04903236  1  0  -0.084254  0  3.725242  0  0  -0.104299  0  3.971396  0  0  -0.104773  0  3.992414  0  -0.065272  0  -0.079191  -0.10366  0  3.956935  0
C  C71  1  0.30926660  0.61121026  0.95096755  1  0  -0.084221  0  3.725294  0  0  -0.104252  0  3.971445  0  0  -0.104735  0  3.992461  0  -0.06508  0  -0.079162  -0.103613  0  3.956984  0
C  C72  1  0.87318774  0.32118401  0.90182843  1  0  -0.045428  0  3.819365  0  0  -0.045904  0  4.070617  0  0  -0.045303  0  4.100877  0  -0.027741  0  -0.019897  -0.046331  0  4.050066  0
C  C73  1  0.12680952  0.67881598  0.09817282  1  0  -0.045396  0  3.819454  0  0  -0.045868  0  4.070693  0  0  -0.045266  0  4.100953  0  -0.027732  0  -0.019869  -0.046293  0  4.050142  0
C  C74  1  0.24028485  0.35392425  0.82348605  1  0  -0.165564  0  3.650046  0  0  -0.181485  0  3.889188  0  0  -0.189496  0  3.907418  0  -0.01069  0  -0.077635  -0.1763  0  3.877036  0
C  C75  1  0.75971520  0.64607401  0.17651511  1  0  -0.165592  0  3.650165  0  0  -0.181521  0  3.889311  0  0  -0.189533  0  3.90754  0  -0.010712  0  -0.077654  -0.176343  0  3.877167  0
C  C76  1  0.48522244  0.29397941  0.01663762  1  0  -0.160913  0  3.726463  0  0  -0.180625  0  3.972892  0  0  -0.18699  0  3.994587  0  0.034084  0  -0.092069  -0.17638  0  3.958129  0
C  C77  1  0.51477774  0.70602144  0.98336213  1  0  -0.160934  0  3.726514  0  0  -0.180649  0  3.972945  0  0  -0.187015  0  3.99464  0  0.034054  0  -0.092086  -0.176405  0  3.958182  0
C  C78  1  0.17448703  0.36571980  0.15124194  1  0  0.531083  0  3.832513  0  0  0.488876  0  4.116413  0  0  0.517255  0  4.115518  0  1.413236  0  0.245005  0.469846  0  4.116283  0
C  C79  1  0.82551176  0.63428192  0.84875785  1  0  0.531072  0  3.832522  0  0  0.488867  0  4.116431  0  0  0.517244  0  4.115534  0  1.413204  0  0.244999  0.469839  0  4.116298  0
C  C80  1  0.69819920  0.99896114  0.40207565  1  0  -0.170912  0  3.625727  0  0  -0.265276  0  3.860594  0  0  -0.262276  0  3.870571  0  0.233939  0  -0.133368  -0.266923  0  3.853865  0
C  C81  1  0.30180130  0.00103885  0.59792426  1  0  -0.170931  0  3.625812  0  0  -0.265302  0  3.860674  0  0  -0.262307  0  3.870653  0  0.233918  0  -0.133366  -0.26695  0  3.853944  0
C  C82  1  0.75369413  0.86081032  0.56618828  1  0  -0.186518  0  3.659606  0  0  -0.289919  0  3.911374  0  0  -0.287532  0  3.922837  0  0.252549  0  -0.136876  -0.291181  0  3.903605  0
C  C83  1  0.24630637  0.13918968  0.43381235  1  0  -0.186493  0  3.659541  0  0  -0.289903  0  3.91131  0  0  -0.287519  0  3.922774  0  0.25267  0  -0.136877  -0.291164  0  3.903541  0
C  C84  1  0.69278927  0.06786328  0.55288936  1  0  0.380612  0  3.824796  0  0  0.304848  0  4.110902  0  0  0.333616  0  4.111548  0  1.356073  0  0.170362  0.285588  0  4.10995  0
C  C85  1  0.30721249  0.93213326  0.44711265  1  0  0.380538  0  3.824961  0  0  0.30474  0  4.111092  0  0  0.333504  0  4.111743  0  1.355769  0  0.17035  0.28548  0  4.11014  0
N  N86  1  0.42648623  0.32454602  0.66922564  1  0  -0.339213  0  3.290522  0  0  -0.253172  0  3.54715  0  0  -0.275231  0  3.56796  0  -1.225196  0  -0.341083  -0.238062  0  3.532607  0
N  N87  1  0.57350964  0.67545484  0.33077419  1  0  -0.339168  0  3.290639  0  0  -0.253123  0  3.547249  0  0  -0.275183  0  3.56806  0  -1.225188  0  -0.34109  -0.238014  0  3.532705  0
N  N88  1  0.30822569  0.36588401  0.16761538  1  0  -0.444071  0  3.361946  0  0  -0.388655  0  3.596013  0  0  -0.41226  0  3.606114  0  -1.250792  0  -0.393559  -0.372376  0  3.588569  0
N  N89  1  0.69177373  0.63411598  0.83238474  1  0  -0.444072  0  3.361944  0  0  -0.388654  0  3.596008  0  0  -0.412259  0  3.60611  0  -1.25078  0  -0.393544  -0.372375  0  3.588564  0
N  N90  1  0.81326156  0.37139805  0.41670328  1  0  -0.317443  0  3.25859  0  0  -0.23769  0  3.522421  0  0  -0.257789  0  3.541944  0  -1.222349  0  -0.326771  -0.223881  0  3.508816  0
N  N91  1  0.18673862  0.62860281  0.58329574  1  0  -0.317394  0  3.258504  0  0  -0.237628  0  3.522307  0  0  -0.257728  0  3.541839  0  -1.222372  0  -0.326742  -0.22382  0  3.508704  0
N  N92  1  0.61587465  0.55370957  0.62231809  1  0  0.678909  0  4.143845  0  0  0.71892  0  4.424116  0  0  0.747568  0  4.430045  0  0.806713  0  0.092037  0.69969  0  4.419558  0
N  N93  1  0.38412585  0.44629042  0.37768182  1  0  0.678923  0  4.143769  0  0  0.718927  0  4.424069  0  0  0.747575  0  4.429998  0  0.806713  0  0.092043  0.699697  0  4.419512  0
N  N94  1  0.71258576  0.97981239  0.50931797  1  0  -0.077689  0  3.511019  0  0  0.027922  0  3.743682  0  0  0.008012  0  3.769114  0  -1.224186  0  -0.278469  0.041176  0  3.726083  0
N  N95  1  0.28741537  0.02018587  0.49068299  1  0  -0.077662  0  3.510976  0  0  0.027962  0  3.74362  0  0  0.008057  0  3.769056  0  -1.224163  0  -0.278442  0.041217  0  3.726021  0
N  N96  1  0.87539914  0.15769714  0.69929604  1  0  0.712043  0  4.112634  0  0  0.732135  0  4.421014  0  0  0.760472  0  4.427926  0  0.827665  0  0.091875  0.713027  0  4.415825  0
N  N97  1  0.12460104  0.84230372  0.30070370  1  0  0.712101  0  4.112664  0  0  0.732192  0  4.421042  0  0  0.760529  0  4.427955  0  0.827655  0  0.091913  0.713084  0  4.415852  0
O  O98  1  0.15404124  0.35710217  0.06864359  1  0  -0.523568  0  1.910127  0  0  -0.488367  0  2.121975  0  0  -0.507043  0  2.115522  0  -1.130295  0  -0.285596  -0.475285  0  2.125966  0
O  O99  1  0.84595926  0.64289782  0.93135632  1  0  -0.523562  0  1.910208  0  0  -0.488357  0  2.122052  0  0  -0.507031  0  2.115597  0  -1.130252  0  -0.285578  -0.475277  0  2.126043  0
O  O100  1  0.54459287  0.54912894  0.55913195  1  0  -0.462486  0  1.861296  0  0  -0.44905  0  2.106653  0  0  -0.468065  0  2.101156  0  -0.533924  0  -0.173614  -0.435642  0  2.110027  0
O  O101  1  0.45540731  0.45087191  0.44086780  1  0  -0.46247  0  1.86132  0  0  -0.449034  0  2.106688  0  0  -0.468051  0  2.101193  0  -0.53398  0  -0.173601  -0.435626  0  2.110062  0
O  O102  1  0.65844132  0.17207512  0.50716398  1  0  -0.548289  0  2.124203  0  0  -0.490645  0  2.396683  0  0  -0.517037  0  2.388236  0  -1.165719  0  -0.312468  -0.472099  0  2.401545  0
O  O103  1  0.34156012  0.82792228  0.49283641  1  0  -0.548214  0  2.124352  0  0  -0.490564  0  2.396836  0  0  -0.516953  0  2.388388  0  -1.165474  0  -0.312476  -0.472017  0  2.401695  0
O  O104  1  0.92410558  0.21865144  0.61213083  1  0  -0.526141  0  1.753143  0  0  -0.503527  0  1.979763  0  0  -0.523046  0  1.973515  0  -0.581687  0  -0.217002  -0.489676  0  1.983601  0
O  O105  1  0.07589600  0.78134855  0.38786814  1  0  -0.526159  0  1.753177  0  0  -0.503543  0  1.979797  0  0  -0.523064  0  1.973553  0  -0.581627  0  -0.217022  -0.489692  0  1.983631  0
O  O106  1  0.73213459  0.17594099  0.72799503  1  0  -0.509908  0  1.758011  0  0  -0.487389  0  1.984016  0  0  -0.506801  0  1.975453  0  -0.58678  0  -0.212364  -0.473718  0  1.989559  0
O  O107  1  0.26786483  0.82405900  0.27200508  1  0  -0.509912  0  1.758013  0  0  -0.487398  0  1.984023  0  0  -0.50681  0  1.97546  0  -0.586766  0  -0.212359  -0.473728  0  1.989566  0
O  O108  1  0.96283653  0.08410894  0.75306240  1  0  -0.411761  0  1.697495  0  0  -0.409913  0  1.887053  0  0  -0.419611  0  1.880872  0  -0.480106  0  -0.173983  -0.403109  0  1.891284  0
O  O109  1  0.03716289  0.91589105  0.24693699  1  0  -0.411807  0  1.69751  0  0  -0.409959  0  1.887065  0  0  -0.419657  0  1.880884  0  -0.480129  0  -0.174012  -0.403154  0  1.891295  0
O  O110  1  0.60327130  0.64812146  0.64392134  1  0  -0.44004  0  1.792021  0  0  -0.433036  0  2.002084  0  0  -0.445597  0  1.99474  0  -0.545137  0  -0.171746  -0.424285  0  2.006928  0
O  O111  1  0.39672920  0.35187853  0.35607856  1  0  -0.440045  0  1.791964  0  0  -0.43304  0  2.002024  0  0  -0.445601  0  1.994681  0  -0.545134  0  -0.171756  -0.424289  0  2.00687  0
O  O112  1  0.70230597  0.45948695  0.66475834  1  0  -0.480241  0  1.755204  0  0  -0.46483  0  1.976846  0  0  -0.482371  0  1.968942  0  -0.55041  0  -0.194796  -0.452518  0  1.981992  0
O  O113  1  0.29769452  0.54051304  0.33524157  1  0  -0.480266  0  1.755174  0  0  -0.464854  0  1.976812  0  0  -0.482393  0  1.968906  0  -0.550408  0  -0.194814  -0.452542  0  1.981959  0
