# generated using pymatgen
data_CuH16C14(BrN4)2
_symmetry_space_group_name_H-M   'P 1'
_cell_length_a   7.13782025
_cell_length_b   8.94155186
_cell_length_c   14.08105593
_cell_angle_alpha   89.99986049
_cell_angle_beta   89.99980516
_cell_angle_gamma   103.17292761
_symmetry_Int_Tables_number   1
_chemical_formula_structural   CuH16C14(BrN4)2
_chemical_formula_sum   'Cu2 H32 C28 Br4 N16'
_cell_volume   875.05019179
_cell_formula_units_Z   2
loop_
 _symmetry_equiv_pos_site_id
 _symmetry_equiv_pos_as_xyz
  1  'x, y, z'
loop_
 _atom_site_type_symbol
 _atom_site_label
 _atom_site_symmetry_multiplicity
 _atom_site_fract_x
 _atom_site_fract_y
 _atom_site_fract_z
 _atom_site_occupancy
 _atom_site_hle17_ddec_charge
 _atom_site_hle17_ddec_spin_density
 _atom_site_hle17_ddec_sum_bond_order
 _atom_site_hle17_magmom
 _atom_site_hse06_10hf_ddec_charge
 _atom_site_hse06_10hf_ddec_spin_density
 _atom_site_hse06_10hf_ddec_sum_bond_order
 _atom_site_hse06_10hf_magmom
 _atom_site_hse06_ddec_charge
 _atom_site_hse06_ddec_spin_density
 _atom_site_hse06_ddec_sum_bond_order
 _atom_site_hse06_magmom
 _atom_site_pbe_cm5_charge
 _atom_site_pbe_ddec_charge
 _atom_site_pbe_ddec_spin_density
 _atom_site_pbe_ddec_sum_bond_order
 _atom_site_pbe_magmom
Cu  Cu0  1  0.50000016  0.00000024  0.00000028  1  0.693063  -0.706907  2.013783  -0.539  0.644022  -0.786685  2.410955  -0.644  0.724549  -0.84347  2.35423  -0.717  0.737995  0.594956  -0.747357  2.448117  -0.596
Cu  Cu1  1  0.50000042  0.49999928  0.50000004  1  0.693203  -0.706911  2.013684  -0.539  0.644093  -0.786684  2.41093  -0.644  0.724676  -0.843469  2.354124  -0.717  0.737988  0.595034  -0.747358  2.448098  -0.596
H  H2  1  0.56223505  0.36660069  0.96068784  1  0.106622  0.000173  0.956493  0.0  0.11487  6.4e-05  1.02129  0.0  0.11645  7.8e-05  1.020197  0.0  0.118409  0.113678  -3.6e-05  1.022092  0.0
H  H3  1  0.43776200  0.13340210  0.46069366  1  0.106554  0.000176  0.956512  0.0  0.114835  6.4e-05  1.021298  0.0  0.11642  7.8e-05  1.020198  0.0  0.118403  0.113643  -3.6e-05  1.022099  0.0
H  H4  1  0.43776644  0.63340017  0.03931153  1  0.106594  0.000175  0.956519  0.0  0.114829  6.4e-05  1.021333  0.0  0.116389  7.8e-05  1.020261  0.0  0.118401  0.113643  -3.6e-05  1.022129  0.0
H  H5  1  0.56223562  0.86659991  0.53930855  1  0.106557  0.000174  0.956534  0.0  0.114836  6.4e-05  1.021301  0.0  0.116399  7.8e-05  1.020229  0.0  0.1184  0.113646  -3.6e-05  1.022101  0.0
H  H6  1  0.08577076  0.30869278  0.82408704  1  0.112852  -0.000706  0.962364  -0.001  0.119468  -0.000423  1.029133  -0.001  0.122719  -0.000299  1.025399  -0.001  0.112163  0.117193  -0.000555  1.031579  -0.001
H  H7  1  0.91423474  0.19131189  0.32408484  1  0.112919  -0.000707  0.962326  -0.001  0.119538  -0.000424  1.029082  -0.001  0.122792  -0.000299  1.025344  -0.001  0.112192  0.117265  -0.000555  1.031526  -0.001
H  H8  1  0.91422794  0.69130808  0.17591020  1  0.112902  -0.000709  0.962311  -0.001  0.119517  -0.000423  1.029073  -0.001  0.12277  -0.000299  1.025337  -0.001  0.112185  0.117245  -0.000555  1.03152  -0.001
H  H9  1  0.08576675  0.80868897  0.67591311  1  0.112928  -0.000705  0.962344  -0.001  0.119546  -0.000423  1.029102  -0.001  0.122798  -0.000299  1.025366  -0.001  0.112189  0.117272  -0.000555  1.031546  -0.001
H  H10  1  0.85142045  0.82488849  0.99924827  1  0.102219  -4.7e-05  0.992699  0.0  0.104924  -0.000117  1.067129  0.0  0.10713  -6.1e-05  1.06486  0.0  0.1054  0.103195  -0.000159  1.069031  0.0
H  H11  1  0.14857810  0.67511486  0.49924885  1  0.102201  -4.6e-05  0.992743  0.0  0.104898  -0.000117  1.067183  0.0  0.107102  -6.1e-05  1.064918  0.0  0.10538  0.103168  -0.000159  1.069082  0.0
H  H12  1  0.14857726  0.17510892  0.00075181  1  0.102198  -4.7e-05  0.992717  0.0  0.104906  -0.000117  1.067146  0.0  0.107114  -6.1e-05  1.064875  0.0  0.105384  0.103176  -0.000159  1.069047  0.0
H  H13  1  0.85142480  0.32488600  0.50075265  1  0.102213  -4.6e-05  0.99271  0.0  0.104915  -0.000117  1.067135  0.0  0.107121  -6e-05  1.064867  0.0  0.105406  0.103187  -0.000159  1.069036  0.0
H  H14  1  0.53680134  0.59132685  0.75674063  1  0.117729  -0.000338  0.96914  -0.001  0.122826  -0.000336  1.038037  -0.001  0.126085  -0.000245  1.034786  0.0  0.109416  0.120486  -0.000402  1.040455  -0.001
H  H15  1  0.46320240  0.90867436  0.25673959  1  0.117708  -0.000337  0.969199  -0.001  0.122857  -0.000336  1.038027  -0.001  0.126118  -0.000244  1.034773  0.0  0.109432  0.12052  -0.000402  1.040449  -0.001
H  H16  1  0.46319628  0.40867516  0.24325803  1  0.117727  -0.00034  0.969166  -0.001  0.122822  -0.000336  1.038061  -0.001  0.126083  -0.000245  1.034808  0.0  0.109412  0.120484  -0.000402  1.040481  -0.001
H  H17  1  0.53680123  0.09132420  0.74326120  1  0.117764  -0.000339  0.969156  -0.001  0.122902  -0.000336  1.037982  -0.001  0.126163  -0.000245  1.034729  0.0  0.109474  0.120562  -0.000402  1.040399  -0.001
H  H18  1  0.97806684  0.59396146  0.79537087  1  0.089316  -0.000133  0.958134  0.0  0.100198  7e-06  1.028602  0.0  0.101318  -5e-06  1.02772  0.0  0.085707  0.098753  -0.000189  1.029125  0.0
H  H19  1  0.02194622  0.90604872  0.29537060  1  0.089314  -0.000134  0.958083  0.0  0.100179  7e-06  1.028616  0.0  0.101307  -4e-06  1.027727  0.0  0.085681  0.098735  -0.00019  1.029139  0.0
H  H20  1  0.02193358  0.40604054  0.20462850  1  0.089276  -0.000132  0.958132  0.0  0.100165  8e-06  1.028588  0.0  0.101302  -4e-06  1.027693  0.0  0.085679  0.098722  -0.00019  1.029111  0.0
H  H21  1  0.97805882  0.09394983  0.70463018  1  0.089288  -0.000136  0.958072  0.0  0.100146  7e-06  1.028617  0.0  0.101277  -5e-06  1.027727  0.0  0.08567  0.098702  -0.00019  1.02914  0.0
H  H22  1  0.02800447  0.62909602  0.91585837  1  0.091987  -0.000185  0.933149  0.0  0.106709  -0.000109  0.995091  0.0  0.106936  -7.9e-05  0.996279  0.0  0.094284  0.106008  -3.7e-05  0.994691  0.0
H  H23  1  0.97199517  0.87090433  0.41585438  1  0.091946  -0.000185  0.933283  0.0  0.106737  -0.000109  0.995168  0.0  0.106965  -7.9e-05  0.996355  0.0  0.094292  0.106036  -3.7e-05  0.994766  0.0
H  H24  1  0.97199422  0.37090484  0.08414100  1  0.091989  -0.000185  0.933132  0.0  0.106702  -0.000109  0.995073  0.0  0.106927  -8e-05  0.996266  0.0  0.094276  0.106001  -3.7e-05  0.994673  0.0
H  H25  1  0.02800600  0.12909537  0.58414499  1  0.09196  -0.000184  0.933229  0.0  0.106726  -0.000109  0.995139  0.0  0.106954  -7.9e-05  0.996327  0.0  0.094284  0.106024  -3.7e-05  0.994739  0.0
H  H26  1  0.88845107  0.05945168  0.88885582  1  0.284935  0.000386  0.905461  0.0  0.263326  3e-05  0.972974  0.0  0.270066  5.3e-05  0.967855  0.0  0.311597  0.257596  -8.1e-05  0.977883  0.0
H  H27  1  0.11155143  0.44055379  0.38885535  1  0.284922  0.000386  0.905499  0.0  0.26331  3e-05  0.973016  0.0  0.270051  5.3e-05  0.967894  0.0  0.311576  0.257578  -8.1e-05  0.977924  0.0
H  H28  1  0.11154902  0.94054918  0.11114355  1  0.284929  0.000385  0.905458  0.0  0.263335  3e-05  0.972972  0.0  0.270071  5.3e-05  0.967854  0.0  0.311587  0.257604  -8.1e-05  0.977881  0.0
H  H29  1  0.88844694  0.55944592  0.61114402  1  0.28492  0.000386  0.905481  0.0  0.263321  3e-05  0.972998  0.0  0.270059  5.3e-05  0.967877  0.0  0.311584  0.257589  -8.1e-05  0.977907  0.0
H  H30  1  0.38744742  0.80388634  0.82648110  1  0.279863  0.000201  0.917331  0.0  0.258362  -8.6e-05  0.9874  0.0  0.266348  -4.9e-05  0.980564  0.0  0.298147  0.252731  -0.000105  0.992077  0.0
H  H31  1  0.61255229  0.69611220  0.32648084  1  0.279811  0.000202  0.91735  0.0  0.258322  -8.6e-05  0.987421  0.0  0.26631  -4.9e-05  0.980583  0.0  0.298114  0.252693  -0.000105  0.992099  0.0
H  H32  1  0.61255300  0.19611567  0.17351898  1  0.279828  0.0002  0.917343  0.0  0.258389  -8.6e-05  0.987373  0.0  0.266376  -4.9e-05  0.980534  0.0  0.298157  0.252759  -0.000106  0.992053  0.0
H  H33  1  0.38744822  0.30388521  0.67352065  1  0.279741  0.000201  0.91737  0.0  0.258274  -8.6e-05  0.987458  0.0  0.266262  -4.9e-05  0.980621  0.0  0.298107  0.252642  -0.000105  0.992136  0.0
C  C34  1  0.68243265  0.32604325  0.93170201  1  -0.008585  0.007263  3.687133  0.003  -0.054216  0.001361  3.965555  -0.001  -0.044092  0.003018  3.981463  0.001  0.012536  -0.060559  9.7e-05  3.954631  -0.002
C  C35  1  0.31756571  0.17395854  0.43170443  1  -0.008449  0.007259  3.687012  0.003  -0.054132  0.001358  3.965416  -0.001  -0.044012  0.003019  3.981321  0.001  0.012578  -0.060472  9.7e-05  3.954491  -0.002
C  C36  1  0.31756398  0.67395531  0.06829522  1  -0.00845  0.007257  3.687018  0.003  -0.054061  0.001358  3.965435  -0.001  -0.043919  0.003019  3.981351  0.001  0.012624  -0.060406  9.7e-05  3.954509  -0.002
C  C37  1  0.68243299  0.82604232  0.56829565  1  -0.008533  0.007263  3.68709  0.003  -0.054214  0.001358  3.965502  -0.001  -0.044075  0.003021  3.981422  0.001  0.012541  -0.060558  9.6e-05  3.954576  -0.002
C  C38  1  0.84837578  0.40902094  0.88524932  1  -0.000328  -0.005399  3.763047  -0.006  0.025893  -0.002084  4.006852  -0.003  0.018248  -0.0017  4.031997  -0.002  -0.026388  0.030757  -0.002229  3.989722  -0.003
C  C39  1  0.15162642  0.09098340  0.38524932  1  -0.000349  -0.005397  3.762977  -0.006  0.025944  -0.002083  4.006749  -0.003  0.018299  -0.001699  4.031895  -0.002  -0.026385  0.030807  -0.00223  3.989624  -0.003
C  C40  1  0.15162119  0.59097877  0.11474933  1  -0.000334  -0.005399  3.763068  -0.006  0.025866  -0.002083  4.006874  -0.003  0.018221  -0.001701  4.03202  -0.002  -0.026375  0.030731  -0.00223  3.989747  -0.003
C  C41  1  0.84837474  0.90901631  0.61475005  1  -0.000337  -0.005394  3.763002  -0.006  0.025965  -0.002083  4.006758  -0.003  0.018322  -0.0017  4.031901  -0.002  -0.026349  0.030828  -0.00223  3.989628  -0.003
C  C42  1  0.95102539  0.29896056  0.86184553  1  0.008084  0.009195  3.639116  0.004  -0.044376  0.002494  3.897761  0.0  -0.036329  0.003755  3.911019  0.001  0.021628  -0.049446  0.001741  3.88835  0.0
C  C43  1  0.04897807  0.20104275  0.36184483  1  0.007993  0.009199  3.639223  0.004  -0.044494  0.002493  3.897848  0.0  -0.036448  0.003755  3.911108  0.001  0.021587  -0.049566  0.001741  3.888437  0.0
C  C44  1  0.04897297  0.70103915  0.13815312  1  0.007991  0.009204  3.639106  0.004  -0.044441  0.002494  3.897775  0.0  -0.0364  0.003754  3.911029  0.001  0.021585  -0.049511  0.001741  3.888367  0.0
C  C45  1  0.95102169  0.79895696  0.63815454  1  0.007948  0.00919  3.639233  0.004  -0.04452  0.002493  3.897869  0.0  -0.036479  0.003756  3.911129  0.001  0.021562  -0.049591  0.001742  3.888455  0.0
C  C46  1  0.75446421  0.78329100  0.94095375  1  -0.021505  0.00704  3.710716  0.002  -0.06428  0.001033  3.983858  -0.001  -0.054062  0.002603  3.997696  0.0  0.008646  -0.069217  -0.000387  3.974096  -0.002
C  C47  1  0.24553523  0.71670922  0.44095339  1  -0.021523  0.00704  3.710843  0.002  -0.064307  0.001031  3.983991  -0.001  -0.054087  0.002608  3.997831  0.0  0.00863  -0.069239  -0.000387  3.974222  -0.002
C  C48  1  0.24553589  0.21670985  0.05904562  1  -0.02152  0.007036  3.710727  0.002  -0.064276  0.001032  3.983887  -0.001  -0.054059  0.002604  3.997728  0.0  0.008649  -0.069208  -0.000387  3.974118  -0.002
C  C49  1  0.75446561  0.28328934  0.55904740  1  -0.021542  0.007032  3.710723  0.002  -0.06429  0.001031  3.983883  -0.001  -0.054072  0.002605  3.997724  0.0  0.008587  -0.069225  -0.000387  3.974119  -0.002
C  C50  1  0.75823543  0.66673856  0.87443752  1  0.000898  -0.005544  3.773002  -0.006  0.02536  -0.002021  4.019198  -0.003  0.017477  -0.001612  4.044553  -0.002  -0.028681  0.031144  -0.002454  4.001655  -0.003
C  C51  1  0.24176940  0.83326432  0.37443769  1  0.000992  -0.005548  3.772936  -0.006  0.025471  -0.002021  4.019143  -0.003  0.017587  -0.001614  4.044498  -0.002  -0.028609  0.031257  -0.002454  4.001599  -0.003
C  C52  1  0.24176466  0.33326230  0.12556114  1  0.001059  -0.005544  3.772857  -0.006  0.025441  -0.002021  4.019119  -0.003  0.017557  -0.001613  4.044479  -0.002  -0.028613  0.031225  -0.002454  4.001578  -0.003
C  C53  1  0.75823489  0.16673654  0.62556381  1  0.00108  -0.005543  3.772867  -0.006  0.025469  -0.00202  4.01918  -0.003  0.017585  -0.001612  4.044538  -0.002  -0.028629  0.031252  -0.002454  4.001637  -0.003
C  C54  1  0.59683737  0.66152639  0.81728641  1  0.010708  0.004081  3.612331  0.001  -0.042051  0.001066  3.872505  -0.001  -0.033196  0.002441  3.885626  0.001  0.020886  -0.049727  0.000556  3.864957  -0.001
C  C55  1  0.40316620  0.83847565  0.31728558  1  0.010647  0.004081  3.612406  0.001  -0.042131  0.001065  3.872565  -0.001  -0.033273  0.002443  3.885681  0.001  0.020829  -0.049807  0.000555  3.865022  -0.001
C  C56  1  0.40316305  0.33847562  0.18271296  1  0.010597  0.004082  3.612166  0.001  -0.042127  0.001067  3.87237  -0.001  -0.03327  0.002442  3.885484  0.001  0.020852  -0.049801  0.000555  3.864821  -0.001
C  C57  1  0.59683636  0.16152406  0.68271591  1  0.0106  0.004082  3.612275  0.001  -0.042134  0.001066  3.872449  -0.001  -0.033279  0.002442  3.885572  0.001  0.02085  -0.049809  0.000556  3.864898  -0.001
C  C58  1  0.91164057  0.57812304  0.86632513  1  -0.149258  -0.002107  3.766333  -0.002  -0.193422  -0.001446  3.999368  -0.002  -0.192947  -0.001009  4.014314  -0.001  -0.153442  -0.192856  -0.001687  3.988869  -0.002
C  C59  1  0.08836433  0.92187987  0.36632615  1  -0.149185  -0.002104  3.766252  -0.002  -0.19347  -0.001445  3.999404  -0.002  -0.193005  -0.001008  4.014355  -0.001  -0.153419  -0.192906  -0.001687  3.988911  -0.002
C  C60  1  0.08835919  0.42187667  0.13367353  1  -0.14925  -0.002109  3.766314  -0.002  -0.193366  -0.001446  3.999338  -0.002  -0.192905  -0.001008  4.014278  -0.001  -0.153414  -0.192802  -0.001687  3.98884  -0.002
C  C61  1  0.91163931  0.07811868  0.63367393  1  -0.149211  -0.002104  3.766136  -0.002  -0.193443  -0.001446  3.999309  -0.002  -0.192979  -0.001008  4.014253  -0.001  -0.153422  -0.192877  -0.001687  3.98881  -0.002
Br  Br62  1  0.20807434  0.99103320  0.84498257  1  -0.643268  -0.008766  0.744599  -0.011  -0.613696  0.002147  0.990828  0.0  -0.627541  0.002966  0.969204  0.001  -0.332215  -0.60371  0.000906  1.006121  -0.001
Br  Br63  1  0.79192456  0.50896295  0.34498868  1  -0.643273  -0.008769  0.744615  -0.011  -0.613689  0.002147  0.990851  0.0  -0.627555  0.002964  0.969246  0.001  -0.332213  -0.603717  0.000906  1.006171  -0.001
Br  Br64  1  0.79192402  0.00896651  0.15501751  1  -0.643272  -0.008766  0.744595  -0.011  -0.613714  0.002147  0.990838  0.0  -0.627559  0.002966  0.969213  0.001  -0.332212  -0.603718  0.000906  1.006121  -0.001
Br  Br65  1  0.20807702  0.49103332  0.65501850  1  -0.643265  -0.008773  0.744593  -0.011  -0.613696  0.002147  0.990855  0.0  -0.627541  0.002964  0.969213  0.001  -0.332212  -0.603699  0.000906  1.00613  -0.001
N  N66  1  0.68432975  0.17579221  0.93649935  1  -0.210744  -0.077982  3.288557  -0.103  -0.19301  -0.053996  3.614065  -0.076  -0.220464  -0.04397  3.639593  -0.065  -0.275144  -0.175718  -0.060813  3.59688  -0.082
N  N67  1  0.31566824  0.32420841  0.43650154  1  -0.210837  -0.077985  3.288518  -0.103  -0.193108  -0.053994  3.614057  -0.076  -0.220572  -0.043971  3.639583  -0.065  -0.275173  -0.175822  -0.060812  3.596875  -0.082
N  N68  1  0.31566968  0.82420635  0.06350002  1  -0.21078  -0.077983  3.288474  -0.103  -0.193019  -0.053995  3.61399  -0.076  -0.220477  -0.04397  3.639508  -0.065  -0.275163  -0.175728  -0.060811  3.596811  -0.082
N  N69  1  0.68433013  0.67579130  0.56349853  1  -0.210759  -0.077989  3.288462  -0.103  -0.192984  -0.053994  3.613974  -0.076  -0.220451  -0.043972  3.639492  -0.065  -0.275144  -0.175697  -0.060813  3.596792  -0.082
N  N70  1  0.84851104  0.16225963  0.89354576  1  -0.155148  -0.003242  3.541849  -0.004  -0.088476  -0.001899  3.777004  -0.002  -0.098971  -0.001331  3.799295  -0.001  -0.286572  -0.08076  -0.002463  3.761741  -0.003
N  N71  1  0.15149044  0.33774237  0.39354609  1  -0.155128  -0.003245  3.54198  -0.004  -0.088429  -0.001899  3.777092  -0.002  -0.098923  -0.001332  3.79938  -0.001  -0.28655  -0.080702  -0.002463  3.761819  -0.003
N  N72  1  0.15149013  0.83774008  0.10645360  1  -0.15516  -0.003242  3.541905  -0.004  -0.088561  -0.001898  3.777125  -0.002  -0.099038  -0.001332  3.799404  -0.001  -0.286595  -0.080843  -0.002462  3.761865  -0.003
N  N73  1  0.84850793  0.66225734  0.60645399  1  -0.155101  -0.003242  3.541934  -0.004  -0.088475  -0.001899  3.777113  -0.002  -0.098959  -0.001332  3.799396  -0.001  -0.286558  -0.080754  -0.002462  3.761844  -0.003
N  N74  1  0.60334205  0.84608651  0.92480092  1  -0.21826  -0.067892  3.299466  -0.09  -0.188188  -0.050566  3.610602  -0.071  -0.21393  -0.041603  3.634479  -0.062  -0.283604  -0.172913  -0.055923  3.594876  -0.075
N  N75  1  0.39665578  0.65391265  0.42480040  1  -0.218354  -0.06789  3.299494  -0.09  -0.188222  -0.050564  3.610607  -0.071  -0.213976  -0.041605  3.634485  -0.062  -0.283589  -0.172949  -0.055921  3.594883  -0.075
N  N76  1  0.39665771  0.15391320  0.07519915  1  -0.218305  -0.067889  3.299444  -0.09  -0.18822  -0.050564  3.610588  -0.071  -0.213963  -0.041601  3.634468  -0.062  -0.28361  -0.172945  -0.05592  3.594864  -0.075
N  N77  1  0.60334225  0.34608591  0.57520039  1  -0.218463  -0.067887  3.299511  -0.09  -0.188338  -0.050563  3.610636  -0.071  -0.214092  -0.041604  3.634517  -0.062  -0.283602  -0.173065  -0.055921  3.594913  -0.075
N  N78  1  0.50887035  0.77025177  0.84981876  1  -0.144645  -0.00254  3.501542  -0.003  -0.082219  -0.001777  3.735832  -0.002  -0.09351  -0.001219  3.756653  -0.001  -0.281777  -0.074112  -0.002101  3.721925  -0.002
N  N79  1  0.49113091  0.72974779  0.34981866  1  -0.144504  -0.00254  3.501486  -0.003  -0.082145  -0.001777  3.735829  -0.002  -0.093435  -0.001218  3.756652  -0.001  -0.281739  -0.074036  -0.002101  3.721925  -0.002
N  N80  1  0.49112975  0.22974908  0.15018061  1  -0.144567  -0.002534  3.501394  -0.003  -0.082226  -0.001778  3.735655  -0.002  -0.093517  -0.001219  3.756473  -0.001  -0.281795  -0.074119  -0.002101  3.721756  -0.002
N  N81  1  0.50887166  0.27025192  0.65018284  1  -0.144378  -0.002538  3.50136  -0.003  -0.082047  -0.001778  3.735644  -0.002  -0.093341  -0.001218  3.756472  -0.001  -0.281747  -0.073939  -0.002101  3.721736  -0.002
