# generated using pymatgen
data_CdH14C20(NO)4
_symmetry_space_group_name_H-M   'P 1'
_cell_length_a   7.50099237
_cell_length_b   11.29453297
_cell_length_c   15.14023355
_cell_angle_alpha   110.74918825
_cell_angle_beta   102.66283387
_cell_angle_gamma   94.27528319
_symmetry_Int_Tables_number   1
_chemical_formula_structural   CdH14C20(NO)4
_chemical_formula_sum   'Cd2 H28 C40 N8 O8'
_cell_volume   1153.91356756
_cell_formula_units_Z   2
loop_
 _symmetry_equiv_pos_site_id
 _symmetry_equiv_pos_as_xyz
  1  'x, y, z'
loop_
 _atom_site_type_symbol
 _atom_site_label
 _atom_site_symmetry_multiplicity
 _atom_site_fract_x
 _atom_site_fract_y
 _atom_site_fract_z
 _atom_site_occupancy
 _atom_site_pbe_bader_charge
 _atom_site_pbe_bader_spin_density
 _atom_site_pbe_cm5_charge
 _atom_site_pbe_ddec_charge
 _atom_site_pbe_ddec_spin_density
 _atom_site_pbe_ddec_sum_bond_order
 _atom_site_pbe_magmom
Cd  Cd0  1  0.30810758  0.75085499  0.19675912  1  1.227817  0  0.774802  0.842842  0  2.215942  0
Cd  Cd1  1  0.61134879  0.55430060  0.80320135  1  1.227123  0  0.77562  0.843417  0  2.219978  0
H  H2  1  0.18344429  0.62278400  0.36064050  1  0.077197  0  0.102563  0.109137  0  1.036857  0
H  H3  1  0.40242122  0.59687361  0.49842768  1  0.072406  0  0.102833  0.105353  0  1.008083  0
H  H4  1  0.01547669  0.69306269  0.67355900  1  0.07301  0  0.102114  0.106137  0  1.00357  0
H  H5  1  0.78961572  0.71352322  0.53528800  1  0.054652  0  0.1032  0.104155  0  1.003122  0
H  H6  1  0.60202372  0.77007024  0.40632747  1  0.107731  0  0.122613  0.12372  0  0.999156  0
H  H7  1  0.67079640  0.60702987  0.12119407  1  0.152517  0  0.132319  0.101012  0  1.03355  0
H  H8  1  0.30464364  0.95608952  0.81613857  1  0.077478  0  0.102446  0.10341  0  1.007234  0
H  H9  1  0.36722869  0.14459742  0.77362297  1  0.112146  0  0.104096  0.106731  0  1.005799  0
H  H10  1  0.60807466  0.37940284  0.07753734  1  0.103424  0  0.101523  0.097784  0  1.026378  0
H  H11  1  0.54455402  0.19271443  0.12205733  1  0.085717  0  0.103304  0.102417  0  0.997112  0
H  H12  1  0.40610048  0.02968525  0.16147503  1  0.108603  0  0.121397  0.119034  0  0.993111  0
H  H13  1  0.28541519  0.64801992  0.95700677  1  0.165107  0  0.137323  0.106115  0  1.01925  0
H  H14  1  0.96000306  0.58965811  0.23584565  1  0.549007  0  0.307702  0.283543  0  1.015079  0
H  H15  1  0.33149916  0.78465068  0.86282709  1  0.536616  0  0.311408  0.293092  0  0.995913  0
H  H16  1  0.32341384  0.26280061  0.63936324  1  0.070781  0  0.10184  0.108769  0  1.036046  0
H  H17  1  0.40476539  0.09896996  0.50163034  1  0.071357  0  0.102661  0.104292  0  1.00898  0
H  H18  1  0.84285827  0.01988634  0.32683797  1  0.080511  0  0.102028  0.105771  0  1.003039  0
H  H19  1  0.75515856  0.17886730  0.46507447  1  0.050574  0  0.103267  0.104965  0  1.003641  0
H  H20  1  0.69625276  0.36421876  0.59404269  1  0.117352  0  0.122125  0.122984  0  0.999035  0
H  H21  1  0.05007768  0.48644513  0.87899198  1  0.156415  0  0.132321  0.101737  0  1.033044  0
H  H22  1  0.98746385  0.13963625  0.18364759  1  0.052402  0  0.101941  0.102967  0  1.008119  0
H  H23  1  0.09274714  0.37057500  0.22613273  1  0.104617  0  0.10376  0.106303  0  1.006383  0
H  H24  1  0.03130520  0.30138521  0.92216195  1  0.08969  0  0.102257  0.098847  0  1.025906  0
H  H25  1  0.92305629  0.07027569  0.87772998  1  0.086681  0  0.103442  0.102826  0  0.996954  0
H  H26  1  0.74405736  0.86816804  0.83852019  1  0.075961  0  0.12204  0.119877  0  0.992683  0
H  H27  1  0.82837046  0.69057621  0.04281432  1  0.154926  0  0.137144  0.106693  0  1.019453  0
H  H28  1  0.22463011  0.35444099  0.76419809  1  0.54737  0  0.306954  0.282713  0  1.016545  0
H  H29  1  0.96876162  0.92142745  0.13700552  1  0.537862  0  0.310801  0.29255  0  0.996904  0
C  C30  1  0.14444177  0.63799765  0.42861796  1  -0.070782  0  -0.095251  -0.13647  0  3.965388  0
C  C31  1  0.26864109  0.62448756  0.50582295  1  -0.002612  0  -0.084463  -0.083876  0  3.992381  0
C  C32  1  0.22372324  0.64419128  0.59456997  1  0.007693  0  -0.026971  -0.049377  0  4.003773  0
C  C33  1  0.05164676  0.67948774  0.60507166  1  -0.057162  0  -0.086499  -0.089479  0  3.997169  0
C  C34  1  0.92563957  0.69103612  0.52745172  1  0.019149  0  -0.089582  -0.131559  0  3.976601  0
C  C35  1  0.96918866  0.66937007  0.43760587  1  -0.020425  0  -0.004103  0.06268  0  4.044538  0
C  C36  1  0.83252578  0.67483015  0.35507852  1  0.359335  0  0.084192  0.104964  0  4.011963  0
C  C37  1  0.66604660  0.72136372  0.34880731  1  0.425779  0  0.003582  -0.077804  0  3.945486  0
C  C38  1  0.69659700  0.64115483  0.20036132  1  0.970646  0  0.141332  0.15119  0  3.940859  0
C  C39  1  0.35519944  0.62151924  0.67384619  1  1.523594  0  0.192781  0.566448  0  4.22538  0
C  C40  1  0.37064821  0.04869812  0.87416772  1  -0.101292  0  -0.093652  -0.136438  0  3.98224  0
C  C41  1  0.40492233  0.15457761  0.84997229  1  -0.026646  0  -0.085222  -0.088979  0  3.983324  0
C  C42  1  0.48995206  0.27458255  0.92317303  1  -0.047799  0  -0.020516  -0.04164  0  3.983903  0
C  C43  1  0.53947275  0.28665901  0.02115652  1  -0.020461  0  -0.077734  -0.070248  0  3.974341  0
C  C44  1  0.50341995  0.18181694  0.04557848  1  -0.061066  0  -0.085615  -0.122006  0  3.970654  0
C  C45  1  0.41854539  0.06091819  0.97258188  1  0.02605  0  -0.003753  0.054154  0  4.058451  0
C  C46  1  0.38302333  0.95307372  0.00083081  1  0.363805  0  0.085197  0.109771  0  4.013272  0
C  C47  1  0.38336599  0.95030050  0.09174846  1  0.408853  0  0.000694  -0.08328  0  3.958603  0
C  C48  1  0.31659547  0.75187586  0.98803289  1  1.028447  0  0.146063  0.161445  0  3.928423  0
C  C49  1  0.53401366  0.38745856  0.89797993  1  1.537866  0  0.200164  0.570498  0  4.204094  0
C  C50  1  0.21651831  0.21001119  0.57144689  1  -0.026777  0  -0.094684  -0.136516  0  3.96382  0
C  C51  1  0.26361151  0.11919220  0.49428493  1  -0.050008  0  -0.08403  -0.08208  0  3.990245  0
C  C52  1  0.12999732  0.05008500  0.40562792  1  0.019945  0  -0.027002  -0.049403  0  4.000639  0
C  C53  1  0.94745200  0.07486781  0.39522290  1  -0.074847  0  -0.085933  -0.088882  0  3.996022  0
C  C54  1  0.89896139  0.16418018  0.47279898  1  0.040809  0  -0.091275  -0.133468  0  3.976472  0
C  C55  1  0.03230222  0.23238969  0.56255555  1  -0.065072  0  -0.004176  0.06087  0  4.044169  0
C  C56  1  0.97807936  0.32036800  0.64509928  1  0.354005  0  0.084241  0.106531  0  4.011528  0
C  C57  1  0.81781396  0.37304573  0.65146024  1  0.430874  0  0.003126  -0.077969  0  3.947484  0
C  C58  1  0.99672923  0.44145578  0.79983819  1  1.00202  0  0.140428  0.149605  0  3.938886  0
C  C59  1  0.18194304  0.94791651  0.32630151  1  1.539066  0  0.191063  0.566128  0  4.223073  0
C  C60  1  0.99579445  0.17419136  0.12560327  1  0.059727  0  -0.093404  -0.135625  0  3.981179  0
C  C61  1  0.05430564  0.30424189  0.14977854  1  -0.157667  0  -0.085183  -0.089252  0  3.984113  0
C  C62  1  0.06668352  0.35098306  0.07654101  1  0.002891  0  -0.020965  -0.042739  0  3.985257  0
C  C63  1  0.01854669  0.26509572  0.97856747  1  -0.019056  0  -0.077858  -0.071109  0  3.976784  0
C  C64  1  0.95800180  0.13586807  0.95418314  1  -0.060345  0  -0.085782  -0.122208  0  3.971126  0
C  C65  1  0.94574338  0.08801006  0.02721235  1  -0.022076  0  -0.004071  0.054156  0  4.057196  0
C  C66  1  0.88204442  0.95196998  0.99906839  1  0.351961  0  0.087363  0.110938  0  4.011125  0
C  C67  1  0.79125746  0.85843478  0.90821020  1  0.444732  0  -0.001691  -0.085713  0  3.963607  0
C  C68  1  0.82847216  0.76352501  0.01187050  1  1.00285  0  0.145418  0.159317  0  3.931433  0
C  C69  1  0.13607036  0.48906160  0.10179433  1  1.542876  0  0.200431  0.571173  0  4.202626  0
N  N70  1  0.58404432  0.69973984  0.25265390  1  -1.218802  0  -0.366376  -0.298218  0  3.563442  0
N  N71  1  0.84694598  0.62476273  0.25959041  1  -1.282158  0  -0.376678  -0.245034  0  3.640246  0
N  N72  1  0.34193533  0.82508758  0.08239145  1  -1.263207  0  -0.371481  -0.305868  0  3.60055  0
N  N73  1  0.33845361  0.82569659  0.93691090  1  -1.279417  0  -0.371921  -0.247033  0  3.638746  0
N  N74  1  0.83187273  0.44761569  0.74758694  1  -1.235138  0  -0.367184  -0.299353  0  3.564796  0
N  N75  1  0.08787982  0.36584103  0.74055080  1  -1.294406  0  -0.374009  -0.242415  0  3.63569  0
N  N76  1  0.75926459  0.74257717  0.91756692  1  -1.228145  0  -0.370407  -0.305248  0  3.606729  0
N  N77  1  0.90152662  0.88841557  0.06296958  1  -1.263197  0  -0.3715  -0.244905  0  3.638017  0
O  O78  1  0.49250811  0.56690461  0.65353269  1  -1.161234  0  -0.340243  -0.549356  0  2.175108  0
O  O79  1  0.32681890  0.65400483  0.75912462  1  -1.204472  0  -0.342105  -0.596722  0  2.227989  0
O  O80  1  0.64643816  0.48554918  0.95876304  1  -1.182005  0  -0.324336  -0.556272  0  2.15097  0
O  O81  1  0.45439518  0.37824495  0.80964018  1  -1.174293  0  -0.336602  -0.575318  0  2.315745  0
O  O82  1  0.33924773  0.91323167  0.34652866  1  -1.154833  0  -0.339622  -0.549665  0  2.173758  0
O  O83  1  0.06841824  0.89530487  0.24103716  1  -1.204679  0  -0.340296  -0.595005  0  2.225958  0
O  O84  1  0.18807197  0.52642415  0.04105881  1  -1.181374  0  -0.324469  -0.55654  0  2.147483  0
O  O85  1  0.14447226  0.56813574  0.19011717  1  -1.17857  0  -0.337276  -0.575989  0  2.314883  0
