# generated using pymatgen
data_CdH5(C3N4)2
_symmetry_space_group_name_H-M   'P 1'
_cell_length_a   6.65126883
_cell_length_b   7.70823584
_cell_length_c   9.72325423
_cell_angle_alpha   81.97217535
_cell_angle_beta   89.52128622
_cell_angle_gamma   70.38557751
_symmetry_Int_Tables_number   1
_chemical_formula_structural   CdH5(C3N4)2
_chemical_formula_sum   'Cd2 H10 C12 N16'
_cell_volume   464.58149405
_cell_formula_units_Z   2
loop_
 _symmetry_equiv_pos_site_id
 _symmetry_equiv_pos_as_xyz
  1  'x, y, z'
loop_
 _atom_site_type_symbol
 _atom_site_label
 _atom_site_symmetry_multiplicity
 _atom_site_fract_x
 _atom_site_fract_y
 _atom_site_fract_z
 _atom_site_occupancy
 _atom_site_pbe_bader_spin_density
 _atom_site_pbe_cm5_charge
 _atom_site_pbe_ddec_charge
 _atom_site_pbe_ddec_spin_density
 _atom_site_pbe_ddec_sum_bond_order
 _atom_site_pbe_magmom
Cd  Cd0  1  0.21073246  0.10378692  0.95039130  1  0  0.786981  0.793653  0  2.395225  0
Cd  Cd1  1  0.78927475  0.89620737  0.04960681  1  0  0.786986  0.793684  0  2.395196  0
H  H2  1  0.32923732  0.03327435  0.63023614  1  0  0.11742  0.08419  0  1.003167  0
H  H3  1  0.67075756  0.96673250  0.36976266  1  0  0.117419  0.084163  0  1.003222  0
H  H4  1  0.37198069  0.20812571  0.40207425  1  0  0.107602  0.106976  0  1.026053  0
H  H5  1  0.62800668  0.79188117  0.59792567  1  0  0.1076  0.106945  0  1.026084  0
H  H6  1  0.29561537  0.55250065  0.38231667  1  0  0.10779  0.109237  0  1.016766  0
H  H7  1  0.70437594  0.44750755  0.61767893  1  0  0.107759  0.109189  0  1.01688  0
H  H8  1  0.15884271  0.71100274  0.58932399  1  0  0.109339  0.117908  0  1.019194  0
H  H9  1  0.84115069  0.28900414  0.41067689  1  0  0.109325  0.117839  0  1.01931  0
H  H10  1  0.05495674  0.69254208  0.83275611  1  0  0.121888  0.092315  0  1.039699  0
H  H11  1  0.94504732  0.30746064  0.16724822  1  0  0.121829  0.092269  0  1.0397  0
C  C12  1  0.29320329  0.18348147  0.61737160  1  0  0.056926  0.109441  0  3.953159  0
C  C13  1  0.70679061  0.81652398  0.38262636  1  0  0.056857  0.109403  0  3.95328  0
C  C14  1  0.31831898  0.28195513  0.49024631  1  0  -0.071383  -0.104508  0  3.941826  0
C  C15  1  0.68167052  0.71804616  0.50975323  1  0  -0.071379  -0.104476  0  3.941789  0
C  C16  1  0.27342309  0.47318338  0.47951310  1  0  -0.064196  -0.023516  0  3.947289  0
C  C17  1  0.72656739  0.52681933  0.52048831  1  0  -0.064057  -0.023381  0  3.947511  0
C  C18  1  0.19905938  0.56090280  0.59506221  1  0  -0.066871  -0.135264  0  3.905218  0
C  C19  1  0.80093006  0.43910274  0.40494197  1  0  -0.066983  -0.135266  0  3.90548  0
C  C20  1  0.17401285  0.45345996  0.71803582  1  0  0.115904  0.195581  0  4.020499  0
C  C21  1  0.82598518  0.54654276  0.28196755  1  0  0.115971  0.195664  0  4.020434  0
C  C22  1  0.08697374  0.54253669  0.83806959  1  0  0.0886  0.048423  0  3.866254  0
C  C23  1  0.91302785  0.45746465  0.16193494  1  0  0.088608  0.048355  0  3.866187  0
N  N24  1  0.22448063  0.26654606  0.72872417  1  0  -0.321837  -0.264023  0  3.471576  0
N  N25  1  0.77551478  0.73345939  0.27127377  1  0  -0.321789  -0.264029  0  3.471674  0
N  N26  1  0.04338449  0.44812328  0.94816701  1  0  -0.210611  -0.136281  0  3.457398  0
N  N27  1  0.95662310  0.55187802  0.05183539  1  0  -0.210676  -0.136247  0  3.457389  0
N  N28  1  0.94982917  0.99904615  0.85608601  1  0  -0.337405  -0.554758  0  3.08762  0
N  N29  1  0.05017544  0.00095088  0.14390871  1  0  -0.337516  -0.555035  0  3.087197  0
N  N30  1  0.87444887  0.03734132  0.73846730  1  0  0.083524  0.42511  0  4.482643  0
N  N31  1  0.12556298  0.96265313  0.26154513  1  0  0.083704  0.425459  0  4.482535  0
N  N32  1  0.80514252  0.07025550  0.62446714  1  0  -0.176651  -0.363404  0  2.629767  0
N  N33  1  0.19485693  0.92974711  0.37552698  1  0  -0.17666  -0.363484  0  2.630368  0
N  N34  1  0.51537068  0.85215741  0.91740140  1  0  -0.338561  -0.556712  0  3.067745  0
N  N35  1  0.48463704  0.14783543  0.08259276  1  0  -0.338576  -0.556759  0  3.067893  0
N  N36  1  0.52348681  0.70854999  0.87731328  1  0  0.079639  0.422312  0  4.503727  0
N  N37  1  0.47652014  0.29143308  0.12268000  1  0  0.079684  0.422485  0  4.503537  0
N  N38  1  0.53467208  0.57001513  0.83732726  1  0  -0.188062  -0.36664  0  2.623723  0
N  N39  1  0.46533469  0.42997635  0.16267016  1  0  -0.188144  -0.366819  0  2.623451  0
