# generated using pymatgen
data_ZnH21C19N5O4
_symmetry_space_group_name_H-M   'P 1'
_cell_length_a   9.13782122
_cell_length_b   9.54959728
_cell_length_c   11.10169625
_cell_angle_alpha   90.00017971
_cell_angle_beta   89.23046327
_cell_angle_gamma   90.00050728
_symmetry_Int_Tables_number   1
_chemical_formula_structural   ZnH21C19N5O4
_chemical_formula_sum   'Zn2 H42 C38 N10 O8'
_cell_volume   968.67453323
_cell_formula_units_Z   2
loop_
 _symmetry_equiv_pos_site_id
 _symmetry_equiv_pos_as_xyz
  1  'x, y, z'
loop_
 _atom_site_type_symbol
 _atom_site_label
 _atom_site_symmetry_multiplicity
 _atom_site_fract_x
 _atom_site_fract_y
 _atom_site_fract_z
 _atom_site_occupancy
 _atom_site_hle17_bader_spin_density
 _atom_site_hle17_ddec_charge
 _atom_site_hle17_ddec_spin_density
 _atom_site_hle17_ddec_sum_bond_order
 _atom_site_hle17_magmom
 _atom_site_hse06_10hf_bader_spin_density
 _atom_site_hse06_10hf_ddec_charge
 _atom_site_hse06_10hf_ddec_spin_density
 _atom_site_hse06_10hf_ddec_sum_bond_order
 _atom_site_hse06_10hf_magmom
 _atom_site_hse06_bader_spin_density
 _atom_site_hse06_ddec_charge
 _atom_site_hse06_ddec_spin_density
 _atom_site_hse06_ddec_sum_bond_order
 _atom_site_hse06_magmom
 _atom_site_pbe_bader_spin_density
 _atom_site_pbe_cm5_charge
 _atom_site_pbe_ddec_charge
 _atom_site_pbe_ddec_spin_density
 _atom_site_pbe_ddec_sum_bond_order
 _atom_site_pbe_magmom
Zn  Zn0  1  0.25000032  0.84718275  0.75000245  1  0  0.964306  0  1.960669  0  0  0.764798  0  2.456392  0  0  0.812929  0  2.399629  0  0  0.689256  0.731142  0  2.495909  0
Zn  Zn1  1  0.74999872  0.15281956  0.24999636  1  0  0.964317  0  1.960747  0  0  0.764732  0  2.45647  0  0  0.812864  0  2.39971  0  0  0.689228  0.731074  0  2.495982  0
H  H2  1  0.94773669  0.74232239  0.60478733  1  0  0.317074  0  0.855855  0  0  0.302652  0  0.907661  0  0  0.310065  0  0.901822  0  0  0.341656  0.297539  0  0.911627  0
H  H3  1  0.55227051  0.74231812  0.89521159  1  0  0.317024  0  0.855902  0  0  0.302586  0  0.907711  0  0  0.310006  0  0.901877  0  0  0.341661  0.297472  0  0.911672  0
H  H4  1  0.05226689  0.25767887  0.39520891  1  0  0.317084  0  0.855876  0  0  0.302641  0  0.907692  0  0  0.31006  0  0.901852  0  0  0.341664  0.297528  0  0.91165  0
H  H5  1  0.44772180  0.25768314  0.10478972  1  0  0.317042  0  0.85581  0  0  0.302614  0  0.907608  0  0  0.310032  0  0.901778  0  0  0.341692  0.297506  0  0.911562  0
H  H6  1  0.68976352  0.80429541  0.48846075  1  0  0.113154  0  0.974739  0  0  0.131019  0  1.04056  0  0  0.131909  0  1.041587  0  0  0.092423  0.130389  0  1.039637  0
H  H7  1  0.81023722  0.80428767  0.01154070  1  0  0.113186  0  0.974764  0  0  0.131079  0  1.040546  0  0  0.131972  0  1.041568  0  0  0.092428  0.13045  0  1.039623  0
H  H8  1  0.31023333  0.19571005  0.51153800  1  0  0.113151  0  0.974769  0  0  0.131009  0  1.040592  0  0  0.131901  0  1.041616  0  0  0.092415  0.130381  0  1.039663  0
H  H9  1  0.18975831  0.19570626  0.98846161  1  0  0.113176  0  0.974797  0  0  0.131014  0  1.040639  0  0  0.131907  0  1.04166  0  0  0.092414  0.130386  0  1.039711  0
H  H10  1  0.62866385  0.98023034  0.50285243  1  0  0.133978  0  0.939215  0  0  0.15645  0  0.995033  0  0  0.158041  0  0.994765  0  0  0.101153  0.155248  0  0.994969  0
H  H11  1  0.87134306  0.98021872  0.99715150  1  0  0.13406  0  0.939205  0  0  0.156506  0  0.995039  0  0  0.158097  0  0.994771  0  0  0.101179  0.155302  0  0.994975  0
H  H12  1  0.37133727  0.01977511  0.49714825  1  0  0.134026  0  0.939163  0  0  0.156499  0  0.994973  0  0  0.158092  0  0.994703  0  0  0.101189  0.155298  0  0.99491  0
H  H13  1  0.12865351  0.01977417  0.00285175  1  0  0.134023  0  0.939207  0  0  0.156507  0  0.994994  0  0  0.158095  0  0.994731  0  0  0.101225  0.155308  0  0.994932  0
H  H14  1  0.59944465  0.85865254  0.62194668  1  0  0.138509  0  0.956653  0  0  0.153459  0  1.023144  0  0  0.155788  0  1.022353  0  0  0.098271  0.15166  0  1.023793  0
H  H15  1  0.90055880  0.85864176  0.87805959  1  0  0.138473  0  0.95667  0  0  0.153426  0  1.023141  0  0  0.155752  0  1.022352  0  0  0.098232  0.151627  0  1.023793  0
H  H16  1  0.40055319  0.14135396  0.37805390  1  0  0.138484  0  0.956658  0  0  0.153423  0  1.023166  0  0  0.155752  0  1.022374  0  0  0.098226  0.151623  0  1.023817  0
H  H17  1  0.09943668  0.14135322  0.12194363  1  0  0.138534  0  0.956611  0  0  0.153442  0  1.023134  0  0  0.155771  0  1.022344  0  0  0.098259  0.151646  0  1.02378  0
H  H18  1  0.81147563  0.16579806  0.62298671  1  0  0.135259  0  0.982849  0  0  0.146463  0  1.042397  0  0  0.148671  0  1.042862  0  0  0.110647  0.14503  0  1.041717  0
H  H19  1  0.68853467  0.16579488  0.87701737  1  0  0.135353  0  0.982696  0  0  0.146489  0  1.042324  0  0  0.148697  0  1.042788  0  0  0.11062  0.145059  0  1.041646  0
H  H20  1  0.18851744  0.83420216  0.37702004  1  0  0.135231  0  0.982839  0  0  0.146455  0  1.042373  0  0  0.148665  0  1.042834  0  0  0.110612  0.145027  0  1.041695  0
H  H21  1  0.31146496  0.83420324  0.12298957  1  0  0.135286  0  0.982827  0  0  0.146452  0  1.042417  0  0  0.14866  0  1.042881  0  0  0.110603  0.145025  0  1.041737  0
H  H22  1  0.03459786  0.34616683  0.67150151  1  0  0.126885  0  0.930022  0  0  0.138369  0  0.985787  0  0  0.142347  0  0.983826  0  0  0.115389  0.135781  0  0.987304  0
H  H23  1  0.46542346  0.34616060  0.82850114  1  0  0.12675  0  0.930154  0  0  0.138281  0  0.985853  0  0  0.142257  0  0.983893  0  0  0.115341  0.135696  0  0.987374  0
H  H24  1  0.96539877  0.65383443  0.32850083  1  0  0.126889  0  0.929998  0  0  0.138394  0  0.985728  0  0  0.142372  0  0.983762  0  0  0.115395  0.135807  0  0.987244  0
H  H25  1  0.53457672  0.65384171  0.17149681  1  0  0.12676  0  0.930183  0  0  0.13829  0  0.985888  0  0  0.142265  0  0.983929  0  0  0.115345  0.135702  0  0.987406  0
H  H26  1  0.25001491  0.47688546  0.75000430  1  0  0.112099  0  0.935827  0  0  0.123016  0  0.993374  0  0  0.125675  0  0.99194  0  0  0.11499  0.120989  0  0.994119  0
H  H27  1  0.74998510  0.52311581  0.24999634  1  0  0.112152  0  0.935807  0  0  0.123059  0  0.993359  0  0  0.125718  0  0.991926  0  0  0.115003  0.121014  0  0.99412  0
H  H28  1  0.08163038  0.70318832  0.10358711  1  0  0.085714  0  0.949  0  0  0.100358  0  1.012984  0  0  0.101844  0  1.013532  0  0  0.088645  0.099521  0  1.012185  0
H  H29  1  0.41836958  0.70319870  0.39642005  1  0  0.085754  0  0.948972  0  0  0.100383  0  1.012967  0  0  0.101874  0  1.013516  0  0  0.088639  0.099548  0  1.012167  0
H  H30  1  0.91837096  0.29679933  0.89640997  1  0  0.085792  0  0.948949  0  0  0.100393  0  1.012955  0  0  0.101882  0  1.013502  0  0  0.088619  0.099547  0  1.012164  0
H  H31  1  0.58163689  0.29680884  0.60358260  1  0  0.085677  0  0.949166  0  0  0.100364  0  1.013047  0  0  0.101869  0  1.013582  0  0  0.088628  0.099507  0  1.01227  0
H  H32  1  0.23397066  0.59431429  0.13995737  1  0  0.0839  0  0.942168  0  0  0.100336  0  1.001466  0  0  0.102397  0  1.00009  0  0  0.090233  0.098805  0  1.002587  0
H  H33  1  0.26603782  0.59431590  0.36003719  1  0  0.083927  0  0.942181  0  0  0.100368  0  1.001465  0  0  0.10243  0  1.00009  0  0  0.090241  0.098833  0  1.002588  0
H  H34  1  0.76603090  0.40567859  0.86003611  1  0  0.083949  0  0.942123  0  0  0.100362  0  1.001413  0  0  0.102424  0  1.000038  0  0  0.090213  0.098839  0  1.00253  0
H  H35  1  0.73397696  0.40568641  0.63995489  1  0  0.08395  0  0.942113  0  0  0.100379  0  1.001402  0  0  0.10244  0  1.000028  0  0  0.090261  0.098845  0  1.002523  0
H  H36  1  0.13557575  0.40592243  0.00828328  1  0  0.053789  0  0.957391  0  0  0.07467  0  1.017179  0  0  0.07508  0  1.018568  0  0  0.084118  0.074248  0  1.01618  0
H  H37  1  0.36443413  0.40592748  0.49171362  1  0  0.053788  0  0.957298  0  0  0.074643  0  1.0171  0  0  0.075053  0  1.018486  0  0  0.084112  0.074224  0  1.016103  0
H  H38  1  0.86443362  0.59407046  0.99170773  1  0  0.053843  0  0.957227  0  0  0.074669  0  1.017072  0  0  0.07508  0  1.018462  0  0  0.084159  0.074249  0  1.016077  0
H  H39  1  0.63557327  0.59408321  0.50829176  1  0  0.053756  0  0.957358  0  0  0.074611  0  1.017172  0  0  0.075022  0  1.018561  0  0  0.084085  0.074194  0  1.016171  0
H  H40  1  0.01793055  0.44719405  0.12973531  1  0  0.070622  0  0.934759  0  0  0.090076  0  0.991691  0  0  0.091213  0  0.991946  0  0  0.08902  0.089219  0  0.991578  0
H  H41  1  0.48207510  0.44720488  0.37026517  1  0  0.070652  0  0.934832  0  0  0.090123  0  0.991713  0  0  0.091243  0  0.991987  0  0  0.089021  0.089268  0  0.991599  0
H  H42  1  0.98207658  0.55279359  0.87025654  1  0  0.070596  0  0.934814  0  0  0.090047  0  0.991727  0  0  0.091195  0  0.99197  0  0  0.089019  0.089193  0  0.991617  0
H  H43  1  0.51793207  0.55279952  0.62974382  1  0  0.070602  0  0.934807  0  0  0.090049  0  0.991729  0  0  0.091194  0  0.991977  0  0  0.089015  0.08919  0  0.991624  0
C  C44  1  0.67721747  0.89208033  0.55137244  1  0  -0.367234  0  3.694819  0  0  -0.446413  0  3.932426  0  0  -0.449421  0  3.939034  0  0  -0.237351  -0.443624  0  3.927474  0
C  C45  1  0.82279180  0.89207229  0.94863318  1  0  -0.367189  0  3.694546  0  0  -0.446343  0  3.932182  0  0  -0.449342  0  3.938789  0  0  -0.237276  -0.443551  0  3.927227  0
C  C46  1  0.32278157  0.10792303  0.44862637  1  0  -0.367239  0  3.694723  0  0  -0.446442  0  3.932337  0  0  -0.449447  0  3.938946  0  0  -0.237378  -0.443653  0  3.927384  0
C  C47  1  0.17720586  0.10792373  0.05137010  1  0  -0.367188  0  3.694559  0  0  -0.446303  0  3.932223  0  0  -0.449301  0  3.938828  0  0  -0.237324  -0.443516  0  3.927264  0
C  C48  1  0.82032580  0.93586194  0.60087273  1  0  0.282496  0  3.704532  0  0  0.273711  0  3.972983  0  0  0.28334  0  3.992033  0  0  0.106938  0.266919  0  3.960257  0
C  C49  1  0.67968283  0.93585249  0.89913206  1  0  0.282355  0  3.704235  0  0  0.273465  0  3.972786  0  0  0.283086  0  3.991872  0  0  0.106869  0.266676  0  3.960056  0
C  C50  1  0.17967088  0.06414246  0.39912872  1  0  0.282311  0  3.70461  0  0  0.273608  0  3.972922  0  0  0.283227  0  3.992002  0  0  0.106872  0.266816  0  3.960199  0
C  C51  1  0.32031369  0.06414563  0.10087208  1  0  0.282294  0  3.704277  0  0  0.273418  0  3.972801  0  0  0.283041  0  3.991884  0  0  0.106838  0.266628  0  3.960081  0
C  C52  1  0.87127007  0.06873036  0.63113465  1  0  -0.278125  0  3.676499  0  0  -0.307288  0  3.934907  0  0  -0.316699  0  3.955845  0  0  -0.108585  -0.301127  0  3.919453  0
C  C53  1  0.62873946  0.06872350  0.86886740  1  0  -0.278154  0  3.676225  0  0  -0.307283  0  3.934764  0  0  -0.316682  0  3.955699  0  0  -0.108554  -0.301124  0  3.919307  0
C  C54  1  0.12872541  0.93127300  0.36886857  1  0  -0.27805  0  3.676506  0  0  -0.307268  0  3.934896  0  0  -0.316673  0  3.955841  0  0  -0.108521  -0.301117  0  3.919457  0
C  C55  1  0.37125809  0.93127567  0.13113768  1  0  -0.278098  0  3.676245  0  0  -0.307233  0  3.934725  0  0  -0.316625  0  3.955644  0  0  -0.108516  -0.301072  0  3.919261  0
C  C56  1  0.01442501  0.04893117  0.67305709  1  0  0.119547  0  3.818598  0  0  0.107907  0  4.08049  0  0  0.113527  0  4.100168  0  0  0.09369  0.105043  0  4.065902  0
C  C57  1  0.48558387  0.04892720  0.82694274  1  0  0.119455  0  3.81862  0  0  0.107901  0  4.080467  0  0  0.113521  0  4.100145  0  0  0.093745  0.10503  0  4.065892  0
C  C58  1  0.98557260  0.95106904  0.32694709  1  0  0.119601  0  3.818572  0  0  0.10795  0  4.080472  0  0  0.113567  0  4.100152  0  0  0.093717  0.105081  0  4.065895  0
C  C59  1  0.51441396  0.95107301  0.17305784  1  0  0.119415  0  3.818665  0  0  0.10782  0  4.08049  0  0  0.113437  0  4.100171  0  0  0.093709  0.104958  0  4.065911  0
C  C60  1  0.13064124  0.14336924  0.71219009  1  0  0.20669  0  3.799382  0  0  0.202984  0  4.041748  0  0  0.211717  0  4.059127  0  0  0.129447  0.197859  0  4.028953  0
C  C61  1  0.36937282  0.14336726  0.78781100  1  0  0.206779  0  3.799118  0  0  0.202998  0  4.041563  0  0  0.211729  0  4.058944  0  0  0.129466  0.197879  0  4.02877  0
C  C62  1  0.86935741  0.85663412  0.28781503  1  0  0.206687  0  3.799373  0  0  0.202999  0  4.041742  0  0  0.211731  0  4.059122  0  0  0.129459  0.197874  0  4.02895  0
C  C63  1  0.63062375  0.85663609  0.21219225  1  0  0.206802  0  3.799095  0  0  0.203161  0  4.041357  0  0  0.211892  0  4.058739  0  0  0.12953  0.19803  0  4.028573  0
C  C64  1  0.12789177  0.29007174  0.70816080  1  0  -0.151256  0  3.664465  0  0  -0.173859  0  3.920377  0  0  -0.179611  0  3.937213  0  0  -0.078179  -0.172564  0  3.910196  0
C  C65  1  0.37213002  0.29006771  0.79184355  1  0  -0.151054  0  3.664288  0  0  -0.173651  0  3.9202  0  0  -0.179397  0  3.937032  0  0  -0.078097  -0.172367  0  3.910039  0
C  C66  1  0.87210813  0.70993057  0.29184165  1  0  -0.151221  0  3.664342  0  0  -0.173862  0  3.920267  0  0  -0.179606  0  3.937092  0  0  -0.078217  -0.172575  0  3.910092  0
C  C67  1  0.62787011  0.70993460  0.20815530  1  0  -0.151085  0  3.664209  0  0  -0.173741  0  3.920093  0  0  -0.179487  0  3.936924  0  0  -0.078138  -0.172455  0  3.909928  0
C  C68  1  0.25001450  0.36271729  0.75000236  1  0  0.018152  0  3.688265  0  0  -0.00468  0  3.95035  0  0  4.1e-05  0  3.967179  0  0  -0.057647  -0.006253  0  3.938936  0
C  C69  1  0.74998764  0.63728607  0.24999925  1  0  0.018092  0  3.688202  0  0  -0.004715  0  3.950273  0  0  3e-06  0  3.967101  0  0  -0.057637  -0.006269  0  3.938849  0
C  C70  1  0.23616094  0.67141128  0.95809807  1  0  0.683038  0  3.874961  0  0  0.640394  0  4.176365  0  0  0.672945  0  4.169843  0  0  0.196338  0.618451  0  4.180008  0
C  C71  1  0.26382433  0.67140326  0.54189876  1  0  0.682864  0  3.875086  0  0  0.64025  0  4.176442  0  0  0.672802  0  4.16992  0  0  0.196191  0.618308  0  4.180085  0
C  C72  1  0.76383690  0.32858998  0.04190251  1  0  0.683192  0  3.874591  0  0  0.640336  0  4.176253  0  0  0.672887  0  4.169734  0  0  0.196377  0.618391  0  4.179896  0
C  C73  1  0.73616296  0.32859486  0.45809518  1  0  0.683046  0  3.875191  0  0  0.640411  0  4.176515  0  0  0.672966  0  4.16999  0  0  0.196277  0.618468  0  4.180149  0
C  C74  1  0.15389804  0.61921644  0.07000738  1  0  -0.268093  0  3.692106  0  0  -0.306406  0  3.945734  0  0  -0.312145  0  3.954742  0  0  -0.172672  -0.302738  0  3.939561  0
C  C75  1  0.34610596  0.61921691  0.42999251  1  0  -0.268132  0  3.692185  0  0  -0.306478  0  3.945807  0  0  -0.312222  0  3.954819  0  0  -0.172698  -0.302802  0  3.939631  0
C  C76  1  0.84610668  0.38077854  0.92998800  1  0  -0.268424  0  3.692303  0  0  -0.306604  0  3.945823  0  0  -0.31235  0  3.954842  0  0  -0.172713  -0.302931  0  3.939653  0
C  C77  1  0.65390537  0.38078331  0.57000217  1  0  -0.268254  0  3.692412  0  0  -0.306564  0  3.945904  0  0  -0.312319  0  3.954911  0  0  -0.172776  -0.302873  0  3.939737  0
C  C78  1  0.06234584  0.48784920  0.04404317  1  0  -0.079316  0  3.668607  0  0  -0.116983  0  3.92307  0  0  -0.118067  0  3.93847  0  0  -0.165496  -0.116107  0  3.912504  0
C  C79  1  0.43765714  0.48785684  0.45595370  1  0  -0.079391  0  3.668665  0  0  -0.11701  0  3.923096  0  0  -0.118078  0  3.938484  0  0  -0.165483  -0.116141  0  3.912538  0
C  C80  1  0.93765911  0.51214055  0.95594861  1  0  -0.079321  0  3.668683  0  0  -0.116922  0  3.923087  0  0  -0.118008  0  3.938474  0  0  -0.165494  -0.116053  0  3.912533  0
C  C81  1  0.56234507  0.51215071  0.54404701  1  0  -0.079231  0  3.668585  0  0  -0.116873  0  3.922994  0  0  -0.117962  0  3.93839  0  0  -0.165424  -0.116001  0  3.912431  0
N  N82  1  0.93123175  0.84551101  0.62701891  1  0  -0.189465  0  3.428823  0  0  -0.135291  0  3.661327  0  0  -0.147716  0  3.679033  0  0  -0.26345  -0.12738  0  3.649562  0
N  N83  1  0.56877518  0.84550260  0.87298202  1  0  -0.189411  0  3.428677  0  0  -0.135097  0  3.661157  0  0  -0.147558  0  3.678909  0  0  -0.263394  -0.127185  0  3.649384  0
N  N84  1  0.06876838  0.15449549  0.37297993  1  0  -0.189361  0  3.428786  0  0  -0.135144  0  3.661175  0  0  -0.147586  0  3.678909  0  0  -0.263366  -0.127228  0  3.649397  0
N  N85  1  0.43122155  0.15449342  0.12701852  1  0  -0.189371  0  3.428668  0  0  -0.135094  0  3.661175  0  0  -0.147557  0  3.67893  0  0  -0.26341  -0.127189  0  3.649405  0
N  N86  1  0.04853211  0.91174990  0.66999725  1  0  -0.258336  0  3.184683  0  0  -0.213743  0  3.475051  0  0  -0.22603  0  3.48986  0  0  -0.240264  -0.20532  0  3.465461  0
N  N87  1  0.45147381  0.91174355  0.83000254  1  0  -0.258273  0  3.184532  0  0  -0.213819  0  3.474984  0  0  -0.22609  0  3.489801  0  0  -0.240374  -0.205389  0  3.465386  0
N  N88  1  0.95146779  0.08825346  0.33000520  1  0  -0.258362  0  3.184498  0  0  -0.21381  0  3.474882  0  0  -0.226087  0  3.489697  0  0  -0.240307  -0.205385  0  3.465288  0
N  N89  1  0.54852293  0.08825666  0.16999801  1  0  -0.258243  0  3.184541  0  0  -0.213772  0  3.475001  0  0  -0.226043  0  3.489823  0  0  -0.240349  -0.205345  0  3.465407  0
N  N90  1  0.25000554  0.07478682  0.75000178  1  0  -0.398143  0  3.273801  0  0  -0.32953  0  3.530778  0  0  -0.347291  0  3.544993  0  0  -0.318974  -0.316068  0  3.519418  0
N  N91  1  0.74999322  0.92521549  0.25000154  1  0  -0.398156  0  3.273891  0  0  -0.329568  0  3.530767  0  0  -0.347325  0  3.544983  0  0  -0.318978  -0.3161  0  3.519406  0
O  O92  1  0.16015314  0.75569920  0.89163986  1  0  -0.663136  0  2.058916  0  0  -0.588811  0  2.341626  0  0  -0.617453  0  2.32587  0  0  -0.341525  -0.569178  0  2.351808  0
O  O93  1  0.33983337  0.75568895  0.60836712  1  0  -0.663107  0  2.058982  0  0  -0.588771  0  2.341643  0  0  -0.617417  0  2.325891  0  0  -0.341404  -0.569121  0  2.351794  0
O  O94  1  0.83985049  0.24428950  0.10835549  1  0  -0.663248  0  2.058742  0  0  -0.588748  0  2.34144  0  0  -0.617395  0  2.325687  0  0  -0.341493  -0.569098  0  2.351586  0
O  O95  1  0.66015708  0.24431755  0.39162873  1  0  -0.663154  0  2.059208  0  0  -0.588769  0  2.341824  0  0  -0.617413  0  2.326075  0  0  -0.341436  -0.569127  0  2.351974  0
O  O96  1  0.36416641  0.63061111  0.93591684  1  0  -0.643974  0  1.871381  0  0  -0.606929  0  2.093408  0  0  -0.627498  0  2.082523  0  0  -0.344322  -0.592661  0  2.100118  0
O  O97  1  0.13582248  0.63060942  0.56406829  1  0  -0.64379  0  1.871474  0  0  -0.606761  0  2.093485  0  0  -0.627327  0  2.082592  0  0  -0.344218  -0.592496  0  2.100194  0
O  O98  1  0.63584121  0.36939434  0.06408494  1  0  -0.643905  0  1.871333  0  0  -0.606806  0  2.093455  0  0  -0.62737  0  2.082573  0  0  -0.344306  -0.592544  0  2.100166  0
O  O99  1  0.86417935  0.36938556  0.43592069  1  0  -0.643898  0  1.871289  0  0  -0.606887  0  2.093299  0  0  -0.627459  0  2.082415  0  0  -0.34426  -0.592623  0  2.100014  0
