# generated using pymatgen
data_CdH8C12(BrN)2
_symmetry_space_group_name_H-M   'P 1'
_cell_length_a   7.41415534
_cell_length_b   9.74622055
_cell_length_c   9.74618267
_cell_angle_alpha   66.98527597
_cell_angle_beta   75.82621215
_cell_angle_gamma   75.82608804
_symmetry_Int_Tables_number   1
_chemical_formula_structural   CdH8C12(BrN)2
_chemical_formula_sum   'Cd2 H16 C24 Br4 N4'
_cell_volume   619.63217310
_cell_formula_units_Z   2
loop_
 _symmetry_equiv_pos_site_id
 _symmetry_equiv_pos_as_xyz
  1  'x, y, z'
loop_
 _atom_site_type_symbol
 _atom_site_label
 _atom_site_symmetry_multiplicity
 _atom_site_fract_x
 _atom_site_fract_y
 _atom_site_fract_z
 _atom_site_occupancy
 _atom_site_pbe_bader_spin_density
 _atom_site_pbe_cm5_charge
 _atom_site_pbe_ddec_charge
 _atom_site_pbe_ddec_spin_density
 _atom_site_pbe_ddec_sum_bond_order
 _atom_site_pbe_magmom
Cd  Cd0  1  0.24999875  0.92735799  0.07264066  1  0  0.540694  0.660314  0  2.500269  0
Cd  Cd1  1  0.74999999  0.07263986  0.92735771  1  0  0.540689  0.660324  0  2.500243  0
H  H2  1  0.59235782  0.66778312  0.98819419  1  0  0.101189  0.075204  0  1.035638  0
H  H3  1  0.90764344  0.01180648  0.33221446  1  0  0.101177  0.07517  0  1.035674  0
H  H4  1  0.40763981  0.33221362  0.01180690  1  0  0.101167  0.075194  0  1.035639  0
H  H5  1  0.09235735  0.98819478  0.66778214  1  0  0.10118  0.075196  0  1.035668  0
H  H6  1  0.72375275  0.39020345  0.10229625  1  0  0.091078  0.11326  0  1.046936  0
H  H7  1  0.77624741  0.89771005  0.60979235  1  0  0.091084  0.113267  0  1.046925  0
H  H8  1  0.27624488  0.60979331  0.89770586  1  0  0.091095  0.113279  0  1.046906  0
H  H9  1  0.22374846  0.10229456  0.39020282  1  0  0.091052  0.113196  0  1.047017  0
H  H10  1  0.59013064  0.24621534  0.36800110  1  0  0.108984  0.116779  0  0.978226  0
H  H11  1  0.90986871  0.63200422  0.75378163  1  0  0.10898  0.116791  0  0.978258  0
H  H12  1  0.40987260  0.75378150  0.63200399  1  0  0.108988  0.116784  0  0.978271  0
H  H13  1  0.09012323  0.36799921  0.24621375  1  0  0.108976  0.11676  0  0.97829  0
H  H14  1  0.12566298  0.38928302  0.74987576  1  0  0.08793  0.106157  0  1.049365  0
H  H15  1  0.37433032  0.25012574  0.61072111  1  0  0.087933  0.106163  0  1.049389  0
H  H16  1  0.87433201  0.61071934  0.25012152  1  0  0.087921  0.106119  0  1.049349  0
H  H17  1  0.62567243  0.74987338  0.38928418  1  0  0.087929  0.106139  0  1.049397  0
C  C18  1  0.53752957  0.59976956  0.10345855  1  0  0.052027  0.10782  0  3.946643  0
C  C19  1  0.96247317  0.89654285  0.40022851  1  0  0.05205  0.107869  0  3.946588  0
C  C20  1  0.46247363  0.40022725  0.89654349  1  0  0.052028  0.107787  0  3.946567  0
C  C21  1  0.03752762  0.10345841  0.59976809  1  0  0.052053  0.107793  0  3.946828  0
C  C22  1  0.61035112  0.44554998  0.16776809  1  0  -0.086313  -0.125142  0  3.972816  0
C  C23  1  0.88964798  0.83223412  0.55444740  1  0  -0.086294  -0.125089  0  3.972717  0
C  C24  1  0.38965132  0.55445019  0.83223068  1  0  -0.086304  -0.125097  0  3.972773  0
C  C25  1  0.11034886  0.16776595  0.44554839  1  0  -0.086257  -0.124967  0  3.972808  0
C  C26  1  0.53702756  0.36616592  0.31498765  1  0  -0.062987  -0.069026  0  3.9217  0
C  C27  1  0.96297125  0.68501607  0.63383143  1  0  -0.06297  -0.069114  0  3.921672  0
C  C28  1  0.46297653  0.63383313  0.68501228  1  0  -0.063017  -0.069138  0  3.921843  0
C  C29  1  0.03702815  0.31498518  0.36616544  1  0  -0.063009  -0.069118  0  3.921772  0
C  C30  1  0.39359165  0.44150332  0.39856657  1  0  -0.00212  0.041379  0  4.009649  0
C  C31  1  0.10640809  0.60143624  0.55849758  1  0  -0.00209  0.041509  0  4.009641  0
C  C32  1  0.60641198  0.55849804  0.60143560  1  0  -0.002074  0.041574  0  4.009676  0
C  C33  1  0.89359412  0.39856507  0.44150181  1  0  -0.002082  0.041461  0  4.009593  0
C  C34  1  0.31865720  0.36877146  0.55396950  1  0  -0.088679  -0.11618  0  3.972638  0
C  C35  1  0.18134070  0.44603360  0.63123011  1  0  -0.088628  -0.116069  0  3.972458  0
C  C36  1  0.68134415  0.63122764  0.44603504  1  0  -0.088623  -0.116123  0  3.972627  0
C  C37  1  0.81865827  0.55396999  0.36877205  1  0  -0.088677  -0.116106  0  3.972468  0
C  C38  1  0.17485237  0.67712330  0.40324249  1  0  0.116504  0.124078  0  3.955493  0
C  C39  1  0.32514613  0.59675953  0.32287894  1  0  0.116456  0.124134  0  3.955315  0
C  C40  1  0.82514847  0.32287803  0.59675920  1  0  0.116484  0.124155  0  3.955374  0
C  C41  1  0.67485191  0.40324175  0.67712126  1  0  0.116453  0.124056  0  3.955439  0
Br  Br42  1  0.00309551  0.19148831  0.02275915  1  0  -0.259903  -0.449227  0  1.339765  0
Br  Br43  1  0.49690243  0.97724019  0.80851066  1  0  -0.259911  -0.449236  0  1.339754  0
Br  Br44  1  0.99690415  0.80851184  0.97724017  1  0  -0.259901  -0.449216  0  1.339751  0
Br  Br45  1  0.50309983  0.02275428  0.19148840  1  0  -0.259897  -0.44922  0  1.339774  0
N  N46  1  0.39745709  0.67194685  0.17766726  1  0  -0.328086  -0.255407  0  3.520519  0
N  N47  1  0.10254695  0.82233339  0.32805144  1  0  -0.328114  -0.255431  0  3.520556  0
N  N48  1  0.60254724  0.32805106  0.82233206  1  0  -0.328031  -0.255357  0  3.520438  0
N  N49  1  0.89745825  0.17766676  0.67194475  1  0  -0.328132  -0.255448  0  3.520672  0
