# generated using pymatgen
data_KHC3NO2
_symmetry_space_group_name_H-M   'P 1'
_cell_length_a   6.36251648
_cell_length_b   6.79822751
_cell_length_c   18.29339432
_cell_angle_alpha   90.00012915
_cell_angle_beta   90.00006241
_cell_angle_gamma   90.00012680
_symmetry_Int_Tables_number   1
_chemical_formula_structural   KHC3NO2
_chemical_formula_sum   'K8 H8 C24 N8 O16'
_cell_volume   791.25945066
_cell_formula_units_Z   8
loop_
 _symmetry_equiv_pos_site_id
 _symmetry_equiv_pos_as_xyz
  1  'x, y, z'
loop_
 _atom_site_type_symbol
 _atom_site_label
 _atom_site_symmetry_multiplicity
 _atom_site_fract_x
 _atom_site_fract_y
 _atom_site_fract_z
 _atom_site_occupancy
 _atom_site_hle17_bader_spin_density
 _atom_site_hle17_ddec_charge
 _atom_site_hle17_ddec_spin_density
 _atom_site_hle17_ddec_sum_bond_order
 _atom_site_hle17_magmom
 _atom_site_hse06_10hf_bader_spin_density
 _atom_site_hse06_10hf_ddec_charge
 _atom_site_hse06_10hf_ddec_spin_density
 _atom_site_hse06_10hf_ddec_sum_bond_order
 _atom_site_hse06_10hf_magmom
 _atom_site_hse06_bader_spin_density
 _atom_site_hse06_ddec_charge
 _atom_site_hse06_ddec_spin_density
 _atom_site_hse06_ddec_sum_bond_order
 _atom_site_hse06_magmom
 _atom_site_pbe_bader_spin_density
 _atom_site_pbe_cm5_charge
 _atom_site_pbe_ddec_charge
 _atom_site_pbe_ddec_spin_density
 _atom_site_pbe_ddec_sum_bond_order
 _atom_site_pbe_magmom
K  K0  1  0.24843206  0.49307870  0.93980452  1  0  0.914771  0  0.518291  0  0  0.851866  0  0.727719  0  0  0.868433  0  0.704525  0  0  0.805335  0.839512  0  0.744399  0
K  K1  1  0.74843353  0.00692188  0.06019510  1  0  0.91476  0  0.518303  0  0  0.851848  0  0.727746  0  0  0.868416  0  0.704551  0  0  0.805327  0.839495  0  0.744428  0
K  K2  1  0.25155818  0.99308141  0.56019393  1  0  0.914736  0  0.518332  0  0  0.851843  0  0.727757  0  0  0.868411  0  0.704562  0  0  0.805334  0.83949  0  0.744439  0
K  K3  1  0.75156398  0.50692396  0.43980501  1  0  0.914755  0  0.518293  0  0  0.851847  0  0.727742  0  0  0.868414  0  0.704548  0  0  0.805337  0.839492  0  0.744426  0
K  K4  1  0.75156339  0.50692280  0.06019640  1  0  0.91476  0  0.518304  0  0  0.851847  0  0.72775  0  0  0.868415  0  0.704555  0  0  0.805328  0.839492  0  0.744432  0
K  K5  1  0.25156506  0.99308109  0.93980363  1  0  0.914771  0  0.518292  0  0  0.851856  0  0.727738  0  0  0.868426  0  0.704542  0  0  0.805336  0.839503  0  0.744418  0
K  K6  1  0.74843098  0.00692598  0.43980535  1  0  0.914756  0  0.518295  0  0  0.851859  0  0.727725  0  0  0.868427  0  0.704529  0  0  0.805339  0.839506  0  0.744407  0
K  K7  1  0.24843933  0.49307902  0.56019317  1  0  0.914745  0  0.518306  0  0  0.85183  0  0.727767  0  0  0.868399  0  0.704571  0  0  0.805326  0.839475  0  0.74445  0
H  H8  1  0.89596680  0.80362886  0.75000019  1  0  0.125044  0  0.969013  0  0  0.131278  0  1.034324  0  0  0.135695  0  1.031737  0  0  0.115097  0.127857  0  1.036799  0
H  H9  1  0.39596719  0.69637092  0.25000044  1  0  0.124989  0  0.969047  0  0  0.131224  0  1.034364  0  0  0.135643  0  1.031778  0  0  0.115051  0.127802  0  1.036841  0
H  H10  1  0.60403298  0.30362911  0.74999993  1  0  0.124981  0  0.969047  0  0  0.131216  0  1.034367  0  0  0.135634  0  1.031781  0  0  0.115052  0.127794  0  1.036844  0
H  H11  1  0.10403179  0.19637117  0.25000018  1  0  0.125004  0  0.969065  0  0  0.131237  0  1.034379  0  0  0.135656  0  1.031792  0  0  0.115046  0.127813  0  1.036859  0
H  H12  1  0.15169194  0.66068348  0.74999999  1  0  0.062772  0  0.941095  0  0  0.070021  0  1.007433  0  0  0.073027  0  1.003866  0  0  0.131681  0.067583  0  1.010471  0
H  H13  1  0.65169636  0.83931433  0.24999946  1  0  0.062795  0  0.941122  0  0  0.070043  0  1.007444  0  0  0.073048  0  1.003877  0  0  0.131691  0.067606  0  1.010481  0
H  H14  1  0.34830695  0.16068423  0.74999982  1  0  0.062784  0  0.941098  0  0  0.070027  0  1.007439  0  0  0.073032  0  1.003873  0  0  0.131682  0.06759  0  1.010477  0
H  H15  1  0.84830508  0.33931655  0.24999983  1  0  0.062775  0  0.941119  0  0  0.070023  0  1.007459  0  0  0.073029  0  1.003891  0  0  0.131682  0.067586  0  1.010496  0
C  C16  1  0.61988425  0.74692870  0.81541553  1  0  0.153676  0  3.690796  0  0  0.159129  0  3.932491  0  0  0.163634  0  3.948362  0  0  0.131525  0.156083  0  3.921839  0
C  C17  1  0.11987513  0.75307198  0.18458500  1  0  0.153655  0  3.690827  0  0  0.159087  0  3.932569  0  0  0.163593  0  3.94844  0  0  0.131469  0.156041  0  3.921916  0
C  C18  1  0.88011382  0.24692912  0.68458454  1  0  0.153635  0  3.690709  0  0  0.15909  0  3.932421  0  0  0.163597  0  3.948291  0  0  0.131515  0.156046  0  3.921765  0
C  C19  1  0.38012397  0.25307173  0.31541567  1  0  0.153731  0  3.690668  0  0  0.159172  0  3.932378  0  0  0.163677  0  3.94825  0  0  0.131524  0.156127  0  3.921725  0
C  C20  1  0.38012377  0.25307133  0.18458484  1  0  0.153633  0  3.690835  0  0  0.159076  0  3.932544  0  0  0.163581  0  3.948417  0  0  0.13149  0.156032  0  3.921892  0
C  C21  1  0.88012660  0.24692805  0.81541537  1  0  0.153557  0  3.690948  0  0  0.159139  0  3.932508  0  0  0.163645  0  3.948379  0  0  0.131507  0.156094  0  3.921855  0
C  C22  1  0.11987377  0.75307238  0.31541528  1  0  0.153451  0  3.690942  0  0  0.159028  0  3.932517  0  0  0.163535  0  3.948389  0  0  0.131451  0.155985  0  3.921861  0
C  C23  1  0.61988405  0.74692977  0.68458470  1  0  0.153667  0  3.69078  0  0  0.159124  0  3.932474  0  0  0.163629  0  3.948345  0  0  0.131505  0.156079  0  3.921819  0
C  C24  1  0.72929372  0.77085544  0.75000015  1  0  -0.165047  0  3.66723  0  0  -0.192404  0  3.910421  0  0  -0.200549  0  3.931299  0  0  -0.067962  -0.187211  0  3.897119  0
C  C25  1  0.22929104  0.72914547  0.25000043  1  0  -0.16486  0  3.667162  0  0  -0.192252  0  3.910329  0  0  -0.200399  0  3.931209  0  0  -0.067805  -0.187059  0  3.897027  0
C  C26  1  0.77070913  0.27085603  0.75000049  1  0  -0.164859  0  3.667169  0  0  -0.192259  0  3.910331  0  0  -0.200406  0  3.931212  0  0  -0.067834  -0.187066  0  3.897029  0
C  C27  1  0.27071116  0.22914459  0.25000022  1  0  -0.164959  0  3.6671  0  0  -0.192315  0  3.910288  0  0  -0.200462  0  3.93117  0  0  -0.067823  -0.187122  0  3.896985  0
C  C28  1  0.73354381  0.75405149  0.88913834  1  0  0.63421  0  3.957326  0  0  0.591061  0  4.252003  0  0  0.622835  0  4.24327  0  0  0.199428  0.569538  0  4.257117  0
C  C29  1  0.23354544  0.74594649  0.11086223  1  0  0.634082  0  3.957362  0  0  0.590931  0  4.252057  0  0  0.622706  0  4.243325  0  0  0.199376  0.569409  0  4.25717  0
C  C30  1  0.76645743  0.25405270  0.61086119  1  0  0.634123  0  3.95744  0  0  0.590958  0  4.252157  0  0  0.622732  0  4.243425  0  0  0.199347  0.569436  0  4.257269  0
C  C31  1  0.26645679  0.24594645  0.38913843  1  0  0.634053  0  3.957346  0  0  0.590914  0  4.252021  0  0  0.622688  0  4.243289  0  0  0.199297  0.56939  0  4.257135  0
C  C32  1  0.26645479  0.24594707  0.11086203  1  0  0.634139  0  3.957287  0  0  0.590999  0  4.251951  0  0  0.622773  0  4.243218  0  0  0.199389  0.569475  0  4.257067  0
C  C33  1  0.76645786  0.25405354  0.88913814  1  0  0.634177  0  3.957373  0  0  0.590961  0  4.252129  0  0  0.622734  0  4.2434  0  0  0.199362  0.569438  0  4.257241  0
C  C34  1  0.23354274  0.74594734  0.38913864  1  0  0.634132  0  3.957358  0  0  0.590912  0  4.25212  0  0  0.622684  0  4.24339  0  0  0.199361  0.569389  0  4.257231  0
C  C35  1  0.73354337  0.75405358  0.61086139  1  0  0.63403  0  3.957484  0  0  0.590872  0  4.252189  0  0  0.622647  0  4.243458  0  0  0.19933  0.56935  0  4.257301  0
C  C36  1  0.31984871  0.69256402  0.75000004  1  0  0.295413  0  3.737523  0  0  0.252415  0  4.021006  0  0  0.263699  0  4.031874  0  0  0.182313  0.245011  0  4.013765  0
C  C37  1  0.81984834  0.80743707  0.25000002  1  0  0.295357  0  3.737608  0  0  0.252377  0  4.021069  0  0  0.263662  0  4.031935  0  0  0.182315  0.244973  0  4.013825  0
C  C38  1  0.18015182  0.19256296  0.74999925  1  0  0.295423  0  3.737541  0  0  0.25244  0  4.021011  0  0  0.263722  0  4.03188  0  0  0.182349  0.245034  0  4.01377  0
C  C39  1  0.68015145  0.30743748  0.25000033  1  0  0.295347  0  3.737537  0  0  0.252346  0  4.021019  0  0  0.263629  0  4.031885  0  0  0.182304  0.244943  0  4.013772  0
N  N40  1  0.41215036  0.70895094  0.81545319  1  0  -0.406479  0  3.101669  0  0  -0.367314  0  3.368452  0  0  -0.379327  0  3.381522  0  0  -0.394166  -0.359128  0  3.35959  0
N  N41  1  0.91214818  0.79105035  0.18454690  1  0  -0.406463  0  3.101763  0  0  -0.367301  0  3.368553  0  0  -0.379314  0  3.381621  0  0  -0.394186  -0.359115  0  3.359689  0
N  N42  1  0.08784864  0.20895076  0.68454720  1  0  -0.406446  0  3.101636  0  0  -0.367281  0  3.368412  0  0  -0.379294  0  3.381482  0  0  -0.39417  -0.359094  0  3.35955  0
N  N43  1  0.58785158  0.29104949  0.31545290  1  0  -0.406498  0  3.101678  0  0  -0.367327  0  3.368465  0  0  -0.379339  0  3.381533  0  0  -0.394206  -0.359141  0  3.3596  0
N  N44  1  0.58785137  0.29105056  0.18454718  1  0  -0.40643  0  3.10176  0  0  -0.367258  0  3.368544  0  0  -0.379269  0  3.381612  0  0  -0.394208  -0.359072  0  3.359679  0
N  N45  1  0.08785356  0.20894968  0.81545292  1  0  -0.406506  0  3.10182  0  0  -0.367391  0  3.368573  0  0  -0.379403  0  3.381642  0  0  -0.394248  -0.359205  0  3.35971  0
N  N46  1  0.91214524  0.79105074  0.31545262  1  0  -0.406399  0  3.101842  0  0  -0.367277  0  3.368587  0  0  -0.379291  0  3.381659  0  0  -0.394191  -0.359092  0  3.359722  0
N  N47  1  0.41215016  0.70895054  0.68454693  1  0  -0.406454  0  3.101655  0  0  -0.367286  0  3.368437  0  0  -0.3793  0  3.381508  0  0  -0.394146  -0.3591  0  3.359574  0
O  O48  1  0.61898860  0.75788048  0.94613649  1  0  -0.768997  0  1.994185  0  0  -0.719987  0  2.238285  0  0  -0.742671  0  2.227082  0  0  -0.502962  -0.703936  0  2.245588  0
O  O49  1  0.11899162  0.74211137  0.05386349  1  0  -0.768974  0  1.994262  0  0  -0.719945  0  2.238317  0  0  -0.742627  0  2.227115  0  0  -0.502945  -0.703891  0  2.24562  0
O  O50  1  0.88101107  0.25788158  0.55386359  1  0  -0.768889  0  1.994244  0  0  -0.71989  0  2.238377  0  0  -0.742573  0  2.227175  0  0  -0.502883  -0.703839  0  2.245681  0
O  O51  1  0.38100904  0.24211633  0.44613662  1  0  -0.768926  0  1.994226  0  0  -0.719911  0  2.238298  0  0  -0.742595  0  2.227099  0  0  -0.502921  -0.703858  0  2.2456  0
O  O52  1  0.38100842  0.24211072  0.05386388  1  0  -0.768974  0  1.994178  0  0  -0.719953  0  2.238239  0  0  -0.742637  0  2.227036  0  0  -0.502962  -0.703904  0  2.245545  0
O  O53  1  0.88101169  0.25788130  0.94613688  1  0  -0.76893  0  1.994147  0  0  -0.719904  0  2.238252  0  0  -0.742587  0  2.227052  0  0  -0.502934  -0.703852  0  2.245553  0
O  O54  1  0.11898595  0.74211551  0.44613678  1  0  -0.768884  0  1.994216  0  0  -0.719854  0  2.238327  0  0  -0.742536  0  2.227128  0  0  -0.502896  -0.703802  0  2.245629  0
O  O55  1  0.61898798  0.75788517  0.55386320  1  0  -0.76886  0  1.994244  0  0  -0.719847  0  2.238354  0  0  -0.742531  0  2.227153  0  0  -0.502878  -0.703795  0  2.245655  0
O  O56  1  0.93186784  0.75243950  0.88639149  1  0  -0.686281  0  1.924939  0  0  -0.645416  0  2.167343  0  0  -0.668849  0  2.159481  0  0  -0.419713  -0.628696  0  2.172247  0
O  O57  1  0.43187107  0.74756036  0.11360916  1  0  -0.686172  0  1.92491  0  0  -0.645307  0  2.167334  0  0  -0.66874  0  2.159474  0  0  -0.419651  -0.628588  0  2.172237  0
O  O58  1  0.56813181  0.25244178  0.61360804  1  0  -0.686259  0  1.924892  0  0  -0.645391  0  2.167339  0  0  -0.668824  0  2.159478  0  0  -0.419712  -0.628672  0  2.172242  0
O  O59  1  0.06813117  0.24755989  0.38639096  1  0  -0.686217  0  1.924899  0  0  -0.645356  0  2.16731  0  0  -0.668789  0  2.159448  0  0  -0.419651  -0.628636  0  2.172215  0
O  O60  1  0.06812918  0.24755906  0.11360943  1  0  -0.686193  0  1.924876  0  0  -0.645343  0  2.167295  0  0  -0.668776  0  2.159434  0  0  -0.419647  -0.628621  0  2.172198  0
O  O61  1  0.56813381  0.25244114  0.88639176  1  0  -0.686284  0  1.924997  0  0  -0.645404  0  2.167433  0  0  -0.668837  0  2.159574  0  0  -0.419697  -0.628685  0  2.172337  0
O  O62  1  0.43186835  0.74755825  0.38639178  1  0  -0.686241  0  1.924882  0  0  -0.645378  0  2.16736  0  0  -0.668809  0  2.159497  0  0  -0.419715  -0.628659  0  2.172263  0
O  O63  1  0.93186742  0.75244161  0.61360832  1  0  -0.686209  0  1.924938  0  0  -0.645344  0  2.167363  0  0  -0.668777  0  2.159501  0  0  -0.419693  -0.628626  0  2.172267  0
