# generated using pymatgen
data_CoH12C15S(NO)4
_symmetry_space_group_name_H-M   'P 1'
_cell_length_a   8.67122707
_cell_length_b   10.33692145
_cell_length_c   10.33688862
_cell_angle_alpha   75.63122585
_cell_angle_beta   71.73569927
_cell_angle_gamma   71.73650256
_symmetry_Int_Tables_number   1
_chemical_formula_structural   CoH12C15S(NO)4
_chemical_formula_sum   'Co2 H24 C30 S2 N8 O8'
_cell_volume   823.90268349
_cell_formula_units_Z   2
loop_
 _symmetry_equiv_pos_site_id
 _symmetry_equiv_pos_as_xyz
  1  'x, y, z'
loop_
 _atom_site_type_symbol
 _atom_site_label
 _atom_site_symmetry_multiplicity
 _atom_site_fract_x
 _atom_site_fract_y
 _atom_site_fract_z
 _atom_site_occupancy
 _atom_site_hle17_ddec_charge
 _atom_site_hle17_ddec_spin_density
 _atom_site_hle17_ddec_sum_bond_order
 _atom_site_hle17_magmom
 _atom_site_hse06_10hf_ddec_charge
 _atom_site_hse06_10hf_ddec_spin_density
 _atom_site_hse06_10hf_ddec_sum_bond_order
 _atom_site_hse06_10hf_magmom
 _atom_site_hse06_ddec_charge
 _atom_site_hse06_ddec_spin_density
 _atom_site_hse06_ddec_sum_bond_order
 _atom_site_hse06_magmom
 _atom_site_pbe_cm5_charge
 _atom_site_pbe_ddec_charge
 _atom_site_pbe_ddec_spin_density
 _atom_site_pbe_ddec_sum_bond_order
 _atom_site_pbe_magmom
Co  Co0  1  0.50000320  0.32939936  0.67059948  1  1.003669  -2.844717  2.005646  -2.529  0.947393  -2.814728  2.459451  -2.585  1.036617  -2.868719  2.372746  -2.676  0.694128  0.87233  -2.756265  2.52901  -2.494
Co  Co1  1  0.49999688  0.67060394  0.32939657  1  1.003721  2.844718  2.005595  2.529  0.94748  2.814718  2.459376  2.585  1.036665  2.868724  2.372684  2.676  0.694182  0.872411  2.756276  2.528925  2.494
H  H2  1  0.80318430  0.49289493  0.73895448  1  0.101166  -7.1e-05  0.986247  0.0  0.112671  -1e-06  1.045361  0.0  0.116416  6.3e-05  1.043206  0.0  0.099182  0.10951  -6.6e-05  1.047322  0.0
H  H3  1  0.19682082  0.26104689  0.50710334  1  0.10124  -7.2e-05  0.986248  0.0  0.112761  -1e-06  1.045338  0.0  0.116506  6.3e-05  1.043181  0.0  0.099199  0.109596  -6.6e-05  1.047297  0.0
H  H4  1  0.19683053  0.50710017  0.26103776  1  0.101084  7.3e-05  0.986306  0.0  0.11267  1e-06  1.045337  0.0  0.116408  -6.3e-05  1.043191  0.0  0.099166  0.109506  6.6e-05  1.047298  0.0
H  H5  1  0.80316417  0.73896429  0.49291513  1  0.101221  7.1e-05  0.986365  0.0  0.112801  1e-06  1.045381  0.0  0.11653  -6.3e-05  1.043241  0.0  0.099243  0.109637  6.6e-05  1.047341  0.0
H  H6  1  0.66456320  0.43756510  0.98484377  1  0.089862  2e-05  0.944427  0.0  0.102295  -8e-06  1.002729  0.0  0.105035  -1e-06  1.001478  0.0  0.099855  0.100198  -2.1e-05  1.003757  0.0
H  H7  1  0.33544151  0.01516045  0.56242738  1  0.089857  2.1e-05  0.944428  0.0  0.10228  -8e-06  1.002731  0.0  0.105019  -2e-06  1.00148  0.0  0.099873  0.100183  -2.1e-05  1.003758  0.0
H  H8  1  0.33544190  0.56242982  0.01514940  1  0.089832  -2.1e-05  0.944456  0.0  0.102201  8e-06  1.002835  0.0  0.10494  2e-06  1.001585  0.0  0.099808  0.100105  2.1e-05  1.003861  0.0
H  H9  1  0.66455114  0.98484836  0.43757987  1  0.089813  -2e-05  0.944339  0.0  0.10217  8e-06  1.002738  0.0  0.104909  2e-06  1.001489  0.0  0.099805  0.100076  2.1e-05  1.00376  0.0
H  H10  1  0.82796980  0.32966097  0.15977739  1  0.118312  -0.000187  0.995718  0.0  0.125206  -0.000161  1.062561  0.0  0.128954  -0.000109  1.060035  0.0  0.102718  0.122298  -0.000221  1.064506  0.0
H  H11  1  0.17203091  0.84022802  0.67033341  1  0.118266  -0.000188  0.995858  0.0  0.125168  -0.00016  1.062674  0.0  0.128912  -0.000109  1.060156  0.0  0.102712  0.122259  -0.000221  1.064618  0.0
H  H12  1  0.17203942  0.67032597  0.84022370  1  0.118181  0.000187  0.996042  0.0  0.125171  0.00016  1.062758  0.0  0.128922  0.000109  1.060222  0.0  0.102733  0.122263  0.000221  1.064703  0.0
H  H13  1  0.82796119  0.15977435  0.32967007  1  0.118219  0.000186  0.995941  0.0  0.125198  0.00016  1.062673  0.0  0.128945  0.000109  1.060146  0.0  0.102724  0.12229  0.000221  1.064621  0.0
H  H14  1  0.11911643  0.44065821  0.65479643  1  0.12066  0.00011  0.945275  0.0  0.132868  6.3e-05  1.000703  0.0  0.135996  8.4e-05  0.999179  0.0  0.111027  0.130287  2.6e-05  1.002127  0.0
H  H15  1  0.88089148  0.34520227  0.55934161  1  0.120699  0.000112  0.945211  0.0  0.132904  6.3e-05  1.000653  0.0  0.136032  8.4e-05  0.999128  0.0  0.111022  0.130322  2.6e-05  1.002079  0.0
H  H16  1  0.88089629  0.55933579  0.34519577  1  0.120655  -0.000112  0.945272  0.0  0.13285  -6.3e-05  1.000752  0.0  0.135976  -8.4e-05  0.999229  0.0  0.111017  0.13029  -2.6e-05  1.002148  0.0
H  H17  1  0.11909636  0.65480369  0.44067561  1  0.12063  -0.00011  0.945284  0.0  0.132832  -6.3e-05  1.000758  0.0  0.135959  -8.4e-05  0.999234  0.0  0.111004  0.130269  -2.6e-05  1.002157  0.0
H  H18  1  0.46487693  0.22106682  0.99632904  1  0.10224  -0.000141  0.913554  -0.001  0.115046  -0.000144  0.970464  0.0  0.117758  -0.000112  0.96642  0.0  0.146583  0.112653  -0.000215  0.974069  -0.001
H  H19  1  0.53512784  0.00366932  0.77893527  1  0.102327  -0.000139  0.913659  -0.001  0.115085  -0.000144  0.970595  0.0  0.117797  -0.000111  0.966551  0.0  0.146579  0.112693  -0.000214  0.974201  -0.001
H  H20  1  0.53513138  0.77893776  0.00366813  1  0.102284  0.000141  0.913582  0.001  0.115048  0.000144  0.97053  0.0  0.117759  0.000112  0.966486  0.0  0.146564  0.112656  0.000215  0.974134  0.001
H  H21  1  0.46486527  0.99633278  0.22106122  1  0.102297  0.00014  0.913622  0.001  0.115056  0.000144  0.970573  0.0  0.117767  0.000112  0.966526  0.0  0.146555  0.112663  0.000214  0.974177  0.001
H  H22  1  0.27488453  0.24479722  0.24479795  1  0.108154  1e-06  0.944689  0.0  0.116033  0.0  1.014534  0.0  0.11795  0.0  1.012949  0.0  0.13278  0.114257  0.0  1.015678  0.0
H  H23  1  0.72511142  0.75520399  0.75520087  1  0.108177  -0.0  0.944672  0.0  0.116042  0.0  1.01456  0.0  0.117958  -0.0  1.012975  0.0  0.132772  0.114265  0.0  1.015703  0.0
H  H24  1  0.05429594  0.27192638  0.27192390  1  0.109504  0.0  0.904298  0.0  0.121217  -0.0  0.965855  0.0  0.122442  0.0  0.965421  0.0  0.141195  0.120164  0.0  0.9663  0.0
H  H25  1  0.94570444  0.72807869  0.72806381  1  0.109509  0.0  0.904384  0.0  0.121246  0.0  0.965922  0.0  0.122471  0.0  0.965488  0.0  0.141177  0.12019  0.0  0.966364  0.0
C  C26  1  0.88141958  0.44483743  0.81090087  1  -0.082308  0.001027  3.776953  0.001  -0.10101  0.000122  4.035861  0.0  -0.103328  0.000127  4.057878  0.0  -0.101266  -0.099511  3.6e-05  4.02104  0.0
C  C27  1  0.11859419  0.18909541  0.55515830  1  -0.082472  0.001053  3.77699  0.001  -0.101189  0.000123  4.035893  0.0  -0.103507  0.000133  4.057909  0.0  -0.101323  -0.09968  3.6e-05  4.021064  0.0
C  C28  1  0.11858132  0.55515966  0.18909675  1  -0.082308  -0.00105  3.777026  -0.001  -0.101072  -0.000121  4.035933  0.0  -0.103384  -0.00013  4.057955  0.0  -0.101259  -0.099564  -3.6e-05  4.021108  0.0
C  C29  1  0.88140429  0.81090315  0.44485122  1  -0.082434  -0.001019  3.777054  -0.001  -0.101193  -0.000122  4.035943  0.0  -0.103495  -0.000131  4.057969  0.0  -0.101306  -0.099686  -3.6e-05  4.021121  0.0
C  C30  1  0.80149710  0.41183304  0.95179133  1  -0.058535  -0.001564  3.7602  -0.002  -0.077095  -0.000331  4.019265  0.0  -0.079082  -0.000206  4.041509  0.0  -0.09516  -0.07571  -0.000469  4.004582  -0.001
C  C31  1  0.19850371  0.04821549  0.58815964  1  -0.058359  -0.001581  3.76036  -0.002  -0.076904  -0.00033  4.019409  0.0  -0.078891  -0.000204  4.041652  0.0  -0.095091  -0.07552  -0.000469  4.004727  -0.001
C  C32  1  0.19851529  0.58815915  0.04820828  1  -0.058433  0.001577  3.759744  0.002  -0.076945  0.000331  4.018856  0.0  -0.078933  0.000203  4.041097  0.0  -0.095089  -0.075562  0.000469  4.004181  0.001
C  C33  1  0.80149003  0.95179318  0.41184346  1  -0.058336  0.001551  3.76005  0.002  -0.076826  0.000329  4.019137  0.0  -0.078812  0.000202  4.041376  0.0  -0.095042  -0.075442  0.000469  4.004459  0.001
C  C34  1  0.89221534  0.34896085  0.05071899  1  -0.150283  0.000551  3.751609  0.001  -0.171025  -0.000179  4.006398  0.0  -0.174193  -0.000112  4.026764  0.0  -0.097758  -0.16898  -0.000306  3.993301  0.0
C  C35  1  0.10779493  0.94928109  0.65103415  1  -0.150234  0.000567  3.751385  0.001  -0.170998  -0.00018  4.006187  0.0  -0.174163  -0.000117  4.026552  0.0  -0.09773  -0.168954  -0.000306  3.993093  0.0
C  C36  1  0.10779696  0.65103407  0.94927016  1  -0.150025  -0.000561  3.751425  -0.001  -0.170875  0.000179  4.00616  0.0  -0.174039  0.000116  4.026526  0.0  -0.097694  -0.168833  0.000306  3.993067  0.0
C  C37  1  0.89220061  0.05072541  0.34896616  1  -0.150203  -0.000537  3.751564  -0.001  -0.171029  0.000182  4.006316  0.0  -0.174194  0.000117  4.026679  0.0  -0.097786  -0.168988  0.000306  3.993226  0.0
C  C38  1  0.06685581  0.31818839  0.00201723  1  0.104692  -0.002949  3.769108  -0.004  0.094704  -0.001401  4.009253  -0.002  0.098066  -0.000969  4.031727  -0.002  0.092582  0.092383  -0.001834  3.994677  -0.003
C  C39  1  0.93313830  0.99798736  0.68180768  1  0.104562  -0.002958  3.769112  -0.004  0.094602  -0.0014  4.009214  -0.002  0.097965  -0.000967  4.031685  -0.002  0.092464  0.092279  -0.001833  3.99464  -0.003
C  C40  1  0.93314959  0.68179824  0.99797827  1  0.104546  0.002957  3.76915  0.004  0.094605  0.001401  4.009191  0.002  0.097965  0.000967  4.03167  0.002  0.092434  0.092287  0.001833  3.994606  0.003
C  C41  1  0.06685562  0.00201721  0.31819754  1  0.104478  0.002938  3.769056  0.004  0.094511  0.0014  4.009179  0.002  0.097873  0.000966  4.031653  0.002  0.092488  0.092192  0.001833  3.994596  0.003
C  C42  1  0.14823084  0.34926767  0.86058975  1  0.152381  0.000626  3.804978  0.001  0.156746  -0.001116  4.046304  -0.001  0.160246  -0.000697  4.071236  -0.001  0.089108  0.154113  -0.001609  4.029553  -0.002
C  C43  1  0.85177307  0.13940629  0.65073029  1  0.152402  0.000635  3.805213  0.001  0.156782  -0.001118  4.0465  -0.001  0.160281  -0.000698  4.071432  -0.001  0.089107  0.154151  -0.00161  4.02975  -0.002
C  C44  1  0.85177688  0.65072320  0.13940578  1  0.152183  -0.000637  3.804914  -0.001  0.156651  0.001116  4.04609  0.001  0.160148  0.000696  4.071018  0.001  0.089089  0.154021  0.001609  4.029344  0.002
C  C45  1  0.14821532  0.86059307  0.34927901  1  0.152532  -0.000614  3.804936  -0.001  0.156934  0.001117  4.046185  0.001  0.160432  0.000698  4.071112  0.001  0.089145  0.154305  0.00161  4.029441  0.002
C  C46  1  0.05539318  0.41509279  0.76307179  1  -0.130114  -0.001926  3.723227  -0.003  -0.150215  -0.000627  3.972938  -0.001  -0.15345  -0.000399  3.993643  -0.001  -0.087924  -0.147626  -0.000896  3.958666  -0.001
C  C47  1  0.94460723  0.23692503  0.58490581  1  -0.130239  -0.001952  3.723029  -0.003  -0.150362  -0.000628  3.972746  -0.001  -0.153595  -0.000405  3.993448  -0.001  -0.087963  -0.14777  -0.000896  3.958474  -0.001
C  C48  1  0.94462064  0.58489823  0.23692387  1  -0.130018  0.00195  3.723343  0.003  -0.150178  0.000627  3.973077  0.001  -0.15341  0.000403  3.99378  0.001  -0.087928  -0.147605  0.000896  3.958795  0.001
C  C49  1  0.05537833  0.76307960  0.41510568  1  -0.130152  0.001916  3.723415  0.003  -0.150297  0.000628  3.97317  0.001  -0.15353  0.000404  3.99387  0.001  -0.087947  -0.147722  0.000896  3.958889  0.001
C  C50  1  0.34416380  0.25779475  0.97116190  1  0.192606  0.0072  3.665416  0.009  0.128013  -0.000429  3.950522  -0.001  0.147495  -0.000585  3.959924  -0.001  0.156852  0.114452  0.000245  3.944253  0.0
C  C51  1  0.65583059  0.02883511  0.74221011  1  0.192342  0.007186  3.665231  0.009  0.127786  -0.00043  3.950305  -0.001  0.147269  -0.000588  3.959704  -0.001  0.156757  0.114227  0.000246  3.944042  0.0
C  C52  1  0.65584039  0.74220341  0.02883447  1  0.192444  -0.007201  3.665444  -0.009  0.127889  0.000429  3.95054  0.001  0.147369  0.000584  3.959938  0.001  0.156799  0.114335  -0.000247  3.944269  0.0
C  C53  1  0.34416187  0.97116626  0.25779452  1  0.192449  -0.007192  3.665253  -0.009  0.127887  0.00043  3.950341  0.001  0.147371  0.000585  3.959735  0.001  0.156814  0.114333  -0.000247  3.944071  0.0
C  C54  1  0.17843014  0.21692508  0.21692861  1  0.090756  -3e-06  3.612935  0.0  0.013861  0.0  3.860183  0.0  0.022824  -1e-06  3.868056  0.0  0.061989  0.0083  -0.0  3.854806  0.0
C  C55  1  0.82156924  0.78307306  0.78307011  1  0.090699  -0.0  3.613055  0.0  0.013717  -0.0  3.860452  0.0  0.022686  -1e-06  3.868323  0.0  0.061969  0.008159  -0.0  3.855078  0.0
S  S56  1  0.50001226  0.62748273  0.62748085  1  1.525198  -3e-06  5.833548  0.0  1.422776  -3e-06  6.371204  0.0  1.483625  -1.2e-05  6.342207  0.0  0.557973  1.377614  1e-06  6.388125  0.0
S  S57  1  0.49998582  0.37251963  0.37251896  1  1.525151  -1e-06  5.833412  0.0  1.42272  4e-06  6.37107  0.0  1.483569  4e-06  6.342066  0.0  0.557977  1.37756  0.0  6.387984  0.0
N  N58  1  0.19554886  0.26055278  0.06922688  1  -0.135099  -0.000948  3.520177  -0.002  -0.051755  -0.00152  3.749665  -0.003  -0.067751  -0.001262  3.772011  -0.002  -0.239244  -0.041522  -0.001779  3.734911  -0.003
N  N59  1  0.80445417  0.93077086  0.73944787  1  -0.134808  -0.000941  3.520119  -0.002  -0.051432  -0.001519  3.749546  -0.003  -0.067429  -0.001258  3.771895  -0.002  -0.239051  -0.041199  -0.001779  3.734788  -0.003
N  N60  1  0.80446089  0.73943908  0.93076584  1  -0.134916  0.000946  3.519999  0.002  -0.051551  0.001521  3.749423  0.003  -0.067547  0.001262  3.771772  0.002  -0.239083  -0.041317  0.001779  3.734662  0.003
N  N61  1  0.19553953  0.06923055  0.26055736  1  -0.134868  0.000948  3.520062  0.002  -0.051526  0.001519  3.749511  0.003  -0.06752  0.001263  3.771856  0.002  -0.239125  -0.041294  0.001779  3.734752  0.003
N  N62  1  0.32178850  0.30834528  0.84492888  1  -0.425004  -0.044036  3.298955  -0.067  -0.387114  -0.031228  3.620667  -0.039  -0.417028  -0.025543  3.630166  -0.031  -0.358718  -0.36491  -0.03603  3.614777  -0.046
N  N63  1  0.67821511  0.15507194  0.69165223  1  -0.424893  -0.044029  3.298693  -0.067  -0.386998  -0.031226  3.620366  -0.039  -0.416911  -0.025541  3.629865  -0.031  -0.358659  -0.364803  -0.036029  3.614485  -0.046
N  N64  1  0.67821718  0.69165179  0.15506543  1  -0.42487  0.044035  3.298988  0.067  -0.387037  0.031227  3.62068  0.039  -0.41693  0.025542  3.630159  0.031  -0.358715  -0.364852  0.036028  3.614792  0.046
N  N65  1  0.32177872  0.84493252  0.30835013  1  -0.424967  0.044027  3.298688  0.067  -0.387082  0.031226  3.620364  0.039  -0.416984  0.025541  3.629848  0.031  -0.358689  -0.364898  0.036028  3.614481  0.046
O  O66  1  0.32672405  0.63295638  0.63295549  1  -0.706258  8e-06  1.931837  0.0  -0.668754  4e-06  2.189496  0.0  -0.695043  1.1e-05  2.175242  0.0  -0.339212  -0.647083  -1e-06  2.197747  0.0
O  O67  1  0.67327434  0.36704490  0.36704357  1  -0.706236  -2e-06  1.931782  0.0  -0.668737  -4e-06  2.18947  0.0  -0.695026  -4e-06  2.175214  0.0  -0.339192  -0.647068  -2e-06  2.197723  0.0
O  O68  1  0.59276195  0.47733142  0.66925580  1  -0.724327  -0.050901  2.059658  -0.079  -0.683684  -0.039864  2.36323  -0.056  -0.724986  -0.030375  2.343446  -0.04  -0.360946  -0.648587  -0.048519  2.374866  -0.069
O  O69  1  0.40723558  0.33074501  0.52267499  1  -0.724343  -0.050901  2.059627  -0.079  -0.683685  -0.039866  2.36319  -0.056  -0.724991  -0.030372  2.343405  -0.04  -0.360976  -0.648585  -0.048525  2.374814  -0.069
O  O70  1  0.40723984  0.52267393  0.33073819  1  -0.724305  0.050899  2.059627  0.079  -0.683668  0.039865  2.3632  0.056  -0.724961  0.030367  2.343405  0.04  -0.360966  -0.648567  0.048519  2.374824  0.069
O  O71  1  0.59275526  0.66926448  0.47732387  1  -0.724333  0.050901  2.059654  0.079  -0.683713  0.03987  2.363233  0.056  -0.725006  0.030368  2.343443  0.04  -0.360977  -0.64861  0.048525  2.374859  0.069
O  O72  1  0.51706612  0.71304090  0.71303572  1  -0.683679  7e-06  1.854684  0.0  -0.643974  4e-06  2.086236  0.0  -0.668864  1.1e-05  2.071561  0.0  -0.362671  -0.62383  0.0  2.094999  0.0
O  O73  1  0.48293075  0.28696144  0.28696444  1  -0.683643  1e-06  1.854663  0.0  -0.643951  1e-06  2.08623  0.0  -0.668842  1e-06  2.071554  0.0  -0.362655  -0.623809  -0.0  2.094993  0.0
