# generated using pymatgen
data_Mn2H22C25(N2O5)2
_symmetry_space_group_name_H-M   'P 1'
_cell_length_a   8.74470756
_cell_length_b   13.23423495
_cell_length_c   12.86147422
_cell_angle_alpha   80.72995516
_cell_angle_beta   70.13218600
_cell_angle_gamma   70.71023288
_symmetry_Int_Tables_number   1
_chemical_formula_structural   Mn2H22C25(N2O5)2
_chemical_formula_sum   'Mn4 H44 C50 N8 O20'
_cell_volume   1319.27050639
_cell_formula_units_Z   2
loop_
 _symmetry_equiv_pos_site_id
 _symmetry_equiv_pos_as_xyz
  1  'x, y, z'
loop_
 _atom_site_type_symbol
 _atom_site_label
 _atom_site_symmetry_multiplicity
 _atom_site_fract_x
 _atom_site_fract_y
 _atom_site_fract_z
 _atom_site_occupancy
 _atom_site_pbe_bader_charge
 _atom_site_pbe_bader_spin_density
 _atom_site_pbe_cm5_charge
 _atom_site_pbe_ddec_charge
 _atom_site_pbe_ddec_spin_density
 _atom_site_pbe_ddec_sum_bond_order
 _atom_site_pbe_magmom
Mn  Mn0  1  0.60425783  0.84606011  0.64318198  1  1.486969  4.572552  0.597485  0.952809  4.703248  2.256184  4.476
Mn  Mn1  1  0.09343379  0.65375369  0.85697902  1  1.487872  4.573661  0.597395  0.954031  4.69587  2.25153  4.477
Mn  Mn2  1  0.39555980  0.15405351  0.35654074  1  1.488688  -4.568461  0.597316  0.952473  -4.694243  2.26089  -4.473
Mn  Mn3  1  0.90620828  0.34611814  0.14330653  1  1.48814  4.569843  0.597499  0.954331  4.691737  2.255477  4.474
H  H4  1  0.10873788  0.92064015  0.62623441  1  0.105982  0.000154  0.108498  0.105723  -0.000278  1.028283  0.0
H  H5  1  0.65561135  0.57899071  0.87377252  1  0.094191  0.000697  0.108014  0.105076  -0.00016  1.028307  0.0
H  H6  1  0.89132802  0.07935764  0.37370189  1  0.106408  6.4e-05  0.108367  0.105632  -3.5e-05  1.028036  0.0
H  H7  1  0.34432749  0.42103373  0.12630931  1  0.094947  0.000479  0.108067  0.105327  0.000158  1.028253  0.0
H  H8  1  0.83712178  0.25483171  0.59661722  1  0.081172  -0.000339  0.100328  0.104127  -6.3e-05  1.021833  0.0
H  H9  1  0.68786038  0.24492431  0.90337819  1  0.079504  0.000511  0.100146  0.103915  0.000185  1.021921  0.0
H  H10  1  0.16290495  0.74515901  0.40338720  1  0.081008  0.000464  0.100276  0.104076  0.000117  1.021963  0.0
H  H11  1  0.31218822  0.75509457  0.09661550  1  0.079693  0.000357  0.10021  0.104017  6e-05  1.021777  0.0
H  H12  1  0.58284008  0.03734479  0.81711017  1  0.068198  0.00012  0.103729  0.106678  -0.00018  1.012663  0.0
H  H13  1  0.43706401  0.46256822  0.68275121  1  0.090324  0.000172  0.105235  0.109068  -0.000134  1.013169  0.0
H  H14  1  0.41723296  0.96259096  0.18286045  1  0.068775  -4.1e-05  0.103903  0.106834  0.000177  1.012482  0.0
H  H15  1  0.56290793  0.53749034  0.31728305  1  0.09019  0.000138  0.105164  0.109045  -0.000105  1.012987  0.0
H  H16  1  0.43642280  0.22097631  0.81805062  1  0.068385  0.000167  0.098062  0.10549  -2.9e-05  0.996965  0.0
H  H17  1  0.47620184  0.27863575  0.68131706  1  0.051005  -0.000211  0.097948  0.105377  -0.000132  0.997638  0.0
H  H18  1  0.56361875  0.77902169  0.18194706  1  0.068167  0.000291  0.098172  0.105745  0.000153  0.996966  0.0
H  H19  1  0.52382383  0.72137740  0.31868883  1  0.050519  0.000135  0.097959  0.105564  -8e-06  0.997527  0.0
H  H20  1  0.39694199  0.11974783  0.66265524  1  0.147276  0.000384  0.124943  0.127629  0.000465  1.009458  0.0
H  H21  1  0.17922724  0.37999179  0.83716230  1  0.147584  0.000549  0.124431  0.127102  -2.8e-05  1.010059  0.0
H  H22  1  0.60295420  0.88031916  0.33733472  1  0.147816  -0.000365  0.124957  0.127741  -0.000453  1.009367  0.0
H  H23  1  0.82070536  0.61990431  0.16284877  1  0.148048  0.000549  0.124393  0.126858  -2e-05  1.010145  0.0
H  H24  1  0.07908069  0.18559536  0.82537022  1  0.116512  0.000862  0.12466  0.128297  0.000374  1.018015  0.0
H  H25  1  0.08959503  0.31444478  0.67441251  1  0.144474  0.000629  0.126359  0.129445  0.000526  1.017754  0.0
H  H26  1  0.92087856  0.81443105  0.17467410  1  0.117726  -0.000698  0.124725  0.128404  -0.000592  1.018146  0.0
H  H27  1  0.91040853  0.68551848  0.32553128  1  0.145405  0.000781  0.126278  0.129373  0.00038  1.017901  0.0
H  H28  1  0.25877757  0.84701987  0.83464099  1  0.183572  0.000652  0.144214  0.118171  0.000272  1.018946  0.0
H  H29  1  0.93983775  0.65299058  0.66570958  1  0.193217  0.000639  0.143827  0.118361  0.000276  1.018568  0.0
H  H30  1  0.74114391  0.15300681  0.16529040  1  0.184772  -0.000653  0.144193  0.11803  -0.001114  1.019045  0.0
H  H31  1  0.06007045  0.34696663  0.33436369  1  0.191934  0.000653  0.14388  0.118447  0.00112  1.018306  0.0
H  H32  1  0.93994187  0.94049297  0.93491185  1  0.111778  0.000211  0.121779  0.112018  -0.000315  0.981708  0.0
H  H33  1  0.81531928  0.55977745  0.56476640  1  0.108583  0.000232  0.120581  0.111196  -0.000305  0.982345  0.0
H  H34  1  0.06007355  0.05950564  0.06510632  1  0.111227  4.1e-05  0.121782  0.111809  -0.000231  0.98146  0.0
H  H35  1  0.18471399  0.44021831  0.43521480  1  0.108432  6e-06  0.120569  0.111104  0.000272  0.982138  0.0
H  H36  1  0.87492957  0.08263245  0.94547683  1  0.083125  0.000312  0.118443  0.101355  0.000141  0.984304  0.0
H  H37  1  0.90252028  0.41761476  0.55438616  1  0.090533  6.6e-05  0.117472  0.100122  0.000101  0.985768  0.0
H  H38  1  0.12505370  0.91737491  0.05454795  1  0.082502  -2.3e-05  0.118527  0.101396  -0.000136  0.984153  0.0
H  H39  1  0.09748157  0.58237629  0.44558410  1  0.090936  0.000346  0.11755  0.100223  6.8e-05  0.985783  0.0
H  H40  1  0.37278839  0.90117884  0.52245892  1  0.635976  0.000464  0.291585  0.388044  0.001078  0.950053  0.001
H  H41  1  0.79608074  0.59880653  0.97754782  1  0.638753  0.001202  0.292367  0.388187  0.000588  0.9497  0.001
H  H42  1  0.62695281  0.09877512  0.47745141  1  0.636965  -0.000453  0.291904  0.388369  -0.00104  0.949555  -0.001
H  H43  1  0.20354794  0.40123634  0.02253418  1  0.640766  0.001185  0.292224  0.388178  0.000559  0.949692  0.001
H  H44  1  0.38458445  0.78564237  0.58739289  1  0.626687  0.001172  0.293966  0.376459  0.000693  0.95261  0.001
H  H45  1  0.75757537  0.71427360  0.91246665  1  0.628972  0.00119  0.295681  0.378696  0.000718  0.949898  0.001
H  H46  1  0.61534796  0.21430538  0.41266398  1  0.62662  -0.000532  0.294344  0.376829  -0.00121  0.951941  -0.001
H  H47  1  0.24238502  0.28577552  0.08746430  1  0.629529  0.000545  0.295741  0.378604  0.001247  0.949905  0.001
C  C48  1  0.84595702  0.96847928  0.72540674  1  0.006995  0.001955  -0.018365  -0.036799  0.001532  4.022776  0.0
C  C49  1  0.53954960  0.53136330  0.77460524  1  -0.027383  0.001286  -0.017232  -0.035921  0.000939  4.022725  0.0
C  C50  1  0.15414173  0.03150028  0.27459190  1  0.002728  -0.000524  -0.018196  -0.036119  -0.001008  4.023338  0.0
C  C51  1  0.46048347  0.46867227  0.22540336  1  -0.025995  -0.00024  -0.017238  -0.036051  0.000389  4.022605  0.0
C  C52  1  0.99266819  0.98711890  0.64918292  1  -0.08786  0.001227  -0.079299  -0.109175  0.00055  3.944404  0.001
C  C53  1  0.62868389  0.51262262  0.85084850  1  -0.057647  0.006907  -0.078904  -0.107967  0.004626  3.944274  0.004
C  C54  1  0.00738087  0.01286269  0.35077127  1  -0.088483  0.004402  -0.07931  -0.109482  0.00347  3.943765  0.003
C  C55  1  0.37124502  0.48741320  0.14921670  1  -0.056585  0.001613  -0.078988  -0.108557  0.00087  3.944564  0.001
C  C56  1  0.98848663  0.09025089  0.60152731  1  -0.020233  0.001747  -0.01918  -0.03621  0.001948  4.022586  0.002
C  C57  1  0.67979428  0.40950112  0.89854444  1  0.004088  -0.001939  -0.021368  -0.039129  -0.002344  4.025308  -0.003
C  C58  1  0.01152124  0.90973407  0.39840910  1  -0.015992  -0.002634  -0.019123  -0.035804  -0.002618  4.022338  -0.003
C  C59  1  0.32009201  0.59053455  0.10153727  1  0.002711  -0.001096  -0.021498  -0.038819  -0.001674  4.025094  -0.002
C  C60  1  0.83801457  0.17471178  0.63406947  1  -0.047082  0.001511  -0.081532  -0.141887  0.001361  3.912721  0.001
C  C61  1  0.64625366  0.32507872  0.86596368  1  -0.083028  0.008366  -0.080408  -0.139524  0.006344  3.91014  0.005
C  C62  1  0.16201503  0.82526635  0.36591136  1  -0.04915  0.00639  -0.081398  -0.141796  0.004926  3.912591  0.004
C  C63  1  0.35373244  0.67494783  0.13406609  1  -0.08402  0.00045  -0.080199  -0.139406  4.4e-05  3.909729  0.0
C  C64  1  0.69146849  0.15759157  0.71314728  1  -0.005981  -0.000313  -0.008397  0.127818  -0.000373  3.972637  0.0
C  C65  1  0.56189112  0.34228287  0.78673374  1  0.002976  -0.000736  -0.006965  0.128025  -0.000726  3.971972  -0.001
C  C66  1  0.30857212  0.84238560  0.28684990  1  -0.00723  -0.001243  -0.008336  0.128122  -0.000878  3.972891  -0.001
C  C67  1  0.43811467  0.65774623  0.21328037  1  0.001605  0.000815  -0.007047  0.128001  0.000466  3.972661  0.0
C  C68  1  0.69618537  0.05336736  0.75710032  1  -0.001924  0.002967  -0.079631  -0.153416  0.002571  3.939806  0.002
C  C69  1  0.50633997  0.44651822  0.74281628  1  -0.038733  0.008016  -0.083227  -0.157688  0.006606  3.943178  0.005
C  C70  1  0.30387694  0.94659793  0.24288296  1  -0.002321  0.00488  -0.079693  -0.153593  0.003539  3.939977  0.003
C  C71  1  0.49365289  0.55351718  0.25720908  1  -0.038411  -3.7e-05  -0.083013  -0.157311  0.000336  3.942623  0.0
C  C72  1  0.53145888  0.24988594  0.74979179  1  -0.02864  0.00015  -0.155116  -0.257788  -2.2e-05  3.98045  0.0
C  C73  1  0.46859587  0.75011201  0.25021229  1  -0.027391  0.000251  -0.155344  -0.258587  0.000227  3.981443  0.0
C  C74  1  0.85190657  0.85770941  0.77498046  1  1.551643  0.018846  0.221228  0.583457  0.018697  4.189027  0.016
C  C75  1  0.48452318  0.64218058  0.72504730  1  1.551311  0.018993  0.221693  0.584508  0.018676  4.188111  0.016
C  C76  1  0.14833140  0.14228055  0.22518855  1  1.556614  0.00546  0.219912  0.581449  0.005174  4.192194  0.005
C  C77  1  0.51589085  0.35783129  0.27475799  1  1.550459  -0.005573  0.221225  0.583907  -0.005185  4.188189  -0.005
C  C78  1  0.14186331  0.11032865  0.51592567  1  1.527082  -0.011131  0.205018  0.555239  -0.012862  4.209919  -0.008
C  C79  1  0.76783392  0.38941748  0.98408442  1  1.518597  0.01136  0.204403  0.553981  0.012986  4.211764  0.009
C  C80  1  0.85814251  0.88965180  0.48397922  1  1.527041  0.011131  0.204953  0.554353  0.012884  4.211147  0.009
C  C81  1  0.23200050  0.61063146  0.01603404  1  1.51981  0.011346  0.203847  0.553382  0.013006  4.212214  0.009
C  C82  1  0.32297929  0.07316248  0.72351834  1  0.471935  0.006432  0.003319  -0.023561  0.005159  3.988375  0.005
C  C83  1  0.11938658  0.42669311  0.77642530  1  0.436362  0.006705  0.005153  -0.020176  0.00486  3.984834  0.006
C  C84  1  0.67695880  0.92687716  0.27648202  1  0.471044  -0.006289  0.003377  -0.023375  -0.005019  3.98846  -0.005
C  C85  1  0.88057652  0.57323834  0.22357669  1  0.437574  0.006632  0.005067  -0.019954  0.004789  3.984388  0.005
C  C86  1  0.16594942  0.10706491  0.80120921  1  0.237501  0.002344  0.002652  -0.116581  0.001576  3.911228  0.001
C  C87  1  0.07375939  0.39291141  0.69870591  1  0.247101  0.002303  -0.000654  -0.120492  0.001567  3.91203  0.001
C  C88  1  0.83402216  0.89295690  0.19881285  1  0.237307  -0.002112  0.002629  -0.116839  -0.001434  3.910679  -0.001
C  C89  1  0.92623432  0.60704835  0.30126861  1  0.24616  0.002257  -0.000406  -0.120424  0.001464  3.911532  0.001
C  C90  1  0.25809463  0.92939834  0.80874266  1  0.953297  0.012701  0.154262  0.100732  0.010963  3.884132  0.009
C  C91  1  0.99574036  0.57057733  0.69145069  1  0.955091  0.012746  0.154538  0.099295  0.011055  3.880868  0.009
C  C92  1  0.74187169  0.07062631  0.19123349  1  0.953027  -0.012416  0.154201  0.100677  -0.011075  3.884416  -0.009
C  C93  1  0.00423931  0.42938198  0.30856979  1  0.957968  0.012443  0.154755  0.099064  0.01119  3.880977  0.009
C  C94  1  0.97844401  0.00811432  0.94577180  1  0.29206  0.00046  -0.044968  -0.090065  0.00038  3.881925  0.0
C  C95  1  0.93208126  0.49202562  0.55414376  1  0.286488  0.000744  -0.041878  -0.087821  0.000609  3.88184  0.0
C  C96  1  0.02154679  0.99190267  0.05425138  1  0.317738  -0.000235  -0.045074  -0.089861  -0.000318  3.881639  0.0
C  C97  1  0.06793646  0.50795976  0.44583394  1  0.307024  0.000858  -0.041943  -0.087845  0.000731  3.882074  0.001
N  N98  1  0.37951708  0.96218808  0.72987483  1  -1.267011  0.053356  -0.357277  -0.32435  0.033352  3.572474  0.006
N  N99  1  0.07128666  0.53765650  0.77022830  1  -1.2802  0.053789  -0.357522  -0.324931  0.033369  3.567495  0.006
N  N100  1  0.62043723  0.03784949  0.27009113  1  -1.269218  -0.053393  -0.357242  -0.324244  -0.03337  3.573278  -0.006
N  N101  1  0.92867996  0.46227621  0.22980926  1  -1.282504  0.053728  -0.357549  -0.324599  0.033413  3.567553  0.006
N  N102  1  0.12660628  0.01495532  0.85332122  1  -1.248162  0.005145  -0.2449  0.051699  0.002882  3.794515  0.003
N  N103  1  0.99429602  0.48510726  0.64676699  1  -1.246001  0.00533  -0.245062  0.053309  0.003026  3.794001  0.003
N  N104  1  0.87336995  0.98506741  0.14668878  1  -1.248113  -0.004976  -0.245  0.051608  -0.002813  3.794339  -0.003
N  N105  1  0.00571180  0.51485801  0.35321754  1  -1.247087  0.005188  -0.245377  0.052956  0.002998  3.7946  0.003
O  O106  1  0.72836753  0.82120125  0.78823062  1  -1.196529  0.051111  -0.300579  -0.56844  0.036886  2.216407  0.025
O  O107  1  0.33781871  0.67879460  0.71165510  1  -1.188469  0.050952  -0.301748  -0.570242  0.036768  2.214348  0.025
O  O108  1  0.27210509  0.17859029  0.21190399  1  -1.197052  -0.030907  -0.300538  -0.568079  -0.022732  2.219025  -0.01
O  O109  1  0.66260017  0.32144132  0.28818486  1  -1.189769  0.030707  -0.301833  -0.5701  0.022544  2.215715  0.01
O  O110  1  0.98620917  0.80703426  0.80196226  1  -1.199279  0.074328  -0.314903  -0.548166  0.049643  2.355445  0.032
O  O111  1  0.59521730  0.69278015  0.69819604  1  -1.180807  0.07358  -0.314141  -0.54726  0.049247  2.356666  0.031
O  O112  1  0.01394743  0.19321332  0.19841879  1  -1.199597  0.060415  -0.31413  -0.547012  0.040088  2.358223  0.021
O  O113  1  0.40564189  0.30693118  0.30135928  1  -1.179945  -0.060047  -0.313467  -0.546384  -0.039878  2.359201  -0.021
O  O114  1  0.27956595  0.03336911  0.48441657  1  -1.20501  -0.047247  -0.299454  -0.55167  -0.033802  2.240602  -0.022
O  O115  1  0.79686236  0.46645756  0.01564036  1  -1.196171  0.048831  -0.298276  -0.55086  0.034035  2.240264  0.023
O  O116  1  0.72041763  0.96661787  0.51547673  1  -1.204437  0.047424  -0.299523  -0.551555  0.033969  2.241315  0.022
O  O117  1  0.20293469  0.53359044  0.98449278  1  -1.196965  0.049081  -0.298117  -0.550552  0.034123  2.240897  0.023
O  O118  1  0.13439820  0.20531818  0.47226086  1  -1.195925  -0.050966  -0.320831  -0.561574  -0.033832  2.191525  -0.022
O  O119  1  0.81207391  0.29441364  0.02759832  1  -1.193057  0.050992  -0.320506  -0.560602  0.034007  2.190061  0.022
O  O120  1  0.86558826  0.79467042  0.52763155  1  -1.196978  0.050995  -0.320835  -0.561144  0.033578  2.191431  0.022
O  O121  1  0.18774127  0.70563197  0.97253270  1  -1.19298  0.051157  -0.320181  -0.560431  0.033903  2.189176  0.023
O  O122  1  0.45241534  0.82990792  0.53531224  1  -1.267787  0.059336  -0.567247  -0.75521  0.043571  2.070765  0.032
O  O123  1  0.81743800  0.67001967  0.96464741  1  -1.273107  0.060302  -0.569884  -0.758103  0.043874  2.068965  0.033
O  O124  1  0.54738590  0.17006674  0.46461188  1  -1.269137  -0.058275  -0.567659  -0.755699  -0.042951  2.069904  -0.031
O  O125  1  0.18230510  0.32999787  0.03540209  1  -1.275808  0.059191  -0.569666  -0.758138  0.043348  2.068389  0.032
