# generated using pymatgen
data_CdH23C25(NO2)3
_symmetry_space_group_name_H-M   'P 1'
_cell_length_a   9.59860866
_cell_length_b   11.75201743
_cell_length_c   12.22150000
_cell_angle_alpha   77.96270382
_cell_angle_beta   71.21484454
_cell_angle_gamma   70.88740895
_symmetry_Int_Tables_number   1
_chemical_formula_structural   CdH23C25(NO2)3
_chemical_formula_sum   'Cd2 H46 C50 N6 O12'
_cell_volume   1225.02083981
_cell_formula_units_Z   2
loop_
 _symmetry_equiv_pos_site_id
 _symmetry_equiv_pos_as_xyz
  1  'x, y, z'
loop_
 _atom_site_type_symbol
 _atom_site_label
 _atom_site_symmetry_multiplicity
 _atom_site_fract_x
 _atom_site_fract_y
 _atom_site_fract_z
 _atom_site_occupancy
 _atom_site_hle17_bader_spin_density
 _atom_site_hle17_ddec_charge
 _atom_site_hle17_ddec_spin_density
 _atom_site_hle17_ddec_sum_bond_order
 _atom_site_hle17_magmom
 _atom_site_hse06_10hf_bader_spin_density
 _atom_site_hse06_10hf_ddec_charge
 _atom_site_hse06_10hf_ddec_spin_density
 _atom_site_hse06_10hf_ddec_sum_bond_order
 _atom_site_hse06_10hf_magmom
 _atom_site_hse06_bader_spin_density
 _atom_site_hse06_ddec_charge
 _atom_site_hse06_ddec_spin_density
 _atom_site_hse06_ddec_sum_bond_order
 _atom_site_hse06_magmom
 _atom_site_pbe_bader_charge
 _atom_site_pbe_bader_spin_density
 _atom_site_pbe_cm5_charge
 _atom_site_pbe_ddec_charge
 _atom_site_pbe_ddec_spin_density
 _atom_site_pbe_ddec_sum_bond_order
 _atom_site_pbe_magmom
Cd  Cd0  1  0.77421051  0.27261978  0.21108878  1  0  1.027925  0  1.72554  0  0  0.821547  0  2.169641  0  0  0.881622  0  2.122176  0  1.235838  0  0.74786  0.779309  0  2.201396  0
Cd  Cd1  1  0.22579038  0.72737954  0.78891260  1  0  1.028003  0  1.725454  0  0  0.821622  0  2.169555  0  0  0.881694  0  2.12209  0  1.235979  0  0.747871  0.779381  0  2.201311  0
H  H2  1  0.61405885  0.91066093  0.28477928  1  0  0.067807  0  0.956635  0  0  0.075367  0  1.031278  0  0  0.076746  0  1.030289  0  0.066731  0  0.098514  0.07442  0  1.031919  0
H  H3  1  0.38594630  0.08933566  0.71522158  1  0  0.067837  0  0.95654  0  0  0.07539  0  1.031208  0  0  0.076766  0  1.030221  0  0.066548  0  0.098528  0.074446  0  1.031846  0
H  H4  1  0.46908440  0.00437707  0.38630912  1  0  0.100193  0  0.894971  0  0  0.117137  0  0.945972  0  0  0.118894  0  0.944372  0  0.080121  0  0.119011  0.115761  0  0.947339  0
H  H5  1  0.53091901  0.99562133  0.61369181  1  0  0.100198  0  0.894958  0  0  0.117138  0  0.945974  0  0  0.118893  0  0.944374  0  0.080004  0  0.119005  0.11576  0  0.94734  0
H  H6  1  0.70941276  0.94253525  0.09644531  1  0  0.097038  0  0.983018  0  0  0.107323  0  1.047032  0  0  0.109473  0  1.047159  0  0.052236  0  0.098855  0.105627  0  1.047227  0
H  H7  1  0.29059790  0.05746135  0.90355252  1  0  0.096995  0  0.982974  0  0  0.107303  0  1.046962  0  0  0.109452  0  1.047083  0  0.0523  0  0.098835  0.105604  0  1.04716  0
H  H8  1  0.22800223  0.06965242  0.11554460  1  0  0.119891  0  0.947383  0  0  0.129283  0  1.008362  0  0  0.133111  0  1.00598  0  0.120378  0  0.105619  0.126649  0  1.009881  0
H  H9  1  0.77200797  0.93034236  0.88445288  1  0  0.119914  0  0.947312  0  0  0.12924  0  1.008379  0  0  0.133072  0  1.005994  0  0.120591  0  0.105593  0.126605  0  1.009895  0
H  H10  1  0.28649461  0.26505781  0.19984367  1  0  0.108624  0  0.935408  0  0  0.116547  0  1.004277  0  0  0.119116  0  1.002369  0  0.123564  0  0.113706  0.114471  0  1.006201  0
H  H11  1  0.71350615  0.73493879  0.80015747  1  0  0.108616  0  0.935401  0  0  0.116531  0  1.004288  0  0  0.119102  0  1.002374  0  0.123564  0  0.113699  0.114454  0  1.006211  0
H  H12  1  0.20105654  0.22318639  0.34717876  1  0  0.086939  0  0.918908  0  0  0.096925  0  0.980869  0  0  0.099557  0  0.977644  0  0.07615  0  0.106267  0.095094  0  0.983154  0
H  H13  1  0.79894467  0.77681202  0.65282273  1  0  0.086914  0  0.918914  0  0  0.096885  0  0.980888  0  0  0.099521  0  0.977664  0  0.076189  0  0.106251  0.095054  0  0.983172  0
H  H14  1  0.98670016  0.30253493  0.46676588  1  0  0.103021  0  0.975293  0  0  0.114139  0  1.035754  0  0  0.116932  0  1.034234  0  0.085916  0  0.103207  0.112153  0  1.036773  0
H  H15  1  0.01329963  0.69746439  0.53323497  1  0  0.103007  0  0.975249  0  0  0.11414  0  1.035701  0  0  0.116932  0  1.034183  0  0.085946  0  0.103191  0.112152  0  1.036723  0
H  H16  1  0.17567740  0.60711515  0.35283833  1  0  0.101488  0  0.959116  0  0  0.110817  0  1.023904  0  0  0.113831  0  1.023204  0  0.067158  0  0.100523  0.108606  0  1.024614  0
H  H17  1  0.82432271  0.39288326  0.64716098  1  0  0.101482  0  0.959098  0  0  0.110804  0  1.023897  0  0  0.113816  0  1.023203  0  0.067136  0  0.100518  0.108593  0  1.024606  0
H  H18  1  0.81326504  0.18962398  0.46372110  1  0  0.086772  0  0.930859  0  0  0.09688  0  0.98867  0  0  0.099521  0  0.986378  0  0.120898  0  0.11839  0.094908  0  0.990311  0
H  H19  1  0.18673196  0.81037080  0.53627563  1  0  0.086775  0  0.930891  0  0  0.09691  0  0.988675  0  0  0.099551  0  0.986383  0  0.120906  0  0.118403  0.094938  0  0.990318  0
H  H20  1  0.67485408  0.19149793  0.67708839  1  0  0.109453  0  0.939375  0  0  0.120964  0  0.992902  0  0  0.12413  0  0.992377  0  0.114186  0  0.110444  0.118671  0  0.993498  0
H  H21  1  0.32514215  0.80849595  0.32290790  1  0  0.109424  0  0.939481  0  0  0.120944  0  0.992988  0  0  0.124109  0  0.992465  0  0.113872  0  0.110462  0.118652  0  0.993582  0
H  H22  1  0.40018408  0.31518746  0.73550139  1  0  0.082168  0  0.975889  0  0  0.093819  0  1.037559  0  0  0.095369  0  1.038047  0  0.102089  0  0.100711  0.092702  0  1.03728  0
H  H23  1  0.59981585  0.68481457  0.26449560  1  0  0.08219  0  0.975853  0  0  0.093835  0  1.037532  0  0  0.095383  0  1.038022  0  0.102021  0  0.100716  0.09272  0  1.037249  0
H  H24  1  0.27445952  0.43332587  0.57783145  1  0  0.106148  0  0.95857  0  0  0.115209  0  1.020188  0  0  0.117382  0  1.021428  0  0.102279  0  0.104653  0.114061  0  1.018592  0
H  H25  1  0.72554690  0.56668885  0.42216626  1  0  0.10618  0  0.958481  0  0  0.115244  0  1.020097  0  0  0.117417  0  1.021337  0  0.102283  0  0.104677  0.114098  0  1.0185  0
H  H26  1  0.42950343  0.42249470  0.37129732  1  0  0.070626  0  0.96764  0  0  0.076104  0  1.040703  0  0  0.078201  0  1.038977  0  0.083386  0  0.110901  0.074677  0  1.041859  0
H  H27  1  0.57050441  0.57751912  0.62870022  1  0  0.070643  0  0.967466  0  0  0.076128  0  1.040523  0  0  0.078223  0  1.038792  0  0.083517  0  0.110923  0.074702  0  1.041679  0
H  H28  1  0.43336505  0.41542774  0.18877260  1  0  0.091756  0  0.972074  0  0  0.09568  0  1.043154  0  0  0.099141  0  1.039283  0  0.137027  0  0.117031  0.093167  0  1.045893  0
H  H29  1  0.56663364  0.58457158  0.81122771  1  0  0.091718  0  0.972088  0  0  0.095639  0  1.043183  0  0  0.099103  0  1.039304  0  0.13707  0  0.11699  0.093123  0  1.045928  0
H  H30  1  0.27650193  0.61806781  0.12486984  1  0  0.100728  0  0.973107  0  0  0.108568  0  1.036859  0  0  0.110638  0  1.038401  0  0.114642  0  0.102785  0.106814  0  1.036491  0
H  H31  1  0.72349709  0.38193060  0.87512647  1  0  0.100757  0  0.973074  0  0  0.10859  0  1.036832  0  0  0.110661  0  1.038373  0  0.114679  0  0.102805  0.106837  0  1.036463  0
H  H32  1  0.40906025  0.78170041  0.02426990  1  0  0.093564  0  0.968412  0  0  0.100458  0  1.036906  0  0  0.10221  0  1.036734  0  0.122044  0  0.102729  0.099283  0  1.036648  0
H  H33  1  0.59093766  0.21829799  0.97572914  1  0  0.093547  0  0.968398  0  0  0.100442  0  1.036875  0  0  0.102195  0  1.036702  0  0.122059  0  0.102725  0.099263  0  1.036638  0
H  H34  1  0.68915594  0.73424796  0.00413148  1  0  0.097821  0  0.978157  0  0  0.108146  0  1.038647  0  0  0.109794  0  1.040565  0  0.108707  0  0.102629  0.106732  0  1.037991  0
H  H35  1  0.31084023  0.26575227  0.99587419  1  0  0.097852  0  0.978087  0  0  0.108147  0  1.038616  0  0  0.109812  0  1.040512  0  0.108716  0  0.10262  0.106734  0  1.03796  0
H  H36  1  0.82477199  0.52945017  0.08759091  1  0  0.079028  0  0.985611  0  0  0.088074  0  1.05285  0  0  0.090425  0  1.05014  0  0.099356  0  0.112731  0.08629  0  1.054917  0
H  H37  1  0.17522560  0.47054914  0.91241295  1  0  0.078997  0  0.985573  0  0  0.088049  0  1.052809  0  0  0.0904  0  1.050099  0  0.099354  0  0.11272  0.086266  0  1.054874  0
H  H38  1  0.84565609  0.08259780  0.02478951  1  0  0.069726  0  0.966169  0  0  0.076498  0  1.036365  0  0  0.078292  0  1.03561  0  0.100245  0  0.110459  0.075272  0  1.036745  0
H  H39  1  0.15433690  0.91740515  0.97521314  1  0  0.069804  0  0.966085  0  0  0.076509  0  1.036349  0  0  0.078305  0  1.035589  0  0.100371  0  0.110443  0.075284  0  1.036731  0
H  H40  1  0.97480914  0.04852406  0.81474776  1  0  0.12449  0  0.933414  0  0  0.136456  0  0.986035  0  0  0.139776  0  0.984938  0  0.116109  0  0.115683  0.134103  0  0.986921  0
H  H41  1  0.02518386  0.95147888  0.18525489  1  0  0.124496  0  0.933422  0  0  0.13646  0  0.986068  0  0  0.13978  0  0.984971  0  0.116043  0  0.115692  0.134105  0  0.986954  0
H  H42  1  0.10513736  0.19945155  0.68407047  1  0  0.100495  0  0.927727  0  0  0.113582  0  0.981012  0  0  0.116581  0  0.978767  0  0.111555  0  0.110953  0.111394  0  0.982639  0
H  H43  1  0.89486069  0.80054958  0.31593127  1  0  0.100578  0  0.927679  0  0  0.113619  0  0.981024  0  0  0.116614  0  0.978782  0  0.111509  0  0.11097  0.111431  0  0.98265  0
H  H44  1  0.10310417  0.37929874  0.77016903  1  0  0.115602  0  0.955962  0  0  0.123569  0  1.01896  0  0  0.127203  0  1.017519  0  0.122011  0  0.108417  0.121125  0  1.019842  0
H  H45  1  0.89688695  0.62070330  0.22983265  1  0  0.115629  0  0.955898  0  0  0.123603  0  1.018896  0  0  0.127236  0  1.017456  0  0.122138  0  0.108424  0.121156  0  1.019782  0
H  H46  1  0.98559090  0.38984524  0.98244750  1  0  0.075654  0  0.962603  0  0  0.082271  0  1.032884  0  0  0.084852  0  1.030207  0  0.095239  0  0.11369  0.080263  0  1.035164  0
H  H47  1  0.01439673  0.61016042  0.01755188  1  0  0.075629  0  0.962644  0  0  0.082316  0  1.032855  0  0  0.084899  0  1.030172  0  0.095546  0  0.113687  0.080307  0  1.035135  0
C  C48  1  0.61667981  0.09791302  0.25483233  1  0  0.618504  0  3.951303  0  0  0.573876  0  4.250793  0  0  0.605769  0  4.246839  0  1.580289  0  0.175306  0.55238  0  4.252373  0
C  C49  1  0.38332535  0.90208357  0.74516771  1  0  0.618359  0  3.951497  0  0  0.573725  0  4.251002  0  0  0.605615  0  4.247052  0  1.580599  0  0.175238  0.552226  0  4.252582  0
C  C50  1  0.53051774  0.00082863  0.29349232  1  0  -0.058738  0  3.656033  0  0  -0.117241  0  3.925296  0  0  -0.113504  0  3.925486  0  0.40883  0  -0.069012  -0.119855  0  3.925035  0
C  C51  1  0.46948852  0.99916796  0.70650744  1  0  -0.058774  0  3.656007  0  0  -0.117267  0  3.925277  0  0  -0.113523  0  3.925458  0  0.409363  0  -0.069071  -0.119879  0  3.92501  0
C  C52  1  0.46319701  0.00753749  0.11977489  1  0  0.252702  0  3.811773  0  0  0.243518  0  4.072883  0  0  0.253069  0  4.089178  0  0.42918  0  0.071767  0.236688  0  4.062129  0
C  C53  1  0.53681333  0.99246001  0.88022366  1  0  0.252809  0  3.811585  0  0  0.243562  0  4.072814  0  0  0.253093  0  4.089136  0  0.428892  0  0.071708  0.236739  0  4.062049  0
C  C54  1  0.61693062  0.96884303  0.05488582  1  0  -0.192135  0  3.794254  0  0  -0.209988  0  4.046568  0  0  -0.213172  0  4.066167  0  -0.060619  0  -0.113426  -0.207852  0  4.033524  0
C  C55  1  0.38308082  0.03115447  0.94511162  1  0  -0.192138  0  3.794203  0  0  -0.209979  0  4.046518  0  0  -0.213154  0  4.066119  0  -0.060687  0  -0.113445  -0.207845  0  4.033473  0
C  C56  1  0.34691390  0.03829215  0.06408856  1  0  -0.169623  0  3.755744  0  0  -0.189108  0  4.00937  0  0  -0.191925  0  4.026665  0  -0.002402  0  -0.106567  -0.187188  0  3.997589  0
C  C57  1  0.65309786  0.96170444  0.93590899  1  0  -0.169591  0  3.755597  0  0  -0.189022  0  4.009283  0  0  -0.191835  0  4.026584  0  -0.002322  0  -0.106496  -0.187103  0  3.997496  0
C  C58  1  0.04029389  0.29944704  0.24288669  1  0  0.631667  0  3.92965  0  0  0.585327  0  4.233331  0  0  0.617332  0  4.229015  0  1.566927  0  0.179677  0.5637  0  4.235129  0
C  C59  1  0.95970512  0.70055137  0.75711535  1  0  0.631789  0  3.929545  0  0  0.585444  0  4.233229  0  0  0.61745  0  4.228905  0  1.567381  0  0.179721  0.563816  0  4.235027  0
C  C60  1  0.18568244  0.29295577  0.27321855  1  0  -0.064113  0  3.620041  0  0  -0.123229  0  3.887802  0  0  -0.119836  0  3.886655  0  0.384296  0  -0.071462  -0.125522  0  3.888778  0
C  C61  1  0.81431799  0.70704173  0.72678250  1  0  -0.064059  0  3.619928  0  0  -0.12314  0  3.887648  0  0  -0.119715  0  3.886514  0  0.384323  0  -0.071414  -0.125429  0  3.888621  0
C  C62  1  0.09303023  0.44942894  0.39697984  1  0  0.245665  0  3.830926  0  0  0.234533  0  4.094247  0  0  0.243631  0  4.11123  0  0.428485  0  0.068018  0.227924  0  4.083004  0
C  C63  1  0.90697098  0.55056947  0.60302000  1  0  0.245669  0  3.831071  0  0  0.234532  0  4.094396  0  0  0.24367  0  4.111377  0  0.428483  0  0.068024  0.227923  0  4.083152  0
C  C64  1  0.99393941  0.38876638  0.48042069  1  0  -0.193343  0  3.799129  0  0  -0.212069  0  4.051603  0  0  -0.215477  0  4.071563  0  -0.044558  0  -0.113676  -0.209763  0  4.037686  0
C  C65  1  0.00606102  0.61123112  0.51957954  1  0  -0.193378  0  3.799181  0  0  -0.21212  0  4.051654  0  0  -0.215527  0  4.071609  0  -0.044664  0  -0.113666  -0.209812  0  4.037735  0
C  C66  1  0.09800557  0.56059649  0.41759801  1  0  -0.168523  0  3.793084  0  0  -0.189022  0  4.051665  0  0  -0.191807  0  4.070684  0  -0.016363  0  -0.108932  -0.186965  0  4.038634  0
C  C67  1  0.90199455  0.43940192  0.58240129  1  0  -0.168522  0  3.79315  0  0  -0.189021  0  4.051751  0  0  -0.191801  0  4.070755  0  -0.016449  0  -0.108911  -0.186964  0  4.038721  0
C  C68  1  0.69451897  0.24369554  0.49392573  1  0  0.123389  0  3.703501  0  0  0.095741  0  3.949056  0  0  0.101742  0  3.969186  0  0.512123  0  0.04833  0.091974  0  3.934889  0
C  C69  1  0.30548211  0.75630014  0.50607142  1  0  0.123395  0  3.703546  0  0  0.095692  0  3.949138  0  0  0.101693  0  3.969267  0  0.512083  0  0.048348  0.091922  0  3.934973  0
C  C70  1  0.61715077  0.24514701  0.61184119  1  0  -0.121858  0  3.737431  0  0  -0.132275  0  3.985662  0  0  -0.13949  0  4.007635  0  -0.071042  0  -0.084176  -0.127754  0  3.970972  0
C  C71  1  0.38284857  0.75485049  0.38815604  1  0  -0.121836  0  3.737434  0  0  -0.13225  0  3.985674  0  0  -0.139464  0  4.007647  0  -0.070749  0  -0.084216  -0.127731  0  3.970985  0
C  C72  1  0.46383335  0.31329901  0.64395221  1  0  -0.014158  0  3.740395  0  0  -0.032457  0  3.986125  0  0  -0.029448  0  4.006323  0  -0.11558  0  -0.072188  -0.03415  0  3.972408  0
C  C73  1  0.53616877  0.68670302  0.35604586  1  0  -0.014132  0  3.740377  0  0  -0.032421  0  3.986093  0  0  -0.029415  0  4.006298  0  -0.114937  0  -0.072137  -0.034113  0  3.972375  0
C  C74  1  0.39368768  0.37826974  0.55728872  1  0  -0.123461  0  3.733968  0  0  -0.132312  0  3.978052  0  0  -0.139966  0  4.001022  0  -0.008692  0  -0.085155  -0.127266  0  3.96191  0
C  C75  1  0.60631627  0.62173954  0.44270907  1  0  -0.123569  0  3.733889  0  0  -0.132437  0  3.977986  0  0  -0.14009  0  4.000952  0  -0.009376  0  -0.085255  -0.127389  0  3.961843  0
C  C76  1  0.48017831  0.37287546  0.44146600  1  0  0.126798  0  3.712148  0  0  0.096473  0  3.961449  0  0  0.103352  0  3.981142  0  0.457691  0  0.045012  0.091912  0  3.948004  0
C  C77  1  0.51982674  0.62713383  0.55853151  1  0  0.126946  0  3.711915  0  0  0.096622  0  3.96122  0  0  0.103507  0  3.980905  0  0.457454  0  0.04507  0.09206  0  3.947776  0
C  C78  1  0.48474270  0.48955696  0.15032017  1  0  0.115154  0  3.704674  0  0  0.083287  0  3.958017  0  0  0.090775  0  3.975572  0  0.458535  0  0.041784  0.078545  0  3.94583  0
C  C79  1  0.51525631  0.51044145  0.84968023  1  0  0.115174  0  3.70468  0  0  0.083306  0  3.958014  0  0  0.090794  0  3.975567  0  0.458172  0  0.041778  0.078562  0  3.945826  0
C  C80  1  0.39828473  0.60301912  0.11284497  1  0  -0.123555  0  3.722755  0  0  -0.133586  0  3.971781  0  0  -0.141137  0  3.994025  0  -0.053251  0  -0.085885  -0.128732  0  3.95703  0
C  C81  1  0.60171428  0.39697929  0.88715217  1  0  -0.123597  0  3.722716  0  0  -0.133633  0  3.971768  0  0  -0.141186  0  3.994012  0  -0.05323  0  -0.085911  -0.128778  0  3.957015  0
C  C82  1  0.47115756  0.69308459  0.05826047  1  0  0.011201  0  3.693459  0  0  -0.007246  0  3.937966  0  0  -0.003103  0  3.956679  0  -0.009712  0  -0.060958  -0.009472  0  3.924827  0
C  C83  1  0.52884145  0.30691381  0.94173911  1  0  0.011262  0  3.693296  0  0  -0.007153  0  3.937787  0  0  -0.003011  0  3.956507  0  -0.009738  0  -0.06093  -0.009386  0  3.924653  0
C  C84  1  0.62785384  0.66656195  0.04570910  1  0  -0.124602  0  3.736869  0  0  -0.133337  0  3.9809  0  0  -0.14123  0  4.00375  0  -0.079467  0  -0.08654  -0.128221  0  3.965847  0
C  C85  1  0.37214297  0.33343646  0.95429350  1  0  -0.124654  0  3.736729  0  0  -0.133385  0  3.980769  0  0  -0.141294  0  4.003617  0  -0.07989  0  -0.086511  -0.128264  0  3.965704  0
C  C86  1  0.70459798  0.55268276  0.08976181  1  0  0.106773  0  3.72842  0  0  0.075711  0  3.976242  0  0  0.082622  0  3.995359  0  0.451951  0  0.039553  0.07119  0  3.963305  0
C  C87  1  0.29540071  0.44731656  0.91024176  1  0  0.106831  0  3.728354  0  0  0.075771  0  3.976167  0  0  0.082679  0  3.995291  0  0.452549  0  0.039539  0.07125  0  3.963229  0
C  C88  1  0.90742786  0.14407539  0.96519809  1  0  0.113161  0  3.727792  0  0  0.085984  0  3.977621  0  0  0.09192  0  3.99762  0  0.463459  0  0.043997  0.082372  0  3.96357  0
C  C89  1  0.09256514  0.85592755  0.03480374  1  0  0.113211  0  3.727885  0  0  0.086092  0  3.977697  0  0  0.092028  0  3.997696  0  0.463415  0  0.044045  0.082478  0  3.963648  0
C  C90  1  0.97678962  0.12664234  0.84840494  1  0  -0.12328  0  3.723298  0  0  -0.134902  0  3.970846  0  0  -0.141425  0  3.991732  0  -0.107295  0  -0.081893  -0.130835  0  3.956609  0
C  C91  1  0.02320448  0.87336060  0.15159662  1  0  -0.123336  0  3.723361  0  0  -0.134971  0  3.970889  0  0  -0.141494  0  3.991774  0  -0.107214  0  -0.081935  -0.130902  0  3.956653  0
C  C92  1  0.05080951  0.21049668  0.77589753  1  0  -0.006743  0  3.725889  0  0  -0.025155  0  3.974868  0  0  -0.021774  0  3.992666  0  -0.015905  0  -0.063773  -0.026806  0  3.962602  0
C  C93  1  0.94918413  0.78950445  0.22410450  1  0  -0.0068  0  3.725788  0  0  -0.025175  0  3.974789  0  0  -0.021791  0  3.992582  0  -0.016202  0  -0.0638  -0.026827  0  3.962524  0
C  C94  1  0.05315618  0.30806611  0.82303800  1  0  -0.1255  0  3.726111  0  0  -0.139141  0  3.981537  0  0  -0.145622  0  4.00185  0  -0.052973  0  -0.083962  -0.135237  0  3.968464  0
C  C95  1  0.94683572  0.69193684  0.17696248  1  0  -0.125601  0  3.726058  0  0  -0.139272  0  3.981516  0  0  -0.145752  0  4.001827  0  -0.05302  0  -0.083985  -0.135367  0  3.968445  0
C  C96  1  0.98453814  0.31636967  0.94146339  1  0  0.124027  0  3.703647  0  0  0.093779  0  3.955252  0  0  0.100512  0  3.973409  0  0.480663  0  0.045007  0.089079  0  3.943773  0
C  C97  1  0.01545124  0.68363417  0.05853837  1  0  0.124149  0  3.70344  0  0  0.093878  0  3.954972  0  0  0.100611  0  3.973131  0  0.480772  0  0.045067  0.089179  0  3.943492  0
N  N98  1  0.62771609  0.30708244  0.40993208  1  0  -0.325006  0  3.23305  0  0  -0.247888  0  3.490119  0  0  -0.267644  0  3.510618  0  -1.20815  0  -0.321528  -0.234392  0  3.475595  0
N  N99  1  0.37228649  0.69292141  0.59006551  1  0  -0.325183  0  3.233087  0  0  -0.248031  0  3.490144  0  0  -0.267785  0  3.510638  0  -1.207877  0  -0.321604  -0.234535  0  3.475621  0
N  N100  1  0.63505907  0.46502340  0.14052255  1  0  -0.333294  0  3.269122  0  0  -0.253119  0  3.531898  0  0  -0.274231  0  3.552547  0  -1.243499  0  -0.330947  -0.238801  0  3.51746  0
N  N101  1  0.36493742  0.53497591  0.85947995  1  0  -0.333332  0  3.269147  0  0  -0.253129  0  3.531878  0  0  -0.274242  0  3.552529  0  -1.24338  0  -0.330909  -0.238808  0  3.517437  0
N  N102  1  0.91216154  0.23640102  0.01173010  1  0  -0.33109  0  3.232323  0  0  -0.254924  0  3.491821  0  0  -0.273857  0  3.510874  0  -1.218961  0  -0.32719  -0.241862  0  3.478532  0
N  N103  1  0.08782972  0.76360373  0.98827100  1  0  -0.331203  0  3.232146  0  0  -0.255038  0  3.491648  0  0  -0.273973  0  3.510703  0  -1.219249  0  -0.327211  -0.241978  0  3.478365  0
O  O104  1  0.74090901  0.07061614  0.28341842  1  0  -0.638332  0  1.929066  0  0  -0.58124  0  2.161167  0  0  -0.60936  0  2.153246  0  -1.1711  0  -0.343558  -0.561881  0  2.165885  0
O  O105  1  0.25909693  0.92938136  0.71658123  1  0  -0.638227  0  1.929136  0  0  -0.581134  0  2.161241  0  0  -0.609259  0  2.153332  0  -1.171503  0  -0.343497  -0.561774  0  2.165961  0
O  O106  1  0.56106127  0.19825212  0.20033546  1  0  -0.629944  0  1.950755  0  0  -0.571689  0  2.188864  0  0  -0.599228  0  2.182573  0  -1.176113  0  -0.330284  -0.552151  0  2.192427  0
O  O107  1  0.43894201  0.80174357  0.79966523  1  0  -0.629934  0  1.950794  0  0  -0.571679  0  2.188922  0  0  -0.599215  0  2.182634  0  -1.176254  0  -0.330287  -0.55214  0  2.192482  0
O  O108  1  0.41553915  0.01725717  0.23695088  1  0  -0.267885  0  2.348156  0  0  -0.203925  0  2.586471  0  0  -0.220325  0  2.588362  0  -1.088976  0  -0.185053  -0.192341  0  2.584545  0
O  O109  1  0.58447106  0.98273761  0.76304661  1  0  -0.267874  0  2.348066  0  0  -0.203918  0  2.586425  0  0  -0.22031  0  2.588315  0  -1.089058  0  -0.184937  -0.192337  0  2.584496  0
O  O110  1  0.00429404  0.19985861  0.26377295  1  0  -0.641361  0  1.936277  0  0  -0.581172  0  2.176034  0  0  -0.609287  0  2.165116  0  -1.158184  0  -0.347303  -0.561611  0  2.182429  0
O  O111  1  0.99570749  0.80013889  0.73622619  1  0  -0.641454  0  1.936216  0  0  -0.581268  0  2.175985  0  0  -0.609381  0  2.165062  0  -1.158696  0  -0.347344  -0.561707  0  2.182383  0
O  O112  1  0.96576362  0.39847065  0.19877818  1  0  -0.640374  0  1.925022  0  0  -0.588503  0  2.161863  0  0  -0.614217  0  2.154072  0  -1.198795  0  -0.337656  -0.569901  0  2.166278  0
O  O113  1  0.03423254  0.60152957  0.80122668  1  0  -0.640426  0  1.925033  0  0  -0.588582  0  2.161933  0  0  -0.614292  0  2.154127  0  -1.198844  0  -0.337671  -0.56998  0  2.166349  0
O  O114  1  0.18935945  0.40662372  0.29485909  1  0  -0.269114  0  2.358508  0  0  -0.200065  0  2.59609  0  0  -0.216453  0  2.598666  0  -1.078563  0  -0.183099  -0.188757  0  2.594429  0
O  O115  1  0.81064098  0.59337378  0.70514196  1  0  -0.269131  0  2.358507  0  0  -0.200085  0  2.596095  0  0  -0.216567  0  2.598722  0  -1.078583  0  -0.183141  -0.188777  0  2.594435  0
