# generated using pymatgen
data_CdH12(CO)6
_symmetry_space_group_name_H-M   'P 1'
_cell_length_a   5.51512811
_cell_length_b   8.79190305
_cell_length_c   10.99803082
_cell_angle_alpha   94.14978896
_cell_angle_beta   90.01994639
_cell_angle_gamma   108.29462704
_symmetry_Int_Tables_number   1
_chemical_formula_structural   CdH12(CO)6
_chemical_formula_sum   'Cd2 H24 C12 O12'
_cell_volume   504.84590345
_cell_formula_units_Z   2
loop_
 _symmetry_equiv_pos_site_id
 _symmetry_equiv_pos_as_xyz
  1  'x, y, z'
loop_
 _atom_site_type_symbol
 _atom_site_label
 _atom_site_symmetry_multiplicity
 _atom_site_fract_x
 _atom_site_fract_y
 _atom_site_fract_z
 _atom_site_occupancy
 _atom_site_hle17_bader_spin_density
 _atom_site_hle17_ddec_charge
 _atom_site_hle17_ddec_spin_density
 _atom_site_hle17_ddec_sum_bond_order
 _atom_site_hle17_magmom
 _atom_site_hse06_10hf_bader_spin_density
 _atom_site_hse06_10hf_ddec_charge
 _atom_site_hse06_10hf_ddec_spin_density
 _atom_site_hse06_10hf_ddec_sum_bond_order
 _atom_site_hse06_10hf_magmom
 _atom_site_hse06_bader_spin_density
 _atom_site_hse06_ddec_charge
 _atom_site_hse06_ddec_spin_density
 _atom_site_hse06_ddec_sum_bond_order
 _atom_site_hse06_magmom
 _atom_site_pbe_bader_spin_density
 _atom_site_pbe_cm5_charge
 _atom_site_pbe_ddec_charge
 _atom_site_pbe_ddec_spin_density
 _atom_site_pbe_ddec_sum_bond_order
 _atom_site_pbe_magmom
Cd  Cd0  1  0.35590459  0.00008439  0.75001230  1  0  1.22385  0  1.56084  0  0  1.04443  0  2.004725  0  0  1.104054  0  1.943439  0  0  0.763052  1.001698  0  2.046528  0
Cd  Cd1  1  0.64409521  0.99991407  0.24998778  1  0  1.223882  0  1.560855  0  0  1.044433  0  2.004751  0  0  1.104058  0  1.94346  0  0  0.763045  1.001693  0  2.046553  0
H  H2  1  0.94893809  0.23477721  0.05070719  1  0  0.1145  0  0.920518  0  0  0.131351  0  0.979476  0  0  0.133093  0  0.979182  0  0  0.106754  0.130397  0  0.978994  0
H  H3  1  0.28593946  0.23473848  0.55082291  1  0  0.114103  0  0.921239  0  0  0.131345  0  0.97974  0  0  0.13305  0  0.979485  0  0  0.106614  0.130269  0  0.979715  0
H  H4  1  0.05106593  0.76521881  0.94929547  1  0  0.114542  0  0.920526  0  0  0.131366  0  0.979477  0  0  0.13311  0  0.979185  0  0  0.106781  0.130411  0  0.979005  0
H  H5  1  0.71405912  0.76526842  0.44917499  1  0  0.114036  0  0.92124  0  0  0.131249  0  0.979758  0  0  0.132948  0  0.979504  0  0  0.106567  0.130192  0  0.979703  0
H  H6  1  0.26451638  0.36188251  0.07025414  1  0  0.106052  0  0.928357  0  0  0.125054  0  0.980465  0  0  0.126888  0  0.980177  0  0  0.105657  0.123588  0  0.980854  0
H  H7  1  0.09757896  0.36184420  0.57029798  1  0  0.105463  0  0.927441  0  0  0.124521  0  0.979904  0  0  0.126375  0  0.979584  0  0  0.105439  0.123117  0  0.980285  0
H  H8  1  0.73548218  0.63811711  0.92974965  1  0  0.106017  0  0.928378  0  0  0.125011  0  0.980467  0  0  0.126848  0  0.980179  0  0  0.105658  0.123563  0  0.980834  0
H  H9  1  0.90241661  0.63816030  0.42969976  1  0  0.105386  0  0.92754  0  0  0.124475  0  0.979937  0  0  0.126327  0  0.979611  0  0  0.105431  0.123058  0  0.98033  0
H  H10  1  0.86881975  0.39613229  0.88540269  1  0  0.067715  0  0.933338  0  0  0.087978  0  0.990102  0  0  0.088717  0  0.990617  0  0  0.090284  0.087216  0  0.989907  0
H  H11  1  0.52742898  0.39600553  0.38552907  1  0  0.067642  0  0.933557  0  0  0.088252  0  0.990071  0  0  0.088992  0  0.990545  0  0  0.090289  0.087593  0  0.989915  0
H  H12  1  0.13117763  0.60386133  0.11459981  1  0  0.067711  0  0.933301  0  0  0.087962  0  0.9901  0  0  0.088701  0  0.990612  0  0  0.090276  0.087198  0  0.9899  0
H  H13  1  0.47256599  0.60399778  0.61446769  1  0  0.067656  0  0.933574  0  0  0.088248  0  0.990131  0  0  0.088986  0  0.990609  0  0  0.090276  0.087589  0  0.989982  0
H  H14  1  0.19004506  0.51974054  0.89549291  1  0  0.069951  0  0.930423  0  0  0.088715  0  0.989513  0  0  0.089803  0  0.989339  0  0  0.08873  0.087689  0  0.989729  0
H  H15  1  0.32960450  0.51946243  0.39534630  1  0  0.068747  0  0.930493  0  0  0.088195  0  0.988962  0  0  0.089238  0  0.988832  0  0  0.088565  0.087267  0  0.98924  0
H  H16  1  0.80994930  0.48025430  0.10450785  1  0  0.069994  0  0.930363  0  0  0.088763  0  0.989461  0  0  0.089852  0  0.989287  0  0  0.088732  0.087736  0  0.989673  0
H  H17  1  0.67039108  0.48054209  0.60464873  1  0  0.068771  0  0.930429  0  0  0.088263  0  0.988868  0  0  0.089305  0  0.988741  0  0  0.088597  0.087336  0  0.98915  0
H  H18  1  0.66710729  0.80764571  0.77297470  1  0  0.428043  0  0.87711  0  0  0.394205  0  0.945701  0  0  0.405864  0  0.928926  0  0  0.287516  0.385943  0  0.957554  0
H  H19  1  0.14085506  0.80731070  0.27304297  1  0  0.427921  0  0.877266  0  0  0.394132  0  0.946018  0  0  0.405824  0  0.929175  0  0  0.287714  0.385886  0  0.957854  0
H  H20  1  0.33289192  0.19235157  0.22702349  1  0  0.42807  0  0.877066  0  0  0.394189  0  0.945723  0  0  0.405848  0  0.928949  0  0  0.287493  0.385925  0  0.957579  0
H  H21  1  0.85914475  0.19268778  0.72695530  1  0  0.427933  0  0.877244  0  0  0.394148  0  0.945987  0  0  0.405839  0  0.929145  0  0  0.287714  0.385904  0  0.957821  0
H  H22  1  0.57699840  0.84426829  0.90828937  1  0  0.425628  0  0.881481  0  0  0.391822  0  0.949272  0  0  0.403895  0  0.932089  0  0  0.283937  0.383198  0  0.961509  0
H  H23  1  0.26767276  0.84416814  0.40835744  1  0  0.425725  0  0.881399  0  0  0.392164  0  0.948887  0  0  0.404239  0  0.931704  0  0  0.28423  0.383603  0  0.961011  0
H  H24  1  0.42299901  0.15572539  0.09170768  1  0  0.425656  0  0.881469  0  0  0.391854  0  0.949251  0  0  0.403927  0  0.932068  0  0  0.283951  0.383229  0  0.961488  0
H  H25  1  0.73232886  0.15583033  0.59164174  1  0  0.425805  0  0.881311  0  0  0.392251  0  0.948785  0  0  0.404326  0  0.931601  0  0  0.284262  0.383689  0  0.96091  0
C  C26  1  0.19230429  0.20288034  0.91035269  1  0  0.709521  0  3.817512  0  0  0.658051  0  4.114319  0  0  0.692061  0  4.109051  0  0  0.212627  0.635311  0  4.116531  0
C  C27  1  0.01034825  0.20266039  0.41050466  1  0  0.708124  0  3.818479  0  0  0.657208  0  4.11493  0  0  0.69122  0  4.109736  0  0  0.211839  0.634111  0  4.117609  0
C  C28  1  0.80770396  0.79711687  0.08965095  1  0  0.709426  0  3.817903  0  0  0.658018  0  4.114572  0  0  0.692031  0  4.109303  0  0  0.212501  0.635274  0  4.116784  0
C  C29  1  0.98965397  0.79734290  0.58949301  1  0  0.708265  0  3.818174  0  0  0.657216  0  4.11479  0  0  0.691223  0  4.109595  0  0  0.211806  0.63412  0  4.117474  0
C  C30  1  0.10972313  0.31212791  0.00143824  1  0  -0.268608  0  3.691907  0  0  -0.30357  0  3.940342  0  0  -0.310089  0  3.950095  0  0  -0.162006  -0.299441  0  3.933306  0
C  C31  1  0.20242367  0.31201586  0.50149098  1  0  -0.266805  0  3.688183  0  0  -0.302742  0  3.937816  0  0  -0.30921  0  3.947414  0  0  -0.161502  -0.298404  0  3.931094  0
C  C32  1  0.89027665  0.68787051  0.99856548  1  0  -0.268692  0  3.6919  0  0  -0.303578  0  3.940242  0  0  -0.310105  0  3.95  0  0  -0.162051  -0.299456  0  3.933216  0
C  C33  1  0.79757492  0.68799105  0.49850601  1  0  -0.266718  0  3.688077  0  0  -0.302519  0  3.937617  0  0  -0.308968  0  3.947191  0  0  -0.161416  -0.298188  0  3.930883  0
C  C34  1  0.03327047  0.44661704  0.94908041  1  0  -0.081843  0  3.693935  0  0  -0.122599  0  3.955123  0  0  -0.122994  0  3.96961  0  0  -0.16681  -0.122019  0  3.944882  0
C  C35  1  0.41336117  0.44650946  0.44907509  1  0  -0.08049  0  3.690488  0  0  -0.122012  0  3.952823  0  0  -0.122346  0  3.96721  0  0  -0.166403  -0.121678  0  3.942892  0
C  C36  1  0.96672570  0.55337779  0.05092217  1  0  -0.08182  0  3.693696  0  0  -0.122653  0  3.954929  0  0  -0.123047  0  3.969416  0  0  -0.166803  -0.122073  0  3.944682  0
C  C37  1  0.58663501  0.55349626  0.55092092  1  0  -0.080532  0  3.690453  0  0  -0.122167  0  3.952836  0  0  -0.122509  0  3.967218  0  0  -0.166429  -0.121831  0  3.942917  0
O  O38  1  0.33117640  0.12169889  0.94824443  1  0  -0.662744  0  1.968339  0  0  -0.589177  0  2.199017  0  0  -0.619958  0  2.187954  0  0  -0.323427  -0.567445  0  2.205153  0
O  O39  1  0.79033193  0.12140004  0.44838251  1  0  -0.662146  0  1.969031  0  0  -0.588907  0  2.199309  0  0  -0.619793  0  2.188393  0  0  -0.323007  -0.567203  0  2.205881  0
O  O40  1  0.66883787  0.87829951  0.05176111  1  0  -0.662663  0  1.968459  0  0  -0.589111  0  2.199091  0  0  -0.619891  0  2.188025  0  0  -0.323325  -0.567384  0  2.205229  0
O  O41  1  0.20967090  0.87860085  0.55161500  1  0  -0.662238  0  1.968884  0  0  -0.588951  0  2.199219  0  0  -0.619839  0  2.188306  0  0  -0.323027  -0.567245  0  2.205792  0
O  O42  1  0.12603478  0.18883629  0.79802294  1  0  -0.656385  0  2.002658  0  0  -0.584512  0  2.238716  0  0  -0.614879  0  2.228323  0  0  -0.313091  -0.563479  0  2.244796  0
O  O43  1  0.06231928  0.18866408  0.29814885  1  0  -0.656033  0  2.004218  0  0  -0.583959  0  2.239761  0  0  -0.614378  0  2.229447  0  0  -0.312957  -0.562765  0  2.245897  0
O  O44  1  0.87397345  0.81116452  0.20198184  1  0  -0.65637  0  2.002868  0  0  -0.584513  0  2.238886  0  0  -0.614883  0  2.228492  0  0  -0.313068  -0.563469  0  2.244947  0
O  O45  1  0.93768235  0.81133804  0.70184693  1  0  -0.655974  0  2.004132  0  0  -0.583932  0  2.239787  0  0  -0.61435  0  2.229476  0  0  -0.312935  -0.562739  0  2.245927  0
O  O46  1  0.51690752  0.81673167  0.82039791  1  0  -0.864021  0  1.865646  0  0  -0.799707  0  2.074325  0  0  -0.82456  0  2.03625  0  0  -0.591871  -0.782129  0  2.100842  0
O  O47  1  0.30014545  0.81638500  0.32051148  1  0  -0.863936  0  1.865374  0  0  -0.800208  0  2.073381  0  0  -0.825072  0  2.035257  0  0  -0.592158  -0.782302  0  2.099562  0
O  O48  1  0.48308989  0.18326199  0.17960095  1  0  -0.864089  0  1.865583  0  0  -0.799749  0  2.074321  0  0  -0.824604  0  2.036246  0  0  -0.591877  -0.782172  0  2.100838  0
O  O49  1  0.69985557  0.18361228  0.67948671  1  0  -0.864027  0  1.865332  0  0  -0.800302  0  2.073328  0  0  -0.825165  0  2.035211  0  0  -0.592176  -0.782382  0  2.099489  0
