# generated using pymatgen
data_ZnH11C20NO5
_symmetry_space_group_name_H-M   'P 1'
_cell_length_a   13.97184197
_cell_length_b   15.19796499
_cell_length_c   16.09466897
_cell_angle_alpha   89.49818273
_cell_angle_beta   89.92858712
_cell_angle_gamma   90.03478732
_symmetry_Int_Tables_number   1
_chemical_formula_structural   ZnH11C20NO5
_chemical_formula_sum   'Zn2 H22 C40 N2 O10'
_cell_volume   3417.46500304
_cell_formula_units_Z   2
loop_
 _symmetry_equiv_pos_site_id
 _symmetry_equiv_pos_as_xyz
  1  'x, y, z'
loop_
 _atom_site_type_symbol
 _atom_site_label
 _atom_site_symmetry_multiplicity
 _atom_site_fract_x
 _atom_site_fract_y
 _atom_site_fract_z
 _atom_site_occupancy
 _atom_site_pbe_bader_charge
 _atom_site_pbe_bader_spin_density
 _atom_site_pbe_cm5_charge
 _atom_site_pbe_ddec_charge
 _atom_site_pbe_ddec_spin_density
 _atom_site_pbe_ddec_sum_bond_order
 _atom_site_pbe_magmom
Zn  Zn0  1  0.60023070  0.50167202  0.49425108  1  1.293976  0  0.668907  0.819097  0  2.415818  0
Zn  Zn1  1  0.39924400  0.49798582  0.49403843  1  1.309738  0  0.668688  0.818028  0  2.416694  0
H  H2  1  0.40619455  0.62655761  0.04354691  1  0.06446  0  0.101867  0.089967  0  0.990657  0
H  H3  1  0.66498453  0.51347696  0.04251341  1  0.082343  0  0.101072  0.088451  0  0.99151  0
H  H4  1  0.63841732  0.95104160  0.48590556  1  0.07731  0  0.106163  0.10961  0  0.990357  0
H  H5  1  0.36422245  0.05086764  0.48611960  1  0.072242  0  0.10698  0.110396  0  0.989354  0
H  H6  1  0.64039273  0.78893675  0.46425607  1  0.076366  0  0.10795  0.109136  0  0.994279  0
H  H7  1  0.36437293  0.21372520  0.46492650  1  0.09907  0  0.111204  0.116047  0  0.985842  0
H  H8  1  0.36747785  0.76663155  0.58613221  1  0.117551  0  0.113737  0.123839  0  0.992066  0
H  H9  1  0.63619323  0.23009844  0.58846051  1  0.141465  0  0.110732  0.116738  0  1.003203  0
H  H10  1  0.06679100  0.56587690  0.37885965  1  0.087451  0  0.1164  0.122035  0  0.987935  0
H  H11  1  0.93006432  0.37124281  0.55493081  1  0.114542  0  0.118947  0.125723  0  0.982596  0
H  H12  1  0.24619296  0.56008511  0.38123308  1  0.148556  0  0.131783  0.110685  0  0.973857  0
H  H13  1  0.59180503  0.37470225  0.94430073  1  0.077779  0  0.102923  0.09103  0  0.988274  0
H  H14  1  0.75087201  0.37746196  0.54982899  1  0.14926  0  0.131872  0.110961  0  0.980303  0
H  H15  1  0.36064725  0.00361821  0.65151697  1  0.056911  0  0.096072  0.031034  0  0.978097  0
H  H16  1  0.64030591  0.99225008  0.65314813  1  0.030174  0  0.097517  0.032505  0  0.977132  0
H  H17  1  0.24855766  0.43669350  0.61100197  1  0.150047  0  0.131525  0.110886  0  0.975882  0
H  H18  1  0.75351154  0.62623052  0.44435907  1  0.15753  0  0.129871  0.105824  0  0.980007  0
H  H19  1  0.06905196  0.43487814  0.61852522  1  0.094667  0  0.118024  0.124562  0  0.984488  0
H  H20  1  0.93303001  0.63184864  0.44441536  1  0.086288  0  0.116594  0.122323  0  0.986777  0
H  H21  1  0.56899693  0.63671744  0.93839081  1  0.070504  0  0.10289  0.090915  0  0.988418  0
H  H22  1  0.42938776  0.36426525  0.04996423  1  0.036961  0  0.102281  0.089499  0  0.989871  0
H  H23  1  0.33315289  0.48737264  0.94562303  1  0.068043  0  0.100523  0.088039  0  0.991572  0
C  C24  1  0.50265886  0.67053991  0.50435285  1  1.59716  0  0.214845  0.592823  0  4.175696  0
C  C25  1  0.57570543  0.10035354  0.58064451  1  -0.086592  0  -0.023136  -0.044319  0  3.991822  0
C  C26  1  0.50282165  0.95081498  0.55002794  1  0.05482  0  0.004666  0.040936  0  3.98914  0
C  C27  1  0.49940688  0.04825829  0.55054245  1  -0.006046  0  0.004958  0.041679  0  3.987973  0
C  C28  1  0.10386047  0.53700963  0.43194551  1  -0.099452  0  -0.075146  -0.174023  0  3.945092  0
C  C29  1  0.89429188  0.42962413  0.53049743  1  -0.049367  0  -0.073178  -0.171388  0  3.93532  0
C  C30  1  0.20318166  0.53412802  0.43246230  1  0.549044  0  0.065038  0.110102  0  3.910349  0
C  C31  1  0.79493640  0.43212880  0.52781079  1  0.501839  0  0.067041  0.111748  0  3.900639  0
C  C32  1  0.20442579  0.46337697  0.56094105  1  0.522179  0  0.066066  0.11084  0  3.905741  0
C  C33  1  0.79647170  0.57143561  0.46755377  1  0.387821  0  0.06392  0.107693  0  3.918009  0
C  C34  1  0.10503837  0.46277279  0.56430625  1  -0.072219  0  -0.073764  -0.172219  0  3.940536  0
C  C35  1  0.50384979  0.32923375  0.50497439  1  1.571048  0  0.214125  0.591473  0  4.18008  0
C  C36  1  0.89582913  0.57358650  0.46758352  1  0.115758  0  -0.07466  -0.173569  0  3.945625  0
C  C37  1  0.05257721  0.50042468  0.49880900  1  -0.049408  0  0.017729  0.106457  0  3.991363  0
C  C38  1  0.94691339  0.50129228  0.49933747  1  -0.015708  0  0.017401  0.106666  0  3.990561  0
C  C39  1  0.49645454  0.50208975  0.33313024  1  1.651113  0  0.215752  0.672083  0  4.238483  0
C  C40  1  0.49569622  0.49730193  0.65557374  1  1.684693  0  0.214151  0.667854  0  4.245389  0
C  C41  1  0.53802581  0.57624906  0.96410235  1  -0.020702  0  -0.069748  -0.075926  0  3.631194  0
C  C42  1  0.46008906  0.42478299  0.02413208  1  0.006681  0  -0.068265  -0.073015  0  3.630874  0
C  C43  1  0.44733594  0.57050864  0.02079462  1  -0.028436  0  -0.069927  -0.078304  0  3.636029  0
C  C44  1  0.55072299  0.43059830  0.96744448  1  -0.021309  0  -0.068147  -0.075361  0  3.629546  0
C  C45  1  0.49769851  0.50254971  0.24337657  1  0.165581  0  -0.062179  -0.208701  0  4.00986  0
C  C46  1  0.58064350  0.81995443  0.49618717  1  -0.005638  0  -0.071146  -0.062592  0  3.958416  0
C  C47  1  0.49594156  0.49697622  0.74520176  1  0.186437  0  -0.06083  -0.206386  0  4.014931  0
C  C48  1  0.59128001  0.50779370  0.02040628  1  -0.047162  0  -0.071302  -0.079903  0  3.637027  0
C  C49  1  0.40676257  0.49319436  0.96792718  1  -0.03862  0  -0.071998  -0.081318  0  3.640558  0
C  C50  1  0.50069550  0.50220111  0.07963087  1  0.165565  0  0.006702  0.122877  0  3.79543  0
C  C51  1  0.49717842  0.49906279  0.90875178  1  0.140766  0  0.006996  0.124915  0  3.799382  0
C  C52  1  0.49987164  0.50262545  0.16758973  1  -0.516052  0  -0.039215  -0.058446  0  4.105375  0
C  C53  1  0.49661814  0.49759428  0.82093930  1  -0.544634  0  -0.039237  -0.058823  0  4.108989  0
C  C54  1  0.58009659  0.91019134  0.50966080  1  -0.083943  0  -0.087954  -0.139684  0  3.998832  0
C  C55  1  0.42287195  0.09059649  0.51013382  1  -0.068004  0  -0.086583  -0.137757  0  3.994749  0
C  C56  1  0.34859927  0.93484153  0.63028797  1  0.938608  0  0.090027  0.265513  0  4.000327  0
C  C57  1  0.42343467  0.18113832  0.49687843  1  -0.033764  0  -0.069324  -0.061558  0  3.946908  0
C  C58  1  0.65287246  0.06137795  0.63209200  1  0.954668  0  0.089332  0.266814  0  3.99745  0
C  C59  1  0.50303693  0.76757048  0.52160345  1  -0.067527  0  -0.010805  -0.026507  0  3.952185  0
C  C60  1  0.50169662  0.23204445  0.52252543  1  0.009316  0  -0.011631  -0.026028  0  3.952705  0
C  C61  1  0.42709855  0.80667423  0.56375486  1  0.03263  0  -0.061287  -0.081756  0  3.887511  0
C  C62  1  0.57644946  0.19130158  0.56527968  1  -0.026965  0  -0.064369  -0.08557  0  3.901701  0
C  C63  1  0.42670255  0.89735578  0.57931472  1  -0.056801  0  -0.022449  -0.041969  0  3.987546  0
N  N64  1  0.25243036  0.49809551  0.49594220  1  -1.26546  0  -0.314884  -0.193076  0  3.509916  0
N  N65  1  0.74703651  0.50173301  0.49670517  1  -1.260451  0  -0.313626  -0.189103  0  3.506547  0
O  O66  1  0.58090119  0.63643018  0.47954989  1  -1.169048  0  -0.319735  -0.555724  0  2.309799  0
O  O67  1  0.72541967  0.10086648  0.65316111  1  -1.078385  0  -0.28342  -0.37055  0  2.07856  0
O  O68  1  0.42669580  0.36472545  0.47957225  1  -1.170147  0  -0.318897  -0.549133  0  2.30467  0
O  O69  1  0.42416450  0.62998340  0.51625743  1  -1.167646  0  -0.314012  -0.541867  0  2.316806  0
O  O70  1  0.58302925  0.36858089  0.51730600  1  -1.17102  0  -0.312943  -0.546604  0  2.333448  0
O  O71  1  0.57546227  0.48536113  0.36944098  1  -1.152538  0  -0.317925  -0.543944  0  2.259503  0
O  O72  1  0.41754034  0.47556546  0.62014905  1  -1.151604  0  -0.316452  -0.551307  0  2.275137  0
O  O73  1  0.41641773  0.51833119  0.36826509  1  -1.151118  0  -0.317554  -0.551851  0  2.268303  0
O  O74  1  0.57346912  0.51942048  0.61965966  1  -1.145152  0  -0.31727  -0.54353  0  2.258732  0
O  O75  1  0.27593809  0.89479221  0.65069263  1  -1.078042  0  -0.280272  -0.365993  0  2.080166  0
