# generated using pymatgen
data_FeAg2H8C14(N3Cl)2
_symmetry_space_group_name_H-M   'P 1'
_cell_length_a   9.09513886
_cell_length_b   12.15369135
_cell_length_c   15.90667815
_cell_angle_alpha   90.00011220
_cell_angle_beta   99.47164406
_cell_angle_gamma   90.00005837
_symmetry_Int_Tables_number   1
_chemical_formula_structural   FeAg2H8C14(N3Cl)2
_chemical_formula_sum   'Fe4 Ag8 H32 C56 N24 Cl8'
_cell_volume   1734.34557497
_cell_formula_units_Z   4
loop_
 _symmetry_equiv_pos_site_id
 _symmetry_equiv_pos_as_xyz
  1  'x, y, z'
loop_
 _atom_site_type_symbol
 _atom_site_label
 _atom_site_symmetry_multiplicity
 _atom_site_fract_x
 _atom_site_fract_y
 _atom_site_fract_z
 _atom_site_occupancy
 _atom_site_hle17_bader_spin_density
 _atom_site_hle17_ddec_charge
 _atom_site_hle17_ddec_spin_density
 _atom_site_hle17_ddec_sum_bond_order
 _atom_site_hle17_magmom
 _atom_site_hse06_10hf_bader_spin_density
 _atom_site_hse06_10hf_ddec_charge
 _atom_site_hse06_10hf_ddec_spin_density
 _atom_site_hse06_10hf_ddec_sum_bond_order
 _atom_site_hse06_10hf_magmom
 _atom_site_hse06_bader_spin_density
 _atom_site_hse06_ddec_charge
 _atom_site_hse06_ddec_spin_density
 _atom_site_hse06_ddec_sum_bond_order
 _atom_site_hse06_magmom
 _atom_site_pbe_bader_spin_density
 _atom_site_pbe_cm5_charge
 _atom_site_pbe_ddec_charge
 _atom_site_pbe_ddec_spin_density
 _atom_site_pbe_ddec_sum_bond_order
 _atom_site_pbe_magmom
Fe  Fe0  1  0.65180236  0.49588776  0.23800343  1  0  0.568812  0  3.462359  0  0  0.561053  0  3.918868  0  0  0.589226  0  3.876135  0  0  0.883214  0.549884  0  3.938811  0
Fe  Fe1  1  0.34819722  0.99588885  0.26199587  1  0  0.568907  0  3.462696  0  0  0.561043  0  3.91922  0  0  0.589197  0  3.876497  0  0  0.883291  0.54988  0  3.939156  0
Fe  Fe2  1  0.34819387  0.50411298  0.76199525  1  0  0.568706  0  3.462535  0  0  0.561072  0  3.918998  0  0  0.589283  0  3.876252  0  0  0.883293  0.549952  0  3.938925  0
Fe  Fe3  1  0.65180904  0.00411107  0.73800501  1  0  0.568821  0  3.462385  0  0  0.560954  0  3.91891  0  0  0.589151  0  3.876176  0  0  0.883212  0.549795  0  3.938851  0
Ag  Ag4  1  0.73491816  0.27911263  0.97810450  1  0  0.279321  0  2.04116  0  0  0.168917  0  2.536015  0  0  0.184294  0  2.487592  0  0  0.309491  0.159077  0  2.569407  0
Ag  Ag5  1  0.26508413  0.77911139  0.52189422  1  0  0.279328  0  2.041234  0  0  0.168906  0  2.536115  0  0  0.184283  0  2.487687  0  0  0.309509  0.159064  0  2.569513  0
Ag  Ag6  1  0.26508587  0.72088811  0.02189743  1  0  0.279368  0  2.041301  0  0  0.168967  0  2.536183  0  0  0.184339  0  2.487755  0  0  0.309537  0.159122  0  2.569585  0
Ag  Ag7  1  0.73491545  0.22088770  0.47810540  1  0  0.279308  0  2.04116  0  0  0.168885  0  2.536022  0  0  0.184262  0  2.487596  0  0  0.309494  0.159041  0  2.569421  0
Ag  Ag8  1  0.57511887  0.72980547  0.49370018  1  0  0.28863  0  1.989265  0  0  0.178775  0  2.476679  0  0  0.194437  0  2.42949  0  0  0.313122  0.168563  0  2.509406  0
Ag  Ag9  1  0.42488358  0.22980772  0.00629837  1  0  0.288615  0  1.989379  0  0  0.178782  0  2.476792  0  0  0.19444  0  2.429595  0  0  0.313093  0.168569  0  2.50952  0
Ag  Ag10  1  0.42488071  0.27019363  0.50629882  1  0  0.288559  0  1.989281  0  0  0.178701  0  2.476674  0  0  0.194357  0  2.429493  0  0  0.313085  0.168484  0  2.509403  0
Ag  Ag11  1  0.57511488  0.77019220  0.99369926  1  0  0.288604  0  1.989348  0  0  0.178768  0  2.476751  0  0  0.19442  0  2.42956  0  0  0.313114  0.168552  0  2.509479  0
H  H12  1  0.41379665  0.47144387  0.08558788  1  0  0.106132  0  0.942119  0  0  0.111847  0  1.008137  0  0  0.113256  0  1.006998  0  0  0.120688  0.11074  0  1.009247  0
H  H13  1  0.58619954  0.97144472  0.41441358  1  0  0.106082  0  0.942181  0  0  0.111821  0  1.00813  0  0  0.113231  0  1.006993  0  0  0.120674  0.110718  0  1.009236  0
H  H14  1  0.58619958  0.52855934  0.91441017  1  0  0.106149  0  0.942098  0  0  0.111874  0  1.008076  0  0  0.113284  0  1.006936  0  0  0.120722  0.110766  0  1.009188  0
H  H15  1  0.41380783  0.02856014  0.58558740  1  0  0.106096  0  0.942095  0  0  0.111841  0  1.00804  0  0  0.113251  0  1.006899  0  0  0.120666  0.110733  0  1.009152  0
H  H16  1  0.04254758  0.31517363  0.17668370  1  0  0.118414  0  0.933213  0  0  0.128649  0  0.993472  0  0  0.13077  0  0.992599  0  0  0.10972  0.127045  0  0.994242  0
H  H17  1  0.95744721  0.81517041  0.32331740  1  0  0.118383  0  0.933225  0  0  0.128625  0  0.993467  0  0  0.130745  0  0.992598  0  0  0.109719  0.127019  0  0.994238  0
H  H18  1  0.95744753  0.68483041  0.82331237  1  0  0.118463  0  0.933232  0  0  0.128692  0  0.993475  0  0  0.130817  0  0.992602  0  0  0.109737  0.127076  0  0.994257  0
H  H19  1  0.04255459  0.18482622  0.67668432  1  0  0.118415  0  0.933216  0  0  0.128652  0  0.993465  0  0  0.130772  0  0.992595  0  0  0.109733  0.127045  0  0.994238  0
H  H20  1  0.19630672  0.32110705  0.32434814  1  0  0.098397  0  0.952872  0  0  0.107163  0  1.016735  0  0  0.109308  0  1.016224  0  0  0.103784  0.105664  0  1.017239  0
H  H21  1  0.80368698  0.82110334  0.17565349  1  0  0.098454  0  0.952867  0  0  0.107226  0  1.016715  0  0  0.109371  0  1.016202  0  0  0.103811  0.105731  0  1.01721  0
H  H22  1  0.80368617  0.67889534  0.67564771  1  0  0.098454  0  0.952954  0  0  0.10723  0  1.016784  0  0  0.109376  0  1.016271  0  0  0.103835  0.105743  0  1.017276  0
H  H23  1  0.19631371  0.17889082  0.82434812  1  0  0.098462  0  0.952867  0  0  0.107243  0  1.016708  0  0  0.109387  0  1.016197  0  0  0.103808  0.105751  0  1.017205  0
H  H24  1  0.44885397  0.40392399  0.34398363  1  0  0.082396  0  0.96715  0  0  0.086242  0  1.039808  0  0  0.087812  0  1.037708  0  0  0.114999  0.084965  0  1.041614  0
H  H25  1  0.55114322  0.90392414  0.15601783  1  0  0.082462  0  0.967113  0  0  0.086248  0  1.039829  0  0  0.087816  0  1.037731  0  0  0.115009  0.084984  0  1.041623  0
H  H26  1  0.55114115  0.59607593  0.65601432  1  0  0.082465  0  0.966969  0  0  0.086222  0  1.039738  0  0  0.087795  0  1.037632  0  0  0.11498  0.084937  0  1.041554  0
H  H27  1  0.44885858  0.09607413  0.84398326  1  0  0.082427  0  0.967113  0  0  0.086225  0  1.039828  0  0  0.087795  0  1.037727  0  0  0.114983  0.084984  0  1.041601  0
H  H28  1  0.89375498  0.49292599  0.38824164  1  0  0.097069  0  0.979007  0  0  0.101213  0  1.048341  0  0  0.102822  0  1.046919  0  0  0.114148  0.100022  0  1.0495  0
H  H29  1  0.10624794  0.99292979  0.11175860  1  0  0.097058  0  0.979036  0  0  0.101203  0  1.048368  0  0  0.102811  0  1.04695  0  0  0.114136  0.100011  0  1.049527  0
H  H30  1  0.10624125  0.50707146  0.61175704  1  0  0.097027  0  0.979046  0  0  0.101181  0  1.048388  0  0  0.102792  0  1.046968  0  0  0.114137  0.099987  0  1.049553  0
H  H31  1  0.89375721  0.00707095  0.88824343  1  0  0.097106  0  0.979029  0  0  0.101248  0  1.04837  0  0  0.10286  0  1.046948  0  0  0.114176  0.100047  0  1.049546  0
H  H32  1  0.27852010  0.64164754  0.30687469  1  0  0.12981  0  0.922514  0  0  0.139352  0  0.980302  0  0  0.141809  0  0.979168  0  0  0.115311  0.137469  0  0.981312  0
H  H33  1  0.72147884  0.14164556  0.19312402  1  0  0.129826  0  0.922456  0  0  0.139362  0  0.980244  0  0  0.141822  0  0.979112  0  0  0.115289  0.137476  0  0.98126  0
H  H34  1  0.72147724  0.35834991  0.69312409  1  0  0.129817  0  0.922461  0  0  0.13936  0  0.980257  0  0  0.141815  0  0.979122  0  0  0.115306  0.137479  0  0.981267  0
H  H35  1  0.27852185  0.85834448  0.80688011  1  0  0.129873  0  0.922433  0  0  0.139419  0  0.980217  0  0  0.141872  0  0.979081  0  0  0.115347  0.137537  0  0.981226  0
H  H36  1  0.11903632  0.67176818  0.16400976  1  0  0.094185  0  0.999887  0  0  0.09992  0  1.070533  0  0  0.102682  0  1.068937  0  0  0.091286  0.097952  0  1.071788  0
H  H37  1  0.88096157  0.17176834  0.33599016  1  0  0.094158  0  0.999889  0  0  0.099896  0  1.070534  0  0  0.102658  0  1.068938  0  0  0.091271  0.097926  0  1.07179  0
H  H38  1  0.88096326  0.32823009  0.83598924  1  0  0.094192  0  0.999884  0  0  0.099936  0  1.070512  0  0  0.102697  0  1.068918  0  0  0.091283  0.097968  0  1.071765  0
H  H39  1  0.11904024  0.82822829  0.66401282  1  0  0.094168  0  0.999884  0  0  0.099917  0  1.070512  0  0  0.102679  0  1.068917  0  0  0.091302  0.097948  0  1.071763  0
H  H40  1  0.85653248  0.60295971  0.13921307  1  0  0.081172  0  0.996183  0  0  0.088068  0  1.06374  0  0  0.089117  0  1.062778  0  0  0.109974  0.087285  0  1.064585  0
H  H41  1  0.14346640  0.10296265  0.36078747  1  0  0.081212  0  0.996265  0  0  0.088083  0  1.063858  0  0  0.089129  0  1.0629  0  0  0.110003  0.087301  0  1.0647  0
H  H42  1  0.14346487  0.39703774  0.86078572  1  0  0.081152  0  0.996224  0  0  0.088048  0  1.063805  0  0  0.089096  0  1.062845  0  0  0.109994  0.087263  0  1.064658  0
H  H43  1  0.85653987  0.89703891  0.63921404  1  0  0.081117  0  0.996219  0  0  0.08803  0  1.063778  0  0  0.089078  0  1.062817  0  0  0.109985  0.087235  0  1.064647  0
C  C44  1  0.36203645  0.43781545  0.13693092  1  0  0.044432  0  3.650043  0  0  0.004599  0  3.910791  0  0  0.012916  0  3.925674  0  0  0.038052  -0.001286  0  3.901498  0
C  C45  1  0.63795857  0.93781703  0.36307039  1  0  0.044494  0  3.64996  0  0  0.004679  0  3.910704  0  0  0.012992  0  3.925583  0  0  0.038074  -0.001205  0  3.901407  0
C  C46  1  0.63795755  0.56218941  0.86306693  1  0  0.044423  0  3.649822  0  0  0.004634  0  3.910608  0  0  0.012948  0  3.925484  0  0  0.038049  -0.00125  0  3.901316  0
C  C47  1  0.36204881  0.06218783  0.63693123  1  0  0.044483  0  3.649961  0  0  0.004611  0  3.910717  0  0  0.01295  0  3.925617  0  0  0.038033  -0.001274  0  3.901419  0
C  C48  1  0.21851174  0.39355557  0.12196760  1  0  0.079337  0  3.824056  0  0  0.097608  0  4.08929  0  0  0.094814  0  4.111225  0  0  0.012586  0.098957  0  4.074987  0
C  C49  1  0.78148320  0.89355154  0.37803301  1  0  0.079312  0  3.824228  0  0  0.0976  0  4.089429  0  0  0.094815  0  4.111353  0  0  0.012607  0.098947  0  4.075125  0
C  C50  1  0.78148226  0.60645093  0.87802899  1  0  0.079493  0  3.824034  0  0  0.097732  0  4.089271  0  0  0.094939  0  4.111209  0  0  0.012666  0.099085  0  4.07496  0
C  C51  1  0.21852306  0.10644920  0.62196851  1  0  0.079318  0  3.824339  0  0  0.097631  0  4.089501  0  0  0.094848  0  4.111419  0  0  0.012641  0.098986  0  4.075185  0
C  C52  1  0.15438513  0.34998451  0.18846748  1  0  -0.066874  0  3.695242  0  0  -0.095794  0  3.942707  0  0  -0.091419  0  3.960631  0  0  -0.076266  -0.098607  0  3.930782  0
C  C53  1  0.84560750  0.84998200  0.31153347  1  0  -0.066812  0  3.695389  0  0  -0.095728  0  3.942838  0  0  -0.091363  0  3.960769  0  0  -0.076267  -0.098534  0  3.930907  0
C  C54  1  0.84560664  0.65002200  0.81152890  1  0  -0.067008  0  3.69547  0  0  -0.095896  0  3.942925  0  0  -0.091534  0  3.960856  0  0  -0.07633  -0.098698  0  3.931001  0
C  C55  1  0.15439542  0.15001627  0.68846773  1  0  -0.066868  0  3.695593  0  0  -0.095786  0  3.943046  0  0  -0.091417  0  3.960976  0  0  -0.076285  -0.098595  0  3.931117  0
C  C56  1  0.23895420  0.35394640  0.26947413  1  0  -0.084105  0  3.741932  0  0  -0.096627  0  3.995555  0  0  -0.103738  0  4.017849  0  0  -0.078653  -0.092122  0  3.980758  0
C  C57  1  0.76104289  0.85394444  0.23052661  1  0  -0.084181  0  3.741911  0  0  -0.096732  0  3.995535  0  0  -0.103841  0  4.017832  0  0  -0.078672  -0.092234  0  3.980744  0
C  C58  1  0.76104091  0.64605681  0.73052193  1  0  -0.084182  0  3.742118  0  0  -0.09674  0  3.99572  0  0  -0.103849  0  4.018018  0  0  -0.078703  -0.092248  0  3.980919  0
C  C59  1  0.23895891  0.14605218  0.76947511  1  0  -0.084127  0  3.741888  0  0  -0.096691  0  3.995521  0  0  -0.1038  0  4.017816  0  0  -0.078649  -0.092199  0  3.980738  0
C  C60  1  0.38081896  0.39987162  0.28125742  1  0  0.121089  0  3.638328  0  0  0.085878  0  3.893709  0  0  0.09486  0  3.910473  0  0  0.048308  0.079787  0  3.882742  0
C  C61  1  0.61917376  0.89987281  0.21874236  1  0  0.121057  0  3.638274  0  0  0.085923  0  3.893631  0  0  0.094904  0  3.910389  0  0  0.04832  0.079821  0  3.882662  0
C  C62  1  0.61917281  0.60012830  0.71873959  1  0  0.121002  0  3.638126  0  0  0.085913  0  3.893477  0  0  0.094889  0  3.910233  0  0  0.04831  0.079829  0  3.882515  0
C  C63  1  0.38082916  0.10012464  0.78125884  1  0  0.121133  0  3.638135  0  0  0.085959  0  3.893501  0  0  0.094965  0  3.910281  0  0  0.048394  0.079839  0  3.882517  0
C  C64  1  0.94674039  0.53181125  0.33960586  1  0  0.052944  0  3.644955  0  0  0.014909  0  3.89463  0  0  0.024118  0  3.909397  0  0  0.041531  0.008594  0  3.885088  0
C  C65  1  0.05325947  0.03181278  0.16039466  1  0  0.052916  0  3.645054  0  0  0.014891  0  3.894722  0  0  0.024088  0  3.909499  0  0  0.041522  0.008575  0  3.88518  0
C  C66  1  0.05325695  0.46819114  0.66039355  1  0  0.053015  0  3.644852  0  0  0.014929  0  3.89453  0  0  0.024132  0  3.909305  0  0  0.041539  0.008619  0  3.884987  0
C  C67  1  0.94674234  0.96818878  0.83960769  1  0  0.053039  0  3.644922  0  0  0.014946  0  3.894549  0  0  0.02416  0  3.909305  0  0  0.04158  0.008643  0  3.885008  0
C  C68  1  0.09665560  0.56171214  0.35603469  1  0  0.070138  0  3.827925  0  0  0.088328  0  4.093107  0  0  0.085255  0  4.114835  0  0  0.013667  0.089881  0  4.078886  0
C  C69  1  0.90334431  0.06171348  0.14396588  1  0  0.070199  0  3.827944  0  0  0.088344  0  4.093174  0  0  0.08527  0  4.114908  0  0  0.01368  0.089897  0  4.07895  0
C  C70  1  0.90333728  0.43828942  0.64396619  1  0  0.070043  0  3.827932  0  0  0.088259  0  4.093097  0  0  0.085187  0  4.114829  0  0  0.01362  0.089813  0  4.078875  0
C  C71  1  0.09665972  0.93828398  0.85603605  1  0  0.070067  0  3.827919  0  0  0.088297  0  4.09306  0  0  0.085227  0  4.114789  0  0  0.013585  0.089846  0  4.078848  0
C  C72  1  0.16241441  0.61553031  0.29427763  1  0  -0.07004  0  3.706186  0  0  -0.099026  0  3.955255  0  0  -0.094561  0  3.97349  0  0  -0.073253  -0.101984  0  3.943229  0
C  C73  1  0.83758672  0.11552846  0.20572314  1  0  -0.07008  0  3.70615  0  0  -0.099014  0  3.955159  0  0  -0.094555  0  3.973403  0  0  -0.073233  -0.10197  0  3.943137  0
C  C74  1  0.83758517  0.38447044  0.70572326  1  0  -0.070023  0  3.70623  0  0  -0.099011  0  3.955275  0  0  -0.094546  0  3.973507  0  0  -0.073233  -0.101973  0  3.943249  0
C  C75  1  0.16241509  0.88446571  0.79427921  1  0  -0.070169  0  3.706309  0  0  -0.09917  0  3.955387  0  0  -0.094701  0  3.973614  0  0  -0.073298  -0.102131  0  3.943361  0
C  C76  1  0.07356957  0.63135993  0.21518225  1  0  -0.0988  0  3.741288  0  0  -0.105262  0  3.987017  0  0  -0.113679  0  4.009255  0  0  -0.085692  -0.099806  0  3.972304  0
C  C77  1  0.92643158  0.13136246  0.28481854  1  0  -0.098791  0  3.741174  0  0  -0.105254  0  3.986901  0  0  -0.113673  0  4.009142  0  0  -0.085707  -0.099799  0  3.972191  0
C  C78  1  0.92643112  0.36863752  0.78481748  1  0  -0.098834  0  3.741297  0  0  -0.105303  0  3.987059  0  0  -0.11372  0  4.009295  0  0  -0.085687  -0.099844  0  3.972343  0
C  C79  1  0.07357133  0.86863499  0.71518517  1  0  -0.098729  0  3.741237  0  0  -0.105204  0  3.987004  0  0  -0.113618  0  4.009237  0  0  -0.085636  -0.099743  0  3.97228  0
C  C80  1  0.92708323  0.59456813  0.20081361  1  0  0.106326  0  3.654214  0  0  0.072781  0  3.90693  0  0  0.082378  0  3.923028  0  0  0.039964  0.065762  0  3.897292  0
C  C81  1  0.07292009  0.09457086  0.29918671  1  0  0.10634  0  3.654073  0  0  0.072779  0  3.906829  0  0  0.082377  0  3.922911  0  0  0.039988  0.065758  0  3.897192  0
C  C82  1  0.07291634  0.40543179  0.79918601  1  0  0.106354  0  3.654154  0  0  0.07275  0  3.906925  0  0  0.082354  0  3.923009  0  0  0.039924  0.065733  0  3.897292  0
C  C83  1  0.92708618  0.90543153  0.70081418  1  0  0.106477  0  3.654014  0  0  0.07285  0  3.906736  0  0  0.082445  0  3.922842  0  0  0.039939  0.065838  0  3.8971  0
C  C84  1  0.58947255  0.63574668  0.38888428  1  0  -0.079541  0  3.373149  0  0  -0.05523  0  3.721886  0  0  -0.050274  0  3.726736  0  0  -0.037158  -0.058327  0  3.718444  0
C  C85  1  0.41052750  0.13575165  0.11111201  1  0  -0.079823  0  3.372868  0  0  -0.055536  0  3.721648  0  0  -0.050569  0  3.726488  0  0  -0.03738  -0.058634  0  3.718205  0
C  C86  1  0.41052145  0.36424995  0.61111670  1  0  -0.079518  0  3.373143  0  0  -0.055199  0  3.721865  0  0  -0.050243  0  3.72672  0  0  -0.037187  -0.0583  0  3.718431  0
C  C87  1  0.58946985  0.86425074  0.88888489  1  0  -0.079587  0  3.373126  0  0  -0.055287  0  3.721872  0  0  -0.050323  0  3.726714  0  0  -0.037231  -0.058386  0  3.718431  0
C  C88  1  0.58533997  0.67157986  0.09918247  1  0  -0.096093  0  3.406218  0  0  -0.067908  0  3.756482  0  0  -0.062418  0  3.758202  0  0  -0.032647  -0.071639  0  3.755519  0
C  C89  1  0.41466014  0.17158229  0.40081577  1  0  -0.096057  0  3.406226  0  0  -0.067858  0  3.756479  0  0  -0.062372  0  3.758201  0  0  -0.032613  -0.071587  0  3.755516  0
C  C90  1  0.41465849  0.32842171  0.90081516  1  0  -0.09621  0  3.406271  0  0  -0.068023  0  3.756555  0  0  -0.062537  0  3.758285  0  0  -0.032721  -0.07176  0  3.7556  0
C  C91  1  0.58534389  0.82842174  0.59918302  1  0  -0.096121  0  3.406362  0  0  -0.067933  0  3.756645  0  0  -0.062448  0  3.758371  0  0  -0.032675  -0.071666  0  3.755685  0
C  C92  1  0.72769678  0.36207147  0.08838983  1  0  -0.096366  0  3.416787  0  0  -0.074266  0  3.776178  0  0  -0.068834  0  3.779575  0  0  -0.042964  -0.077757  0  3.773698  0
C  C93  1  0.27230257  0.86206795  0.41161114  1  0  -0.096315  0  3.416093  0  0  -0.074203  0  3.775476  0  0  -0.068762  0  3.778861  0  0  -0.042978  -0.077696  0  3.772999  0
C  C94  1  0.27230837  0.63792763  0.91161032  1  0  -0.096517  0  3.416915  0  0  -0.074416  0  3.776303  0  0  -0.068986  0  3.779703  0  0  -0.043014  -0.077907  0  3.773828  0
C  C95  1  0.72769701  0.13792539  0.58838975  1  0  -0.096445  0  3.416574  0  0  -0.074315  0  3.775907  0  0  -0.068878  0  3.779296  0  0  -0.043028  -0.077806  0  3.773433  0
C  C96  1  0.72646837  0.31352937  0.37031050  1  0  -0.082903  0  3.386937  0  0  -0.056573  0  3.726297  0  0  -0.050828  0  3.729038  0  0  -0.029362  -0.060373  0  3.724457  0
C  C97  1  0.27352977  0.81352924  0.12968526  1  0  -0.082869  0  3.38653  0  0  -0.056544  0  3.725898  0  0  -0.050788  0  3.72863  0  0  -0.029425  -0.060352  0  3.724065  0
C  C98  1  0.27352341  0.68647137  0.62968965  1  0  -0.08291  0  3.386886  0  0  -0.056572  0  3.726237  0  0  -0.050833  0  3.728989  0  0  -0.02938  -0.060377  0  3.7244  0
C  C99  1  0.72647872  0.18647150  0.87031018  1  0  -0.083072  0  3.387143  0  0  -0.056743  0  3.726503  0  0  -0.051004  0  3.72925  0  0  -0.029423  -0.060544  0  3.724666  0
N  N100  1  0.44265499  0.44046828  0.21619984  1  0  -0.178997  0  3.323255  0  0  -0.127952  0  3.588078  0  0  -0.148733  0  3.60731  0  0  -0.314775  -0.114692  0  3.574235  0
N  N101  1  0.55734338  0.94047041  0.28380052  1  0  -0.179032  0  3.323288  0  0  -0.128013  0  3.588097  0  0  -0.148786  0  3.607325  0  0  -0.314823  -0.114754  0  3.574258  0
N  N102  1  0.55734013  0.55953411  0.78379811  1  0  -0.178918  0  3.323134  0  0  -0.127987  0  3.588033  0  0  -0.148752  0  3.60725  0  0  -0.314785  -0.114731  0  3.574193  0
N  N103  1  0.44266288  0.05953116  0.71619973  1  0  -0.179078  0  3.323233  0  0  -0.127967  0  3.587979  0  0  -0.14883  0  3.607301  0  0  -0.31483  -0.114708  0  3.574145  0
N  N104  1  0.86274675  0.54713239  0.26237632  1  0  -0.176872  0  3.334482  0  0  -0.127567  0  3.602646  0  0  -0.148427  0  3.621475  0  0  -0.317616  -0.114284  0  3.589105  0
N  N105  1  0.13725425  0.04713583  0.23762308  1  0  -0.176881  0  3.334474  0  0  -0.127533  0  3.602586  0  0  -0.148375  0  3.621391  0  0  -0.317625  -0.11425  0  3.589045  0
N  N106  1  0.13725059  0.45286671  0.73762310  1  0  -0.176801  0  3.334382  0  0  -0.127444  0  3.602496  0  0  -0.148305  0  3.621325  0  0  -0.317564  -0.114164  0  3.588956  0
N  N107  1  0.86275090  0.95286573  0.76237770  1  0  -0.176992  0  3.334423  0  0  -0.127535  0  3.602447  0  0  -0.148401  0  3.62129  0  0  -0.317615  -0.114248  0  3.588897  0
N  N108  1  0.70134238  0.37957836  0.31605737  1  0  -0.302159  0  3.374472  0  0  -0.270871  0  3.654724  0  0  -0.28741  0  3.672416  0  0  -0.387893  -0.261052  0  3.641473  0
N  N109  1  0.29865923  0.87958415  0.18394950  1  0  -0.302277  0  3.374151  0  0  -0.270969  0  3.654402  0  0  -0.287505  0  3.672091  0  0  -0.387893  -0.261149  0  3.641152  0
N  N110  1  0.29865163  0.62042238  0.68394425  1  0  -0.302156  0  3.374474  0  0  -0.270882  0  3.654718  0  0  -0.287427  0  3.672422  0  0  -0.387893  -0.261068  0  3.641472  0
N  N111  1  0.70135149  0.12042482  0.81605809  1  0  -0.302001  0  3.374562  0  0  -0.270704  0  3.654801  0  0  -0.287241  0  3.672493  0  0  -0.38782  -0.260888  0  3.64156  0
N  N112  1  0.60270800  0.60948358  0.15653186  1  0  -0.29918  0  3.350788  0  0  -0.27061  0  3.633287  0  0  -0.286133  0  3.650099  0  0  -0.383756  -0.261381  0  3.620656  0
N  N113  1  0.39729312  0.10948421  0.34346764  1  0  -0.299191  0  3.350869  0  0  -0.270613  0  3.633352  0  0  -0.286141  0  3.650183  0  0  -0.383778  -0.261392  0  3.620729  0
N  N114  1  0.39729046  0.39051963  0.84346640  1  0  -0.299079  0  3.350986  0  0  -0.270521  0  3.633464  0  0  -0.286049  0  3.650284  0  0  -0.383705  -0.261307  0  3.620859  0
N  N115  1  0.60271314  0.89051736  0.65653010  1  0  -0.299182  0  3.351028  0  0  -0.2706  0  3.633484  0  0  -0.286123  0  3.650294  0  0  -0.383729  -0.261382  0  3.620874  0
N  N116  1  0.70026391  0.40940777  0.14815723  1  0  -0.299445  0  3.390761  0  0  -0.270109  0  3.676332  0  0  -0.287109  0  3.695808  0  0  -0.387465  -0.259791  0  3.661563  0
N  N117  1  0.29973551  0.90941234  0.35183753  1  0  -0.299584  0  3.39013  0  0  -0.270242  0  3.675722  0  0  -0.287241  0  3.695195  0  0  -0.387507  -0.259924  0  3.660951  0
N  N118  1  0.29973343  0.59059051  0.85184407  1  0  -0.299294  0  3.390798  0  0  -0.269964  0  3.676339  0  0  -0.286968  0  3.695821  0  0  -0.387422  -0.259651  0  3.661574  0
N  N119  1  0.70027075  0.09058593  0.64815896  1  0  -0.299383  0  3.390499  0  0  -0.270039  0  3.67605  0  0  -0.287037  0  3.695518  0  0  -0.387423  -0.259724  0  3.661287  0
N  N120  1  0.60775612  0.58451937  0.32893766  1  0  -0.305244  0  3.358488  0  0  -0.274636  0  3.644207  0  0  -0.291964  0  3.663365  0  0  -0.382594  -0.264176  0  3.629703  0
N  N121  1  0.39224161  0.08451791  0.17106463  1  0  -0.305023  0  3.358103  0  0  -0.27439  0  3.643798  0  0  -0.291715  0  3.662956  0  0  -0.382433  -0.26393  0  3.629293  0
N  N122  1  0.39223677  0.41547890  0.67106259  1  0  -0.305224  0  3.358583  0  0  -0.274631  0  3.644289  0  0  -0.291966  0  3.663452  0  0  -0.382545  -0.264176  0  3.629791  0
N  N123  1  0.60775908  0.91547955  0.82893699  1  0  -0.305193  0  3.358489  0  0  -0.274585  0  3.644212  0  0  -0.291911  0  3.663363  0  0  -0.38253  -0.264124  0  3.62971  0
Cl  Cl124  1  0.12049941  0.39111252  0.01961795  1  0  -0.096006  0  1.481691  0  0  -0.077463  0  1.748637  0  0  -0.083242  0  1.740685  0  0  0.020386  -0.073072  0  1.754337  0
Cl  Cl125  1  0.87949775  0.89111294  0.48038286  1  0  -0.095987  0  1.481774  0  0  -0.077467  0  1.748726  0  0  -0.083249  0  1.74077  0  0  0.020382  -0.073079  0  1.75443  0
Cl  Cl126  1  0.87949570  0.60889233  0.98037811  1  0  -0.096078  0  1.481723  0  0  -0.077541  0  1.74869  0  0  -0.08332  0  1.740738  0  0  0.02035  -0.073149  0  1.754387  0
Cl  Cl127  1  0.12050963  0.10888944  0.51961876  1  0  -0.096044  0  1.481783  0  0  -0.077525  0  1.74872  0  0  -0.083306  0  1.740763  0  0  0.020338  -0.073132  0  1.754412  0
Cl  Cl128  1  0.20125081  0.52455076  0.45248178  1  0  -0.08593  0  1.466742  0  0  -0.065365  0  1.729449  0  0  -0.071058  0  1.720929  0  0  0.029866  -0.061247  0  1.73564  0
Cl  Cl129  1  0.79874904  0.02455094  0.04751936  1  0  -0.08595  0  1.466726  0  0  -0.065374  0  1.729443  0  0  -0.071069  0  1.720924  0  0  0.029867  -0.061257  0  1.735635  0
Cl  Cl130  1  0.79874431  0.47544916  0.54751742  1  0  -0.085888  0  1.466742  0  0  -0.065332  0  1.729444  0  0  -0.071024  0  1.720924  0  0  0.029886  -0.061212  0  1.735637  0
Cl  Cl131  1  0.20125165  0.97544651  0.95248540  1  0  -0.085963  0  1.466744  0  0  -0.065417  0  1.729446  0  0  -0.071114  0  1.720925  0  0  0.029841  -0.061298  0  1.735644  0
