# generated using pymatgen
data_CsH11C10(N2O5)2
_symmetry_space_group_name_H-M   'P 1'
_cell_length_a   5.05579415
_cell_length_b   8.15726622
_cell_length_c   9.07979531
_cell_angle_alpha   79.57077695
_cell_angle_beta   85.49715692
_cell_angle_gamma   88.86312613
_symmetry_Int_Tables_number   1
_chemical_formula_structural   CsH11C10(N2O5)2
_chemical_formula_sum   'Cs1 H11 C10 N4 O10'
_cell_volume   367.13482370
_cell_formula_units_Z   1
loop_
 _symmetry_equiv_pos_site_id
 _symmetry_equiv_pos_as_xyz
  1  'x, y, z'
loop_
 _atom_site_type_symbol
 _atom_site_label
 _atom_site_symmetry_multiplicity
 _atom_site_fract_x
 _atom_site_fract_y
 _atom_site_fract_z
 _atom_site_occupancy
 _atom_site_pbe_bader_charge
 _atom_site_pbe_bader_spin_density
 _atom_site_pbe_cm5_charge
 _atom_site_pbe_ddec_charge
 _atom_site_pbe_ddec_spin_density
 _atom_site_pbe_ddec_sum_bond_order
 _atom_site_pbe_magmom
Cs  Cs0  1  0.49999858  0.00000360  0.49999699  1  0.920377  0  0.816938  0.893511  0  0.736654  0
H  H1  1  0.49999888  0.50000604  0.49999668  1  0.633796  0  0.294955  0.349431  0  1.002118  0
H  H2  1  0.04265440  0.28989729  0.46224579  1  0.637521  0  0.294115  0.390818  0  0.945914  0
H  H3  1  0.95733941  0.71010484  0.53775380  1  0.637526  0  0.2941  0.39082  0  0.945913  0
H  H4  1  0.24413003  0.36862814  0.32435097  1  0.648451  0  0.286275  0.381187  0  0.96277  0
H  H5  1  0.75586379  0.63137523  0.67564731  1  0.648408  0  0.286277  0.381223  0  0.962687  0
H  H6  1  0.98470021  0.25961900  0.20119895  1  0.570355  0  0.315951  0.318416  0  0.973451  0
H  H7  1  0.01530161  0.74037190  0.79880218  1  0.570356  0  0.315952  0.318394  0  0.973483  0
H  H8  1  0.63108319  0.06266233  0.87792778  1  0.530413  0  0.313062  0.299217  0  0.987854  0
H  H9  1  0.36892457  0.93733355  0.12207117  1  0.530252  0  0.313063  0.299211  0  0.987814  0
H  H10  1  0.29409660  0.40391421  0.02169320  1  0.184259  0  0.132027  0.112966  0  1.006902  0
H  H11  1  0.70590518  0.59607921  0.97831191  1  0.184157  0  0.131989  0.112929  0  1.00698  0
C  C12  1  0.35033908  0.42228880  0.72570241  1  1.592101  0  0.220011  0.614772  0  4.189379  0
C  C13  1  0.64965670  0.57771582  0.27429778  1  1.591988  0  0.220003  0.614716  0  4.189465  0
C  C14  1  0.14623940  0.32380938  0.83106522  1  0.094895  0  -0.040317  -0.291805  0  3.953376  0
C  C15  1  0.85376239  0.67618651  0.16893508  1  0.095114  0  -0.040271  -0.291695  0  3.953322  0
C  C16  1  0.14647302  0.33079101  0.98100980  1  0.361296  0  0.068572  0.140665  0  3.922947  0
C  C17  1  0.85353671  0.66920487  0.01899018  1  0.361386  0  0.068598  0.140607  0  3.923102  0
C  C18  1  0.94705113  0.22050266  0.78547016  1  1.303533  0  0.242191  0.544148  0  4.085115  0
C  C19  1  0.05294464  0.77950321  0.21452982  1  1.303378  0  0.242127  0.544038  0  4.085228  0
C  C20  1  0.77457248  0.15146094  0.05285440  1  1.848948  0  0.346256  0.64689  0  4.148292  0
C  C21  1  0.22543525  0.84853619  0.94714655  1  1.848609  0  0.346238  0.646771  0  4.148479  0
N  N22  1  0.96888532  0.25022886  0.08728478  1  -1.31747  0  -0.372615  -0.336043  0  3.56831  0
N  N23  1  0.03111645  0.74976456  0.91272034  1  -1.317435  0  -0.372622  -0.33594  0  3.568391  0
N  N24  1  0.77560319  0.13987813  0.90430621  1  -1.241273  0  -0.387461  -0.4571  0  3.491259  0
N  N25  1  0.22439858  0.86011901  0.09569609  1  -1.241109  0  -0.387449  -0.45704  0  3.491309  0
O  O26  1  0.35196879  0.40663023  0.58644145  1  -1.178158  0  -0.326525  -0.522016  0  2.339695  0
O  O27  1  0.64802496  0.59338188  0.41355758  1  -1.178072  0  -0.326506  -0.522036  0  2.339833  0
O  O28  1  0.50716367  0.51227419  0.77663228  1  -1.185715  0  -0.31362  -0.555117  0  2.180585  0
O  O29  1  0.49284008  0.48772543  0.22336732  1  -1.185682  0  -0.313625  -0.555069  0  2.180588  0
O  O30  1  0.91445016  0.19421005  0.65736845  1  -1.154169  0  -0.339531  -0.53001  0  2.201593  0
O  O31  1  0.08554361  0.80579707  0.34263141  1  -1.154208  0  -0.339512  -0.529978  0  2.201758  0
O  O32  1  0.61189531  0.07632837  0.15132085  1  -1.184039  0  -0.354318  -0.562904  0  2.187847  0
O  O33  1  0.38811444  0.92366377  0.84867865  1  -1.183677  0  -0.35427  -0.562836  0  2.187996  0
O  O34  1  0.09830367  0.28597561  0.35639067  1  -1.288082  0  -0.640035  -0.815569  0  2.056895  0
O  O35  1  0.90169014  0.71402901  0.64360741  1  -1.288033  0  -0.640022  -0.815571  0  2.056904  0
