# generated using pymatgen
data_CdH14C11N2O5
_symmetry_space_group_name_H-M   'P 1'
_cell_length_a   5.87633482
_cell_length_b   15.47428595
_cell_length_c   15.99847474
_cell_angle_alpha   89.99856890
_cell_angle_beta   90.00066651
_cell_angle_gamma   90.00036926
_symmetry_Int_Tables_number   1
_chemical_formula_structural   CdH14C11N2O5
_chemical_formula_sum   'Cd4 H56 C44 N8 O20'
_cell_volume   1454.77466948
_cell_formula_units_Z   4
loop_
 _symmetry_equiv_pos_site_id
 _symmetry_equiv_pos_as_xyz
  1  'x, y, z'
loop_
 _atom_site_type_symbol
 _atom_site_label
 _atom_site_symmetry_multiplicity
 _atom_site_fract_x
 _atom_site_fract_y
 _atom_site_fract_z
 _atom_site_occupancy
 _atom_site_hle17_bader_spin_density
 _atom_site_hle17_ddec_charge
 _atom_site_hle17_ddec_spin_density
 _atom_site_hle17_ddec_sum_bond_order
 _atom_site_hle17_magmom
 _atom_site_hse06_10hf_bader_spin_density
 _atom_site_hse06_10hf_ddec_charge
 _atom_site_hse06_10hf_ddec_spin_density
 _atom_site_hse06_10hf_ddec_sum_bond_order
 _atom_site_hse06_10hf_magmom
 _atom_site_hse06_bader_spin_density
 _atom_site_hse06_ddec_charge
 _atom_site_hse06_ddec_spin_density
 _atom_site_hse06_ddec_sum_bond_order
 _atom_site_hse06_magmom
 _atom_site_pbe_bader_spin_density
 _atom_site_pbe_cm5_charge
 _atom_site_pbe_ddec_charge
 _atom_site_pbe_ddec_spin_density
 _atom_site_pbe_ddec_sum_bond_order
 _atom_site_pbe_magmom
Cd  Cd0  1  0.07404784  0.29547825  0.15580317  1  0  1.100278  0  1.620451  0  0  0.901227  0  2.051577  0  0  0.960953  0  2.001533  0  0  0.767522  0.858846  0  2.085731  0
Cd  Cd1  1  0.42595799  0.70452280  0.65580756  1  0  1.100276  0  1.620479  0  0  0.901205  0  2.051637  0  0  0.960932  0  2.001588  0  0  0.767496  0.858825  0  2.085789  0
Cd  Cd2  1  0.57404588  0.20452124  0.84419417  1  0  1.100195  0  1.620685  0  0  0.90115  0  2.051849  0  0  0.960868  0  2.001805  0  0  0.76752  0.858779  0  2.086  0
Cd  Cd3  1  0.92595533  0.79548113  0.34419581  1  0  1.100209  0  1.62053  0  0  0.901143  0  2.051683  0  0  0.960866  0  2.001632  0  0  0.767517  0.858766  0  2.085824  0
H  H4  1  0.55367892  0.37933656  0.09551858  1  0  0.089387  0  0.976706  0  0  0.093885  0  1.047949  0  0  0.096587  0  1.045174  0  0  0.115436  0.091841  0  1.050057  0
H  H5  1  0.94631512  0.62067836  0.59552212  1  0  0.089374  0  0.976619  0  0  0.09388  0  1.047869  0  0  0.096557  0  1.045117  0  0  0.115393  0.091821  0  1.049975  0
H  H6  1  0.05367853  0.12067911  0.90447824  1  0  0.089269  0  0.976781  0  0  0.09385  0  1.04793  0  0  0.096503  0  1.045211  0  0  0.115422  0.091833  0  1.050003  0
H  H7  1  0.44632767  0.87932555  0.40448928  1  0  0.089356  0  0.976781  0  0  0.09392  0  1.047921  0  0  0.096576  0  1.045201  0  0  0.115481  0.091905  0  1.049998  0
H  H8  1  0.80720999  0.50308750  0.12588614  1  0  0.113218  0  0.946009  0  0  0.123744  0  1.004305  0  0  0.127335  0  1.003176  0  0  0.108098  0.121138  0  1.005354  0
H  H9  1  0.69277509  0.49692927  0.62588471  1  0  0.113134  0  0.946203  0  0  0.123704  0  1.004438  0  0  0.127295  0  1.00331  0  0  0.108102  0.121096  0  1.005496  0
H  H10  1  0.30722537  0.99693400  0.87412151  1  0  0.113237  0  0.946182  0  0  0.123818  0  1.00439  0  0  0.12741  0  1.00326  0  0  0.108139  0.121209  0  1.00544  0
H  H11  1  0.19278128  0.00306881  0.37412459  1  0  0.113185  0  0.94614  0  0  0.123775  0  1.004362  0  0  0.127368  0  1.00323  0  0  0.108127  0.121165  0  1.00542  0
H  H12  1  0.06095973  0.46778050  0.25818495  1  0  0.067643  0  0.974586  0  0  0.074272  0  1.045359  0  0  0.076531  0  1.043177  0  0  0.10982  0.072607  0  1.046935  0
H  H13  1  0.43905436  0.53220170  0.75817093  1  0  0.06762  0  0.974646  0  0  0.074275  0  1.045362  0  0  0.076532  0  1.043182  0  0  0.109928  0.072606  0  1.046938  0
H  H14  1  0.56097143  0.03221836  0.74181434  1  0  0.06764  0  0.974473  0  0  0.074264  0  1.04526  0  0  0.076524  0  1.043076  0  0  0.109851  0.072597  0  1.046838  0
H  H15  1  0.93902834  0.96777637  0.24182113  1  0  0.067599  0  0.974473  0  0  0.074234  0  1.045242  0  0  0.076482  0  1.043072  0  0  0.109847  0.072567  0  1.046821  0
H  H16  1  0.28788621  0.59910518  0.29419247  1  0  0.122843  0  0.98917  0  0  0.126279  0  1.060482  0  0  0.130163  0  1.058649  0  0  0.109099  0.123439  0  1.062039  0
H  H17  1  0.21210925  0.40088444  0.79418090  1  0  0.122766  0  0.989204  0  0  0.126224  0  1.060486  0  0  0.130106  0  1.058662  0  0  0.109077  0.12338  0  1.062051  0
H  H18  1  0.78790772  0.90089436  0.70581341  1  0  0.122866  0  0.988948  0  0  0.126321  0  1.060255  0  0  0.130203  0  1.058433  0  0  0.109128  0.123478  0  1.061817  0
H  H19  1  0.71210556  0.09910199  0.20581144  1  0  0.12278  0  0.989073  0  0  0.126239  0  1.060355  0  0  0.130116  0  1.058547  0  0  0.109103  0.123394  0  1.061919  0
H  H20  1  0.10738879  0.68009915  0.45862519  1  0  0.3681  0  0.937267  0  0  0.34138  0  1.009157  0  0  0.352689  0  0.997341  0  0  0.288244  0.333431  0  1.017383  0
H  H21  1  0.39259545  0.31991728  0.95861828  1  0  0.368058  0  0.937372  0  0  0.341499  0  1.008998  0  0  0.352813  0  0.997158  0  0  0.288283  0.333553  0  1.017224  0
H  H22  1  0.60741482  0.81991350  0.54138089  1  0  0.368086  0  0.937413  0  0  0.341506  0  1.009058  0  0  0.352815  0  0.997235  0  0  0.288281  0.333561  0  1.017283  0
H  H23  1  0.89259607  0.18008836  0.04137198  1  0  0.368215  0  0.937183  0  0  0.341518  0  1.009041  0  0  0.352826  0  0.997218  0  0  0.288323  0.333572  0  1.017262  0
H  H24  1  0.91470612  0.55264908  0.46634883  1  0  0.057373  0  0.933643  0  0  0.072194  0  0.997368  0  0  0.072933  0  0.996461  0  0  0.102716  0.071558  0  0.998174  0
H  H25  1  0.58531208  0.44736005  0.96634694  1  0  0.057394  0  0.933659  0  0  0.072257  0  0.997311  0  0  0.072998  0  0.996394  0  0  0.102743  0.071621  0  0.998114  0
H  H26  1  0.41472720  0.94736197  0.53365396  1  0  0.057365  0  0.933706  0  0  0.072286  0  0.997296  0  0  0.073025  0  0.996378  0  0  0.102769  0.07165  0  0.998103  0
H  H27  1  0.08530248  0.05264331  0.03364973  1  0  0.057362  0  0.933618  0  0  0.072196  0  0.997311  0  0  0.072934  0  0.996394  0  0  0.102718  0.071561  0  0.998115  0
H  H28  1  0.95024310  0.53848802  0.35753842  1  0  0.051302  0  0.945031  0  0  0.067253  0  1.009409  0  0  0.067521  0  1.009083  0  0  0.099963  0.066981  0  1.009729  0
H  H29  1  0.54977813  0.46152861  0.85753473  1  0  0.051181  0  0.945271  0  0  0.067121  0  1.009612  0  0  0.067389  0  1.009285  0  0  0.099865  0.066865  0  1.009913  0
H  H30  1  0.45025152  0.96152170  0.64246483  1  0  0.0512  0  0.945314  0  0  0.067164  0  1.009653  0  0  0.067429  0  1.009324  0  0  0.099887  0.066907  0  1.009954  0
H  H31  1  0.04976492  0.03847737  0.14246023  1  0  0.051248  0  0.945243  0  0  0.067192  0  1.009598  0  0  0.067458  0  1.00927  0  0  0.099939  0.066937  0  1.009898  0
H  H32  1  0.52152136  0.71324631  0.31063941  1  0  0.278861  0  0.92844  0  0  0.263963  0  0.991281  0  0  0.27136  0  0.986057  0  0  0.291582  0.258681  0  0.995016  0
H  H33  1  0.97846298  0.28675758  0.81064230  1  0  0.278816  0  0.928547  0  0  0.26394  0  0.991348  0  0  0.271341  0  0.986116  0  0  0.291532  0.258658  0  0.99509  0
H  H34  1  0.02154595  0.78676319  0.68936206  1  0  0.278788  0  0.928579  0  0  0.263925  0  0.991355  0  0  0.271327  0  0.986118  0  0  0.291491  0.258644  0  0.995095  0
H  H35  1  0.47846315  0.21324280  0.18935757  1  0  0.278715  0  0.92869  0  0  0.263849  0  0.991461  0  0  0.271249  0  0.986234  0  0  0.291482  0.258569  0  0.995194  0
H  H36  1  0.90214079  0.61413044  0.23742560  1  0  0.071886  0  0.942301  0  0  0.088459  0  1.008965  0  0  0.088426  0  1.009685  0  0  0.107947  0.08844  0  1.008489  0
H  H37  1  0.59784493  0.38587224  0.73742027  1  0  0.071945  0  0.94223  0  0  0.088508  0  1.008889  0  0  0.088474  0  1.00961  0  0  0.107962  0.088493  0  1.008414  0
H  H38  1  0.40215952  0.88587610  0.76258850  1  0  0.072043  0  0.942231  0  0  0.088587  0  1.008892  0  0  0.088554  0  1.009612  0  0  0.10797  0.088568  0  1.008416  0
H  H39  1  0.09785500  0.11412400  0.26258009  1  0  0.071939  0  0.942216  0  0  0.088532  0  1.00891  0  0  0.088504  0  1.00962  0  0  0.107953  0.088514  0  1.008438  0
H  H40  1  0.71811188  0.68626939  0.18790359  1  0  0.093144  0  0.924695  0  0  0.111861  0  0.983391  0  0  0.112453  0  0.983256  0  0  0.117784  0.111359  0  0.98359  0
H  H41  1  0.78186562  0.31373101  0.68790535  1  0  0.09312  0  0.92465  0  0  0.111852  0  0.983322  0  0  0.112442  0  0.983193  0  0  0.117776  0.11135  0  0.983519  0
H  H42  1  0.21811206  0.81373539  0.81209948  1  0  0.093098  0  0.924786  0  0  0.111816  0  0.983453  0  0  0.112405  0  0.983324  0  0  0.117761  0.111315  0  0.983649  0
H  H43  1  0.28189025  0.18626182  0.31209417  1  0  0.093108  0  0.924774  0  0  0.111866  0  0.983468  0  0  0.112455  0  0.983339  0  0  0.117787  0.111363  0  0.98367  0
H  H44  1  0.55496497  0.57274949  0.38994544  1  0  0.076119  0  0.923111  0  0  0.088331  0  0.979565  0  0  0.090504  0  0.978262  0  0  0.111399  0.086765  0  0.98063  0
H  H45  1  0.94504410  0.42724888  0.88993952  1  0  0.076127  0  0.923038  0  0  0.08842  0  0.97952  0  0  0.090595  0  0.978219  0  0  0.111408  0.086852  0  0.980575  0
H  H46  1  0.05497735  0.92726321  0.61005900  1  0  0.076101  0  0.923048  0  0  0.088446  0  0.979523  0  0  0.09062  0  0.978223  0  0  0.111423  0.086882  0  0.980582  0
H  H47  1  0.44503423  0.07275154  0.11005425  1  0  0.076139  0  0.923081  0  0  0.088374  0  0.979555  0  0  0.090548  0  0.978255  0  0  0.11142  0.086808  0  0.980611  0
H  H48  1  0.47230626  0.31525084  0.35672448  1  0  0.145404  0  0.939016  0  0  0.164151  0  0.99762  0  0  0.167138  0  0.995906  0  0  0.098112  0.162011  0  0.998878  0
H  H49  1  0.02770210  0.68471333  0.85673331  1  0  0.14557  0  0.93866  0  0  0.164285  0  0.997324  0  0  0.167266  0  0.995621  0  0  0.09823  0.162146  0  0.99858  0
H  H50  1  0.97230437  0.18474891  0.64326854  1  0  0.145403  0  0.938989  0  0  0.164149  0  0.997603  0  0  0.167135  0  0.995892  0  0  0.098087  0.162008  0  0.998861  0
H  H51  1  0.52767560  0.81526255  0.14327001  1  0  0.145391  0  0.938863  0  0  0.164127  0  0.997504  0  0  0.167114  0  0.995791  0  0  0.098104  0.16199  0  0.99876  0
H  H52  1  0.70550301  0.32873404  0.42872014  1  0  0.130273  0  0.936981  0  0  0.151445  0  0.990069  0  0  0.153748  0  0.989166  0  0  0.095349  0.149791  0  0.990763  0
H  H53  1  0.79448090  0.67121152  0.92872845  1  0  0.130037  0  0.936984  0  0  0.151284  0  0.98999  0  0  0.153584  0  0.98909  0  0  0.09524  0.149629  0  0.990683  0
H  H54  1  0.20550630  0.17126338  0.57127535  1  0  0.130269  0  0.936931  0  0  0.151456  0  0.989992  0  0  0.15376  0  0.989085  0  0  0.095329  0.149801  0  0.990684  0
H  H55  1  0.29447769  0.82874149  0.07126614  1  0  0.130123  0  0.93694  0  0  0.151323  0  0.989999  0  0  0.153626  0  0.989094  0  0  0.095266  0.149669  0  0.99069  0
H  H56  1  0.62646861  0.22415622  0.39357729  1  0  0.130628  0  0.933363  0  0  0.151696  0  0.989505  0  0  0.153601  0  0.989458  0  0  0.098742  0.150384  0  0.98953  0
H  H57  1  0.87352379  0.77580579  0.89360149  1  0  0.130518  0  0.933276  0  0  0.151575  0  0.98945  0  0  0.153481  0  0.989402  0  0  0.098679  0.150264  0  0.989475  0
H  H58  1  0.12646937  0.27584322  0.60641419  1  0  0.130657  0  0.933337  0  0  0.151711  0  0.989495  0  0  0.153616  0  0.989447  0  0  0.098732  0.150402  0  0.989515  0
H  H59  1  0.37352144  0.72416265  0.10641649  1  0  0.130588  0  0.933301  0  0  0.151629  0  0.989486  0  0  0.153535  0  0.989438  0  0  0.098716  0.150319  0  0.989506  0
C  C60  1  0.49973683  0.42995831  0.13821387  1  0  0.148155  0  3.701924  0  0  0.113064  0  3.959884  0  0  0.122263  0  3.976864  0  0  0.045717  0.107109  0  3.94835  0
C  C61  1  0.00026388  0.57004741  0.63821101  1  0  0.148012  0  3.701919  0  0  0.112923  0  3.959842  0  0  0.122145  0  3.976837  0  0  0.045669  0.10699  0  3.948292  0
C  C62  1  0.99974473  0.07005498  0.86178778  1  0  0.148187  0  3.701618  0  0  0.113052  0  3.959559  0  0  0.122287  0  3.976556  0  0  0.045684  0.10708  0  3.948004  0
C  C63  1  0.50026841  0.92994595  0.36179368  1  0  0.14801  0  3.701754  0  0  0.112908  0  3.959711  0  0  0.122138  0  3.976711  0  0  0.045609  0.10693  0  3.948163  0
C  C64  1  0.64126272  0.49958754  0.15632944  1  0  -0.184996  0  3.712509  0  0  -0.201383  0  3.959133  0  0  -0.211025  0  3.980851  0  0  -0.08881  -0.195223  0  3.944676  0
C  C65  1  0.85872362  0.50041881  0.65632473  1  0  -0.184816  0  3.712381  0  0  -0.201247  0  3.958993  0  0  -0.210889  0  3.980708  0  0  -0.088779  -0.195088  0  3.944534  0
C  C66  1  0.14128045  0.00042481  0.84367823  1  0  -0.184978  0  3.7122  0  0  -0.201442  0  3.958795  0  0  -0.211084  0  3.980501  0  0  -0.088785  -0.195278  0  3.944338  0
C  C67  1  0.35873174  0.99957420  0.34367957  1  0  -0.184801  0  3.712387  0  0  -0.201311  0  3.959001  0  0  -0.210952  0  3.980711  0  0  -0.088715  -0.195154  0  3.944559  0
C  C68  1  0.22488726  0.48017067  0.22874048  1  0  0.125291  0  3.745525  0  0  0.095458  0  3.996292  0  0  0.103066  0  4.015452  0  0  0.040777  0.090577  0  3.98325  0
C  C69  1  0.27512056  0.51981674  0.72872978  1  0  0.125466  0  3.74581  0  0  0.095616  0  3.996578  0  0  0.103228  0  4.015735  0  0  0.040715  0.090742  0  3.983528  0
C  C70  1  0.72490302  0.01982673  0.77126055  1  0  0.125406  0  3.745703  0  0  0.095559  0  3.996491  0  0  0.103169  0  4.015648  0  0  0.040707  0.090681  0  3.983447  0
C  C71  1  0.77510301  0.98016860  0.27126302  1  0  0.12556  0  3.745544  0  0  0.09571  0  3.996354  0  0  0.103327  0  4.015517  0  0  0.040786  0.090825  0  3.98331  0
C  C72  1  0.57064284  0.56210353  0.21398116  1  0  0.127414  0  3.714928  0  0  0.145232  0  3.951205  0  0  0.149711  0  3.974573  0  0  0.008575  0.142437  0  3.935293  0
C  C73  1  0.92935251  0.43789504  0.71397962  1  0  0.127342  0  3.715002  0  0  0.145149  0  3.951324  0  0  0.149627  0  3.974691  0  0  0.008556  0.142351  0  3.935412  0
C  C74  1  0.07064895  0.93790269  0.78602071  1  0  0.127419  0  3.714951  0  0  0.145293  0  3.951138  0  0  0.149773  0  3.974505  0  0  0.008556  0.142496  0  3.935223  0
C  C75  1  0.42935763  0.06209570  0.28602610  1  0  0.127331  0  3.714969  0  0  0.145273  0  3.951192  0  0  0.149753  0  3.974557  0  0  0.008519  0.142481  0  3.935273  0
C  C76  1  0.35417100  0.55229754  0.24940256  1  0  -0.186465  0  3.71061  0  0  -0.203028  0  3.956357  0  0  -0.212129  0  3.978192  0  0  -0.093323  -0.197235  0  3.941905  0
C  C77  1  0.14582692  0.44769669  0.74938914  1  0  -0.186467  0  3.71131  0  0  -0.203041  0  3.957085  0  0  -0.212143  0  3.978918  0  0  -0.093289  -0.197252  0  3.942633  0
C  C78  1  0.85418856  0.94771293  0.75060863  1  0  -0.186523  0  3.711145  0  0  -0.20311  0  3.956886  0  0  -0.212212  0  3.978721  0  0  -0.093307  -0.197314  0  3.942431  0
C  C79  1  0.64581717  0.05229045  0.25060538  1  0  -0.186524  0  3.710915  0  0  -0.203089  0  3.956613  0  0  -0.212189  0  3.97844  0  0  -0.093301  -0.197291  0  3.942155  0
C  C80  1  0.61712541  0.68150422  0.46882874  1  0  0.665902  0  3.833842  0  0  0.610429  0  4.140646  0  0  0.64518  0  4.132684  0  0  0.212304  0.586766  0  4.145376  0
C  C81  1  0.88287602  0.31849381  0.96882501  1  0  0.666205  0  3.833808  0  0  0.61063  0  4.140905  0  0  0.645382  0  4.132937  0  0  0.212419  0.586948  0  4.145659  0
C  C82  1  0.11711718  0.81850841  0.53117417  1  0  0.666042  0  3.834315  0  0  0.610652  0  4.141207  0  0  0.645409  0  4.133232  0  0  0.212213  0.586969  0  4.145966  0
C  C83  1  0.38288333  0.18150797  0.03117593  1  0  0.666028  0  3.833875  0  0  0.610532  0  4.140767  0  0  0.645286  0  4.132802  0  0  0.212369  0.58686  0  4.145507  0
C  C84  1  0.80812143  0.29799488  0.30244359  1  0  0.721355  0  3.875109  0  0  0.684686  0  4.165307  0  0  0.71791  0  4.160626  0  0  0.188536  0.66218  0  4.167435  0
C  C85  1  0.69187742  0.70198482  0.80244843  1  0  0.72102  0  3.875298  0  0  0.68435  0  4.165513  0  0  0.717572  0  4.160841  0  0  0.188391  0.661849  0  4.167628  0
C  C86  1  0.30812294  0.20200761  0.69755081  1  0  0.721206  0  3.875262  0  0  0.684598  0  4.165373  0  0  0.717819  0  4.160695  0  0  0.188568  0.662095  0  4.167497  0
C  C87  1  0.19183930  0.79799607  0.19754538  1  0  0.721157  0  3.875549  0  0  0.684405  0  4.165865  0  0  0.717626  0  4.161192  0  0  0.188462  0.661895  0  4.167995  0
C  C88  1  0.91546627  0.58691373  0.40609611  1  0  0.110851  0  3.643507  0  0  0.04851  0  3.91362  0  0  0.056259  0  3.919649  0  0  -0.074528  0.043287  0  3.909382  0
C  C89  1  0.58454607  0.41310200  0.90608880  1  0  0.110816  0  3.643936  0  0  0.048635  0  3.913995  0  0  0.056395  0  3.920016  0  0  -0.074453  0.043399  0  3.909748  0
C  C90  1  0.41547139  0.91309990  0.59390918  1  0  0.110904  0  3.643872  0  0  0.048647  0  3.914026  0  0  0.056418  0  3.920032  0  0  -0.074421  0.043413  0  3.909785  0
C  C91  1  0.08454202  0.08690330  0.09390537  1  0  0.110893  0  3.643867  0  0  0.048641  0  3.913889  0  0  0.056415  0  3.919886  0  0  -0.074461  0.043399  0  3.909654  0
C  C92  1  0.72466666  0.63657939  0.23705841  1  0  -0.021759  0  3.673827  0  0  -0.086607  0  3.931242  0  0  -0.082676  0  3.942525  0  0  -0.06449  -0.08915  0  3.923259  0
C  C93  1  0.77531222  0.36342460  0.73705490  1  0  -0.021772  0  3.673747  0  0  -0.086608  0  3.931192  0  0  -0.082674  0  3.942469  0  0  -0.064512  -0.089153  0  3.923219  0
C  C94  1  0.22468961  0.86343055  0.76294838  1  0  -0.021957  0  3.674191  0  0  -0.086776  0  3.931523  0  0  -0.082844  0  3.942806  0  0  -0.064533  -0.089317  0  3.923534  0
C  C95  1  0.27532494  0.13656823  0.26294465  1  0  -0.021717  0  3.673919  0  0  -0.086747  0  3.931552  0  0  -0.082813  0  3.942836  0  0  -0.064562  -0.089295  0  3.923574  0
C  C96  1  0.67799865  0.62645201  0.39222208  1  0  -0.039747  0  3.641289  0  0  -0.062931  0  3.890438  0  0  -0.065047  0  3.902834  0  0  -0.011697  -0.061553  0  3.881903  0
C  C97  1  0.82200043  0.37355077  0.89221643  1  0  -0.039659  0  3.640878  0  0  -0.063188  0  3.890616  0  0  -0.065318  0  3.903029  0  0  -0.011691  -0.061785  0  3.88204  0
C  C98  1  0.17800522  0.87356121  0.60778116  1  0  -0.03951  0  3.640864  0  0  -0.063262  0  3.890839  0  0  -0.065391  0  3.903243  0  0  -0.011711  -0.061872  0  3.882281  0
C  C99  1  0.32199764  0.12644847  0.10777728  1  0  -0.039689  0  3.641268  0  0  -0.06299  0  3.890595  0  0  -0.065119  0  3.902998  0  0  -0.011739  -0.061601  0  3.882033  0
C  C100  1  0.64221189  0.29235365  0.37477776  1  0  -0.446189  0  3.66489  0  0  -0.517605  0  3.889419  0  0  -0.524685  0  3.892024  0  0  -0.244399  -0.512631  0  3.887433  0
C  C101  1  0.85778209  0.70760792  0.87479431  1  0  -0.445935  0  3.664316  0  0  -0.51739  0  3.888812  0  0  -0.524466  0  3.891422  0  0  -0.244324  -0.512421  0  3.886821  0
C  C102  1  0.14221170  0.20764577  0.62521303  1  0  -0.446243  0  3.664755  0  0  -0.517691  0  3.88923  0  0  -0.524769  0  3.891836  0  0  -0.244394  -0.512714  0  3.887235  0
C  C103  1  0.35776733  0.79236118  0.12521249  1  0  -0.445956  0  3.664496  0  0  -0.517349  0  3.889049  0  0  -0.52443  0  3.891654  0  0  -0.2443  -0.512383  0  3.887057  0
N  N104  1  0.29498320  0.41962368  0.17434906  1  0  -0.32841  0  3.24583  0  0  -0.249815  0  3.509255  0  0  -0.270785  0  3.527215  0  0  -0.330856  -0.235582  0  3.496701  0
N  N105  1  0.20502273  0.58037524  0.67434395  1  0  -0.328408  0  3.245847  0  0  -0.249825  0  3.509286  0  0  -0.270797  0  3.527235  0  0  -0.330851  -0.235596  0  3.496724  0
N  N106  1  0.79497949  0.08038271  0.82565040  1  0  -0.328416  0  3.245588  0  0  -0.249822  0  3.509017  0  0  -0.270791  0  3.526959  0  0  -0.330842  -0.235595  0  3.496472  0
N  N107  1  0.70502843  0.91961728  0.32565542  1  0  -0.328434  0  3.245661  0  0  -0.249865  0  3.509113  0  0  -0.270834  0  3.527054  0  0  -0.330909  -0.235636  0  3.496568  0
N  N108  1  0.67406503  0.68034184  0.31627844  1  0  -0.432684  0  3.257186  0  0  -0.359044  0  3.506732  0  0  -0.37892  0  3.517774  0  0  -0.485049  -0.345145  0  3.498719  0
N  N109  1  0.82591475  0.31965792  0.81627434  1  0  -0.432652  0  3.257328  0  0  -0.358954  0  3.506979  0  0  -0.378833  0  3.518024  0  0  -0.484996  -0.345062  0  3.49898  0
N  N110  1  0.17408360  0.81966880  0.68372545  1  0  -0.432675  0  3.257414  0  0  -0.358931  0  3.50707  0  0  -0.378807  0  3.518114  0  0  -0.484925  -0.345038  0  3.499066  0
N  N111  1  0.32592494  0.18033422  0.18372310  1  0  -0.432662  0  3.257424  0  0  -0.358957  0  3.507052  0  0  -0.378835  0  3.518091  0  0  -0.484885  -0.345056  0  3.499041  0
O  O112  1  0.62479470  0.76323743  0.46011202  1  0  -0.628009  0  2.064429  0  0  -0.557667  0  2.29481  0  0  -0.585692  0  2.286518  0  0  -0.307382  -0.538134  0  2.29996  0
O  O113  1  0.87521779  0.23676810  0.96010756  1  0  -0.628188  0  2.064802  0  0  -0.557761  0  2.295317  0  0  -0.585776  0  2.287013  0  0  -0.307501  -0.538226  0  2.300478  0
O  O114  1  0.12475506  0.73677843  0.53989210  1  0  -0.628241  0  2.065017  0  0  -0.557768  0  2.295324  0  0  -0.585796  0  2.287031  0  0  -0.307359  -0.538216  0  2.300466  0
O  O115  1  0.37522418  0.26323368  0.03988903  1  0  -0.628  0  2.064736  0  0  -0.557641  0  2.295144  0  0  -0.585667  0  2.286849  0  0  -0.307384  -0.538107  0  2.300296  0
O  O116  1  0.57319228  0.64069892  0.53553719  1  0  -0.632674  0  2.003212  0  0  -0.573118  0  2.264562  0  0  -0.601521  0  2.252654  0  0  -0.326791  -0.55328  0  2.272122  0
O  O117  1  0.92679592  0.35929933  0.03553519  1  0  -0.632837  0  2.003077  0  0  -0.57316  0  2.264425  0  0  -0.601568  0  2.252523  0  0  -0.326823  -0.553315  0  2.271993  0
O  O118  1  0.07318602  0.85931441  0.46446966  1  0  -0.632766  0  2.003386  0  0  -0.573187  0  2.264645  0  0  -0.601588  0  2.252733  0  0  -0.326765  -0.553346  0  2.27222  0
O  O119  1  0.42680559  0.14070240  0.96446054  1  0  -0.632784  0  2.002935  0  0  -0.573225  0  2.264326  0  0  -0.601631  0  2.252415  0  0  -0.326845  -0.553383  0  2.271892  0
O  O120  1  0.09111680  0.65007384  0.40239433  1  0  -0.561452  0  2.10845  0  0  -0.497433  0  2.346039  0  0  -0.517371  0  2.33473  0  0  -0.407902  -0.483187  0  2.353422  0
O  O121  1  0.40889260  0.34994901  0.90239404  1  0  -0.561391  0  2.108781  0  0  -0.497566  0  2.3463  0  0  -0.517506  0  2.334979  0  0  -0.407989  -0.483327  0  2.353695  0
O  O122  1  0.59111038  0.84994076  0.59760619  1  0  -0.561525  0  2.108649  0  0  -0.497669  0  2.346243  0  0  -0.517612  0  2.334922  0  0  -0.408058  -0.483426  0  2.353635  0
O  O123  1  0.90889407  0.15005855  0.09759865  1  0  -0.561568  0  2.108458  0  0  -0.497658  0  2.346132  0  0  -0.5176  0  2.334814  0  0  -0.408046  -0.483413  0  2.35352  0
O  O124  1  0.73396749  0.27859601  0.22874429  1  0  -0.668462  0  1.969087  0  0  -0.595093  0  2.205496  0  0  -0.626344  0  2.197527  0  0  -0.336236  -0.573221  0  2.210182  0
O  O125  1  0.76603781  0.72140448  0.72875118  1  0  -0.668329  0  1.969019  0  0  -0.594944  0  2.205391  0  0  -0.626188  0  2.197416  0  0  -0.33614  -0.573077  0  2.210073  0
O  O126  1  0.23398207  0.22140978  0.77124920  1  0  -0.668457  0  1.96915  0  0  -0.595053  0  2.205461  0  0  -0.626291  0  2.19748  0  0  -0.336223  -0.573183  0  2.21015  0
O  O127  1  0.26600947  0.77860414  0.27124729  1  0  -0.668465  0  1.969152  0  0  -0.59503  0  2.205547  0  0  -0.626268  0  2.197568  0  0  -0.336238  -0.573158  0  2.210232  0
O  O128  1  0.01239521  0.31992104  0.31517531  1  0  -0.664463  0  1.887396  0  0  -0.613766  0  2.107633  0  0  -0.640108  0  2.098456  0  0  -0.346231  -0.595265  0  2.113203  0
O  O129  1  0.48760741  0.68005600  0.81517143  1  0  -0.66431  0  1.887651  0  0  -0.613587  0  2.107843  0  0  -0.639926  0  2.098664  0  0  -0.34617  -0.595086  0  2.113403  0
O  O130  1  0.51238866  0.18008045  0.68482232  1  0  -0.664284  0  1.8876  0  0  -0.613603  0  2.10778  0  0  -0.639951  0  2.098618  0  0  -0.346184  -0.595102  0  2.113347  0
O  O131  1  0.98757322  0.81992073  0.18481040  1  0  -0.664296  0  1.887775  0  0  -0.613553  0  2.107999  0  0  -0.639901  0  2.098841  0  0  -0.346132  -0.595051  0  2.113565  0
