# generated using pymatgen
data_CuH4C3SN3
_symmetry_space_group_name_H-M   'P 1'
_cell_length_a   5.05233213
_cell_length_b   8.58970931
_cell_length_c   11.65957982
_cell_angle_alpha   108.63120302
_cell_angle_beta   89.99953060
_cell_angle_gamma   89.99925593
_symmetry_Int_Tables_number   1
_chemical_formula_structural   CuH4C3SN3
_chemical_formula_sum   'Cu4 H16 C12 S4 N12'
_cell_volume   479.48587753
_cell_formula_units_Z   4
loop_
 _symmetry_equiv_pos_site_id
 _symmetry_equiv_pos_as_xyz
  1  'x, y, z'
loop_
 _atom_site_type_symbol
 _atom_site_label
 _atom_site_symmetry_multiplicity
 _atom_site_fract_x
 _atom_site_fract_y
 _atom_site_fract_z
 _atom_site_occupancy
 _atom_site_hle17_bader_spin_density
 _atom_site_hle17_ddec_charge
 _atom_site_hle17_ddec_spin_density
 _atom_site_hle17_ddec_sum_bond_order
 _atom_site_hle17_magmom
 _atom_site_hse06_10hf_bader_spin_density
 _atom_site_hse06_10hf_ddec_charge
 _atom_site_hse06_10hf_ddec_spin_density
 _atom_site_hse06_10hf_ddec_sum_bond_order
 _atom_site_hse06_10hf_magmom
 _atom_site_hse06_bader_spin_density
 _atom_site_hse06_ddec_charge
 _atom_site_hse06_ddec_spin_density
 _atom_site_hse06_ddec_sum_bond_order
 _atom_site_hse06_magmom
 _atom_site_pbe_bader_spin_density
 _atom_site_pbe_cm5_charge
 _atom_site_pbe_ddec_charge
 _atom_site_pbe_ddec_spin_density
 _atom_site_pbe_ddec_sum_bond_order
 _atom_site_pbe_magmom
Cu  Cu0  1  0.99758189  0.33676159  0.34347857  1  0  0.348239  0  2.157361  0  0  0.253164  0  2.671918  0  0  0.250738  0  2.627503  0  0  0.4249  0.257601  0  2.700329  0
Cu  Cu1  1  0.49758081  0.16324026  0.15651963  1  0  0.348254  0  2.157425  0  0  0.253168  0  2.671999  0  0  0.250742  0  2.627587  0  0  0.4249  0.257589  0  2.700377  0
Cu  Cu2  1  0.00240919  0.66323592  0.65652352  1  0  0.348284  0  2.157399  0  0  0.253221  0  2.671939  0  0  0.250796  0  2.627534  0  0  0.424937  0.257653  0  2.700318  0
Cu  Cu3  1  0.50242611  0.83676341  0.84348223  1  0  0.348288  0  2.157357  0  0  0.253161  0  2.671932  0  0  0.250731  0  2.627516  0  0  0.424887  0.257589  0  2.700287  0
H  H4  1  0.91721064  0.61867954  0.92653617  1  0  0.095945  0  0.96757  0  0  0.10761  0  1.032643  0  0  0.11048  0  1.028671  0  0  0.127279  0.105285  0  1.035921  0
H  H5  1  0.41718810  0.88132547  0.57347282  1  0  0.095846  0  0.967437  0  0  0.107519  0  1.032533  0  0  0.110413  0  1.028533  0  0  0.127223  0.105167  0  1.035842  0
H  H6  1  0.08278836  0.38132292  0.07346369  1  0  0.09596  0  0.967553  0  0  0.10764  0  1.03261  0  0  0.110509  0  1.02864  0  0  0.127301  0.105292  0  1.03592  0
H  H7  1  0.58280496  0.11867326  0.42652956  1  0  0.095885  0  0.9674  0  0  0.107572  0  1.032476  0  0  0.110486  0  1.028451  0  0  0.12723  0.10522  0  1.035789  0
H  H8  1  0.36052500  0.61480288  0.03864506  1  0  0.101144  0  0.961556  0  0  0.119992  0  1.031023  0  0  0.120203  0  1.032325  0  0  0.101762  0.119656  0  1.030305  0
H  H9  1  0.86051697  0.88519165  0.46135802  1  0  0.101171  0  0.96149  0  0  0.120027  0  1.030908  0  0  0.120238  0  1.032206  0  0  0.101735  0.119689  0  1.030194  0
H  H10  1  0.63947795  0.38519464  0.96135532  1  0  0.10113  0  0.961532  0  0  0.119987  0  1.030981  0  0  0.1202  0  1.032281  0  0  0.101748  0.119649  0  1.030267  0
H  H11  1  0.13948005  0.11480467  0.53864035  1  0  0.101164  0  0.961454  0  0  0.119983  0  1.03092  0  0  0.120192  0  1.032221  0  0  0.101744  0.119645  0  1.030206  0
H  H12  1  0.21162788  0.63805079  0.18308445  1  0  0.09287  0  0.964657  0  0  0.111459  0  1.033127  0  0  0.111497  0  1.03404  0  0  0.095736  0.111184  0  1.032785  0
H  H13  1  0.71160311  0.86194649  0.31691643  1  0  0.092966  0  0.964676  0  0  0.111487  0  1.0332  0  0  0.111521  0  1.034111  0  0  0.095733  0.111213  0  1.032854  0
H  H14  1  0.78837508  0.36195412  0.81691686  1  0  0.092857  0  0.964661  0  0  0.111435  0  1.033134  0  0  0.111473  0  1.034041  0  0  0.095726  0.111159  0  1.032793  0
H  H15  1  0.28840183  0.13804370  0.68307960  1  0  0.092904  0  0.964654  0  0  0.111441  0  1.033171  0  0  0.111472  0  1.034084  0  0  0.095732  0.111167  0  1.032825  0
H  H16  1  0.43887578  0.78874118  0.16616142  1  0  0.111459  0  0.969452  0  0  0.128506  0  1.035237  0  0  0.129221  0  1.036389  0  0  0.103752  0.127865  0  1.034542  0
H  H17  1  0.93884631  0.71124898  0.33383431  1  0  0.111559  0  0.969424  0  0  0.128543  0  1.035231  0  0  0.129258  0  1.03638  0  0  0.103733  0.127905  0  1.034538  0
H  H18  1  0.56113510  0.21125761  0.83383669  1  0  0.111447  0  0.969526  0  0  0.12849  0  1.035307  0  0  0.129205  0  1.036456  0  0  0.103745  0.12785  0  1.034612  0
H  H19  1  0.06114279  0.28873867  0.66616711  1  0  0.111481  0  0.969531  0  0  0.128506  0  1.035299  0  0  0.129221  0  1.036448  0  0  0.10373  0.127867  0  1.034605  0
C  C20  1  0.99173351  0.95380051  0.15230455  1  0  0.292197  0  3.750392  0  0  0.26459  0  4.03063  0  0  0.280579  0  4.04391  0  0  0.199957  0.253828  0  4.021668  0
C  C21  1  0.49172589  0.54620142  0.34769296  1  0  0.29216  0  3.750229  0  0  0.264588  0  4.030461  0  0  0.280571  0  4.043743  0  0  0.199989  0.253825  0  4.021509  0
C  C22  1  0.00827341  0.04620323  0.84769218  1  0  0.29213  0  3.750283  0  0  0.264519  0  4.030513  0  0  0.280504  0  4.043804  0  0  0.199977  0.253762  0  4.021542  0
C  C23  1  0.50826519  0.45379979  0.65230831  1  0  0.292046  0  3.750182  0  0  0.264434  0  4.030498  0  0  0.280421  0  4.043775  0  0  0.199894  0.253671  0  4.021541  0
C  C24  1  0.89998690  0.73756071  0.99552910  1  0  0.142168  0  3.668978  0  0  0.085296  0  3.931241  0  0  0.098509  0  3.939774  0  0  0.142621  0.076382  0  3.926106  0
C  C25  1  0.39997229  0.76241516  0.50446004  1  0  0.142363  0  3.669695  0  0  0.085537  0  3.931942  0  0  0.09872  0  3.94047  0  0  0.142897  0.076649  0  3.926819  0
C  C26  1  0.10001408  0.26244056  0.00446789  1  0  0.14212  0  3.669104  0  0  0.085257  0  3.931352  0  0  0.098469  0  3.939883  0  0  0.142654  0.076364  0  3.926237  0
C  C27  1  0.60002275  0.23758357  0.49554235  1  0  0.142146  0  3.669707  0  0  0.085313  0  3.931985  0  0  0.098489  0  3.940506  0  0  0.142819  0.076425  0  3.926874  0
C  C28  1  0.28252957  0.70285742  0.12165861  1  0  -0.159765  0  3.639448  0  0  -0.26418  0  3.886963  0  0  -0.261367  0  3.89746  0  0  -0.136865  -0.265688  0  3.879868  0
C  C29  1  0.78251316  0.79713799  0.37833640  1  0  -0.159995  0  3.639356  0  0  -0.264288  0  3.886842  0  0  -0.261466  0  3.897328  0  0  -0.136824  -0.265798  0  3.879748  0
C  C30  1  0.71747537  0.29714383  0.87833924  1  0  -0.159762  0  3.639405  0  0  -0.264162  0  3.886923  0  0  -0.261343  0  3.897415  0  0  -0.136833  -0.265665  0  3.879829  0
C  C31  1  0.21748386  0.20285711  0.62166082  1  0  -0.159798  0  3.639276  0  0  -0.264093  0  3.886753  0  0  -0.261269  0  3.897236  0  0  -0.136784  -0.265604  0  3.879661  0
S  S32  1  0.17059512  0.08232280  0.27100000  1  0  -0.450458  0  2.664975  0  0  -0.432477  0  3.164778  0  0  -0.434983  0  3.131774  0  0  -0.254475  -0.431201  0  3.186678  0
S  S33  1  0.67058444  0.41767369  0.22899728  1  0  -0.450491  0  2.665044  0  0  -0.432499  0  3.164825  0  0  -0.435016  0  3.131849  0  0  -0.254496  -0.431218  0  3.186722  0
S  S34  1  0.82941575  0.91767968  0.72899900  1  0  -0.450463  0  2.66502  0  0  -0.43247  0  3.164819  0  0  -0.434965  0  3.131791  0  0  -0.254481  -0.431198  0  3.186695  0
S  S35  1  0.32941060  0.58232752  0.77100399  1  0  -0.450414  0  2.664908  0  0  -0.432412  0  3.164723  0  0  -0.434931  0  3.131748  0  0  -0.254441  -0.431135  0  3.186603  0
N  N36  1  0.72176887  0.84996454  0.99714271  1  0  -0.207026  0  3.23387  0  0  -0.157244  0  3.546943  0  0  -0.163009  0  3.551574  0  0  -0.274527  -0.154097  0  3.544303  0
N  N37  1  0.22175691  0.65004003  0.50286005  1  0  -0.207108  0  3.233933  0  0  -0.157424  0  3.547082  0  0  -0.163175  0  3.551707  0  0  -0.274644  -0.154273  0  3.544447  0
N  N38  1  0.27823805  0.15003792  0.00285714  1  0  -0.206898  0  3.233702  0  0  -0.157173  0  3.546806  0  0  -0.162934  0  3.551436  0  0  -0.274485  -0.154024  0  3.544165  0
N  N39  1  0.77823615  0.34995993  0.49714263  1  0  -0.206933  0  3.233927  0  0  -0.157258  0  3.547104  0  0  -0.16303  0  3.551755  0  0  -0.274581  -0.154106  0  3.544479  0
N  N40  1  0.77465168  0.98648077  0.09732139  1  0  -0.275813  0  3.191586  0  0  -0.226214  0  3.512441  0  0  -0.234881  0  3.516519  0  0  -0.28362  -0.221153  0  3.510106  0
N  N41  1  0.27463595  0.51351837  0.40267712  1  0  -0.275977  0  3.191476  0  0  -0.226354  0  3.512367  0  0  -0.235019  0  3.516429  0  0  -0.283702  -0.221298  0  3.510063  0
N  N42  1  0.22535920  0.01352417  0.90267735  1  0  -0.275937  0  3.191462  0  0  -0.226284  0  3.512304  0  0  -0.234954  0  3.51638  0  0  -0.283639  -0.221229  0  3.509969  0
N  N43  1  0.72535712  0.48648284  0.59732414  1  0  -0.27595  0  3.191404  0  0  -0.226304  0  3.512276  0  0  -0.234966  0  3.516349  0  0  -0.283683  -0.221248  0  3.509961  0
N  N44  1  0.06949448  0.79454994  0.09024320  1  0  -0.090995  0  3.532896  0  0  0.009493  0  3.748906  0  0  -0.006993  0  3.772584  0  0  -0.24652  0.020342  0  3.732769  0
N  N45  1  0.56945591  0.70545109  0.40976684  1  0  -0.090769  0  3.533156  0  0  0.009641  0  3.749153  0  0  -0.006843  0  3.772839  0  0  -0.246572  0.020491  0  3.733016  0
N  N46  1  0.93051837  0.20545130  0.90975551  1  0  -0.090874  0  3.533025  0  0  0.009589  0  3.749061  0  0  -0.006897  0  3.77274  0  0  -0.246607  0.020433  0  3.732921  0
N  N47  1  0.43053517  0.29454891  0.59023327  1  0  -0.090753  0  3.533147  0  0  0.009665  0  3.749176  0  0  -0.006817  0  3.77286  0  0  -0.246559  0.020518  0  3.733042  0
