# generated using pymatgen
data_MnH25C24(NO2)2
_symmetry_space_group_name_H-M   'P 1'
_cell_length_a   6.72580363
_cell_length_b   11.71240412
_cell_length_c   14.71200000
_cell_angle_alpha   111.53231511
_cell_angle_beta   90.31171297
_cell_angle_gamma   91.03634282
_symmetry_Int_Tables_number   1
_chemical_formula_structural   MnH25C24(NO2)2
_chemical_formula_sum   'Mn2 H50 C48 N4 O8'
_cell_volume   1077.79362613
_cell_formula_units_Z   2
loop_
 _symmetry_equiv_pos_site_id
 _symmetry_equiv_pos_as_xyz
  1  'x, y, z'
loop_
 _atom_site_type_symbol
 _atom_site_label
 _atom_site_symmetry_multiplicity
 _atom_site_fract_x
 _atom_site_fract_y
 _atom_site_fract_z
 _atom_site_occupancy
 _atom_site_pbe_bader_charge
 _atom_site_pbe_bader_spin_density
 _atom_site_pbe_cm5_charge
 _atom_site_pbe_ddec_charge
 _atom_site_pbe_ddec_spin_density
 _atom_site_pbe_ddec_sum_bond_order
 _atom_site_pbe_magmom
Mn  Mn0  1  0.24616800  0.00800553  0.27077769  1  1.684513  3.614556  0.827386  1.068931  3.74658  2.950526  3.599
Mn  Mn1  1  0.75385478  0.99199133  0.72922329  1  1.684622  3.614565  0.827315  1.068971  3.74655  2.950577  3.599
H  H2  1  0.22613231  0.04956454  0.57770665  1  0.101542  0.000979  0.10338  0.13692  0.000347  1.055724  0.0
H  H3  1  0.77386381  0.95043508  0.42229234  1  0.101577  0.00098  0.103321  0.136848  0.000348  1.05575  0.0
H  H4  1  0.45988059  0.75603554  0.26236608  1  0.075484  0.000864  0.105259  0.082587  0.000257  1.011567  0.0
H  H5  1  0.54012568  0.24395674  0.73762807  1  0.075576  0.000864  0.105237  0.082562  0.000257  1.011654  0.0
H  H6  1  0.23755544  0.69650539  0.29598009  1  0.059623  -0.001518  0.105302  0.08229  -0.001435  1.002081  -0.001
H  H7  1  0.76244843  0.30350341  0.70402228  1  0.059276  -0.001519  0.1053  0.082256  -0.001436  1.002104  -0.001
H  H8  1  0.04327008  0.72942724  0.17170901  1  0.054293  0.000805  0.105473  0.079404  0.000237  1.007884  0.0
H  H9  1  0.95672452  0.27057147  0.82829515  1  0.054119  0.000805  0.105464  0.079449  0.000238  1.007856  0.0
H  H10  1  0.27062232  0.66928933  0.11401195  1  0.020774  -0.00127  0.103304  0.077862  -0.001192  1.015238  -0.001
H  H11  1  0.72937406  0.33071764  0.88598919  1  0.020666  -0.00127  0.103266  0.077817  -0.001192  1.015175  -0.001
H  H12  1  0.25359697  0.95068663  0.95950307  1  0.03275  0.000915  0.097599  0.122682  0.00046  1.057989  0.0
H  H13  1  0.74639178  0.04931483  0.04049984  1  0.032723  0.000915  0.097618  0.122732  0.00046  1.058041  0.0
H  H14  1  0.39418011  0.75258361  0.43589293  1  0.074288  0.000896  0.094484  0.135964  0.000449  1.031275  0.001
H  H15  1  0.60581752  0.24741693  0.56410226  1  0.074252  0.000897  0.094513  0.135962  0.00045  1.031232  0.001
H  H16  1  0.14199001  0.77100828  0.47253276  1  0.096709  0.002099  0.095609  0.140988  0.001218  1.026788  0.001
H  H17  1  0.85801047  0.22898859  0.52746000  1  0.096616  0.0021  0.09562  0.141  0.001219  1.026753  0.001
H  H18  1  0.33309422  0.86177286  0.55193036  1  0.072312  0.000179  0.101037  0.150163  -0.000184  1.022379  0.0
H  H19  1  0.66690164  0.13821941  0.44806445  1  0.072552  0.000179  0.101025  0.150114  -0.000184  1.022441  0.0
H  H20  1  0.08387568  0.68279683  0.98182070  1  0.056514  0.001242  0.091373  0.133674  0.000693  1.043082  0.001
H  H21  1  0.91612054  0.31720554  0.01818114  1  0.056572  0.001242  0.091365  0.133656  0.000693  1.043082  0.001
H  H22  1  0.34690741  0.68255722  0.96876092  1  0.062583  0.00174  0.09064  0.131717  0.001014  1.049034  0.001
H  H23  1  0.65309041  0.31744883  0.03124472  1  0.062399  0.00174  0.090639  0.131664  0.001014  1.049154  0.001
H  H24  1  0.19568288  0.75307845  0.90590747  1  0.042195  -9.7e-05  0.093762  0.137149  -0.000139  1.023731  0.0
H  H25  1  0.80431627  0.24692301  0.09409751  1  0.0421  -9.7e-05  0.093704  0.137029  -0.000139  1.023812  0.0
H  H26  1  0.19049823  0.20981662  0.67933802  1  0.096602  0.000319  0.105603  0.11019  1.9e-05  1.033771  0.0
H  H27  1  0.80950069  0.79017841  0.32065692  1  0.096393  0.000319  0.105609  0.110154  1.8e-05  1.033805  0.0
H  H28  1  0.17173284  0.42075879  0.80215900  1  0.042058  -2e-05  0.095091  0.090144  -4.7e-05  1.021441  0.0
H  H29  1  0.82827071  0.57924083  0.19783593  1  0.042022  -2e-05  0.095113  0.090122  -4.7e-05  1.021473  0.0
H  H30  1  0.18990202  0.60105408  0.75147795  1  0.080397  5.4e-05  0.098277  0.096189  2.2e-05  1.032217  0.0
H  H31  1  0.81009840  0.39894095  0.24851360  1  0.07994  5.4e-05  0.098249  0.0961  2.2e-05  1.032163  0.0
H  H32  1  0.22693476  0.56913293  0.57518946  1  0.063281  -2e-06  0.100602  0.098003  -2.7e-05  1.012087  0.0
H  H33  1  0.77306262  0.43086027  0.42480154  1  0.063166  -2e-06  0.100617  0.098005  -2.7e-05  1.012038  0.0
H  H34  1  0.24962594  0.35693117  0.45146099  1  0.075773  0.00046  0.106156  0.112578  6.7e-05  1.006217  0.0
H  H35  1  0.75036833  0.64305835  0.54853029  1  0.075738  0.000459  0.106111  0.112492  6.7e-05  1.006211  0.0
H  H36  1  0.28440024  0.08775241  0.91538762  1  0.095205  4.7e-05  0.107342  0.108664  -0.000198  1.0319  0.0
H  H37  1  0.71559139  0.91224629  0.08461653  1  0.095213  4.8e-05  0.107365  0.1088  -0.000198  1.031839  0.0
H  H38  1  0.30233794  0.26572316  0.86882626  1  0.087484  0.000114  0.103828  0.103789  -4.9e-05  1.015123  0.0
H  H39  1  0.69765678  0.73427921  0.13117966  1  0.087723  0.000114  0.10379  0.103737  -4.9e-05  1.015076  0.0
H  H40  1  0.29901399  0.47876770  0.99678540  1  0.071236  0.000115  0.093971  0.086619  5.6e-05  1.040419  0.0
H  H41  1  0.70098517  0.52123376  0.00322162  1  0.071165  0.000115  0.093947  0.08661  5.6e-05  1.040415  0.0
H  H42  1  0.28577237  0.50466083  0.17328239  1  0.074295  2.3e-05  0.09786  0.095202  -6.2e-05  1.030059  0.0
H  H43  1  0.71422220  0.49533695  0.82672491  1  0.074311  2.3e-05  0.097851  0.095221  -6.2e-05  1.030095  0.0
H  H44  1  0.26757449  0.32129185  0.21986311  1  0.10572  0.000414  0.108114  0.113932  5.4e-05  1.00357  0.0
H  H45  1  0.73242437  0.67870134  0.78013877  1  0.105378  0.000414  0.108151  0.113973  5.4e-05  1.003484  0.0
H  H46  1  0.71354552  0.22818712  0.33122961  1  0.055973  6.4e-05  0.09933  0.152931  1.7e-05  1.004607  0.0
H  H47  1  0.28645826  0.77181893  0.66877196  1  0.055698  6.3e-05  0.099369  0.153012  1.7e-05  1.004694  0.0
H  H48  1  0.90292303  0.18528039  0.24114152  1  0.072416  4.2e-05  0.093175  0.146416  -0.000146  1.032735  0.0
H  H49  1  0.09709089  0.81471831  0.75885997  1  0.072583  4.2e-05  0.09311  0.146334  -0.000146  1.032795  0.0
H  H50  1  0.64063309  0.16566316  0.20749163  1  0.036507  2e-06  0.092457  0.143584  -0.000129  1.029867  0.0
H  H51  1  0.35936606  0.83433830  0.79250315  1  0.036547  2e-06  0.092404  0.143529  -0.000129  1.029914  0.0
C  C52  1  0.23879261  0.14495893  0.47904777  1  0.592192  0.014409  0.113095  0.339118  0.012713  4.071848  0.011
C  C53  1  0.76121246  0.85504160  0.52094676  1  0.592067  0.014416  0.113077  0.339076  0.012718  4.071869  0.011
C  C54  1  0.23812299  0.04015161  0.50166566  1  0.062457  0.016177  -0.127574  -0.380762  0.012747  3.934337  0.008
C  C55  1  0.76187458  0.95984709  0.49833647  1  0.062503  0.016172  -0.127495  -0.380684  0.012744  3.934431  0.008
C  C56  1  0.26006429  0.91823851  0.43346855  1  0.52952  0.024575  0.152047  0.384115  0.020778  3.938695  0.018
C  C57  1  0.73993486  0.08176295  0.56652827  1  0.529286  0.024593  0.151962  0.384106  0.020792  3.938248  0.018
C  C58  1  0.29767419  0.76652628  0.26967385  1  0.2714  0.001424  -0.062107  -0.055109  0.000639  3.940329  0.001
C  C59  1  0.70233550  0.23347885  0.73032611  1  0.272012  0.001422  -0.062072  -0.055139  0.000637  3.94048  0.001
C  C60  1  0.20416377  0.74852943  0.17065157  1  0.31832  0.001688  -0.060525  -0.046065  0.000858  3.937451  0.001
C  C61  1  0.79582953  0.25147478  0.82935148  1  0.318585  0.001686  -0.060517  -0.046037  0.000856  3.93742  0.001
C  C62  1  0.23141765  0.85745153  0.05922463  1  0.531108  0.024522  0.144215  0.373633  0.020621  3.961732  0.018
C  C63  1  0.76857125  0.14255452  0.94077555  1  0.531128  0.024521  0.144167  0.373586  0.02062  3.961698  0.018
C  C64  1  0.24889288  0.96514800  0.03660977  1  0.066521  0.014465  -0.13466  -0.39752  0.011435  3.981897  0.007
C  C65  1  0.75110323  0.03485162  0.96339262  1  0.066727  0.01447  -0.134691  -0.39764  0.011439  3.981846  0.007
C  C66  1  0.25570407  0.08493854  0.10364237  1  0.639614  0.015876  0.11348  0.339301  0.013755  4.078266  0.012
C  C67  1  0.74430255  0.91506383  0.89636426  1  0.639708  0.015863  0.113502  0.339367  0.013746  4.078162  0.012
C  C68  1  0.28440840  0.82004126  0.47563105  1  -0.125535  -0.002703  -0.239588  -0.459856  -0.003283  3.889545  -0.003
C  C69  1  0.71558911  0.17995561  0.52436646  1  -0.125681  -0.002699  -0.239558  -0.45979  -0.003278  3.889558  -0.003
C  C70  1  0.21292884  0.73701413  0.97413983  1  -0.085807  -0.002638  -0.242565  -0.462937  -0.00304  3.911052  -0.003
C  C71  1  0.78706743  0.26299008  0.02586594  1  -0.085575  -0.002639  -0.242453  -0.462658  -0.00304  3.91111  -0.003
C  C72  1  0.22362184  0.26928893  0.55635127  1  -0.020027  -0.003787  -0.013023  0.006934  -0.00446  3.978657  -0.004
C  C73  1  0.77636972  0.73070794  0.44364487  1  -0.020073  -0.003787  -0.013124  0.006745  -0.00446  3.978772  -0.004
C  C74  1  0.20072581  0.28802849  0.65589240  1  -0.081345  0.003012  -0.086273  -0.11952  0.002258  3.954172  0.002
C  C75  1  0.79926879  0.71197021  0.34410429  1  -0.080969  0.003013  -0.086228  -0.119394  0.002258  3.95396  0.002
C  C76  1  0.18913490  0.40686202  0.72511359  1  -0.064862  -0.000326  -0.099778  -0.098658  -0.000432  4.039725  0.0
C  C77  1  0.81086109  0.59313392  0.27487957  1  -0.065216  -0.000326  -0.099883  -0.098708  -0.000432  4.039695  0.0
C  C78  1  0.19912224  0.50860117  0.69690514  1  -0.038607  0.003868  -0.092487  -0.08109  0.00306  4.005889  0.002
C  C79  1  0.80087388  0.49139845  0.30308842  1  -0.0382  0.003867  -0.092423  -0.080964  0.00306  4.005791  0.002
C  C80  1  0.22040309  0.49065574  0.59823641  1  -0.058552  -0.000516  -0.093999  -0.088371  -0.000561  4.034953  0.0
C  C81  1  0.77959128  0.50933654  0.40175364  1  -0.058227  -0.000516  -0.094015  -0.088386  -0.000561  4.03475  0.0
C  C82  1  0.23284781  0.37221513  0.52864819  1  -0.058273  0.004081  -0.087731  -0.113582  0.003082  3.961007  0.002
C  C83  1  0.76714223  0.62778081  0.47134496  1  -0.058155  0.004082  -0.08764  -0.113398  0.003083  3.960804  0.002
C  C84  1  0.27136453  0.19150579  0.07171875  1  -0.061165  -0.003387  -0.008506  0.014066  -0.004052  3.949546  -0.003
C  C85  1  0.72863886  0.80848924  0.92828233  1  -0.061367  -0.003387  -0.008485  0.013967  -0.004052  3.949572  -0.003
C  C86  1  0.28224690  0.17799370  0.97296759  1  -0.035703  0.003459  -0.076779  -0.084605  0.002576  3.913009  0.002
C  C87  1  0.71775665  0.82200592  0.02703550  1  -0.035601  0.003457  -0.076787  -0.084721  0.002574  3.912954  0.002
C  C88  1  0.29275242  0.28034979  0.94624439  1  -0.088903  -0.000462  -0.090338  -0.084179  -0.000668  3.99651  -0.001
C  C89  1  0.70724670  0.71965075  0.05375760  1  -0.089208  -0.000461  -0.09031  -0.084027  -0.000667  3.996667  -0.001
C  C90  1  0.29211498  0.39862973  0.01784399  1  -0.100739  0.004023  -0.098472  -0.107909  0.00314  4.041197  0.002
C  C91  1  0.70788721  0.60137357  0.98216494  1  -0.100783  0.004019  -0.098552  -0.108118  0.003137  4.04129  0.002
C  C92  1  0.28410840  0.41325452  0.11650735  1  -0.091001  0.000128  -0.096366  -0.094146  7.3e-05  4.035656  0.0
C  C93  1  0.71589056  0.58674143  0.88349670  1  -0.091022  0.000129  -0.09632  -0.094105  7.4e-05  4.035441  0.0
C  C94  1  0.27413300  0.31079377  0.14324547  1  -0.00025  0.004596  -0.084085  -0.107459  0.003474  3.953134  0.003
C  C95  1  0.72586606  0.68920493  0.85675938  1  0.000204  0.004593  -0.0841  -0.107382  0.003472  3.953101  0.003
C  C96  1  0.75133377  0.03438616  0.26641312  1  1.579459  0.007059  0.207234  0.684809  0.008363  4.157822  0.009
C  C97  1  0.24866296  0.96563090  0.73358622  1  1.580309  0.007041  0.207303  0.68518  0.008351  4.158406  0.009
C  C98  1  0.75449758  0.16085433  0.25959226  1  -0.130889  0.001847  -0.24917  -0.539346  0.000791  3.890148  0.001
C  C99  1  0.24550465  0.83914988  0.74040537  1  -0.130742  0.00185  -0.249202  -0.539466  0.000793  3.890158  0.001
N  N100  1  0.25879066  0.89045232  0.33813395  1  -1.163646  -0.00765  -0.377645  -0.317886  -0.022518  3.411951  -0.036
N  N101  1  0.74122789  0.10955097  0.66187433  1  -1.163899  -0.007651  -0.3776  -0.317832  -0.022521  3.411362  -0.036
N  N102  1  0.23219473  0.86015707  0.14967248  1  -1.164699  -0.00725  -0.378674  -0.324251  -0.021677  3.419125  -0.035
N  N103  1  0.76778952  0.13984347  0.85033083  1  -1.164828  -0.007244  -0.378644  -0.324312  -0.021672  3.419174  -0.035
O  O104  1  0.25915101  0.14506359  0.39070049  1  -1.108092  0.052356  -0.307597  -0.461037  0.032918  2.387748  0.018
O  O105  1  0.74088977  0.85493786  0.60929915  1  -1.107933  0.052352  -0.307563  -0.460962  0.032931  2.38758  0.018
O  O106  1  0.24596668  0.11435337  0.19802185  1  -1.104837  0.050286  -0.301931  -0.463061  0.033019  2.413167  0.017
O  O107  1  0.75404740  0.88564992  0.80198234  1  -1.105053  0.050302  -0.301967  -0.463091  0.033029  2.413016  0.017
O  O108  1  0.91448317  0.98748087  0.27802278  1  -1.195513  0.082208  -0.317984  -0.592708  0.065691  2.248062  0.062
O  O109  1  0.08551850  0.01254996  0.72204448  1  -1.196268  0.082215  -0.317947  -0.592962  0.065683  2.249052  0.062
O  O110  1  0.58429453  0.97999405  0.26209524  1  -1.202605  0.075638  -0.318557  -0.600469  0.060835  2.247315  0.057
O  O111  1  0.41569755  0.01997528  0.73784527  1  -1.202722  0.075612  -0.318579  -0.600423  0.060809  2.24732  0.057
