# generated using pymatgen
data_Zn2H19C24N21O
_symmetry_space_group_name_H-M   'P 1'
_cell_length_a   8.43706624
_cell_length_b   9.54081264
_cell_length_c   18.52041063
_cell_angle_alpha   80.97657829
_cell_angle_beta   79.84301272
_cell_angle_gamma   73.53120684
_symmetry_Int_Tables_number   1
_chemical_formula_structural   Zn2H19C24N21O
_chemical_formula_sum   'Zn4 H38 C48 N42 O2'
_cell_volume   1398.21606209
_cell_formula_units_Z   2
loop_
 _symmetry_equiv_pos_site_id
 _symmetry_equiv_pos_as_xyz
  1  'x, y, z'
loop_
 _atom_site_type_symbol
 _atom_site_label
 _atom_site_symmetry_multiplicity
 _atom_site_fract_x
 _atom_site_fract_y
 _atom_site_fract_z
 _atom_site_occupancy
 _atom_site_hle17_bader_spin_density
 _atom_site_hle17_ddec_charge
 _atom_site_hle17_ddec_spin_density
 _atom_site_hle17_ddec_sum_bond_order
 _atom_site_hle17_magmom
 _atom_site_hse06_10hf_bader_spin_density
 _atom_site_hse06_10hf_ddec_charge
 _atom_site_hse06_10hf_ddec_spin_density
 _atom_site_hse06_10hf_ddec_sum_bond_order
 _atom_site_hse06_10hf_magmom
 _atom_site_hse06_bader_spin_density
 _atom_site_hse06_ddec_charge
 _atom_site_hse06_ddec_spin_density
 _atom_site_hse06_ddec_sum_bond_order
 _atom_site_hse06_magmom
 _atom_site_pbe_bader_spin_density
 _atom_site_pbe_cm5_charge
 _atom_site_pbe_ddec_charge
 _atom_site_pbe_ddec_spin_density
 _atom_site_pbe_ddec_sum_bond_order
 _atom_site_pbe_magmom
Zn  Zn0  1  0.78345309  0.95409424  0.18203207  1  0  0.923051  0  1.948998  0  0  0.716348  0  2.425971  0  0  0.758989  0  2.377819  0  0  0.700518  0.687148  0  2.458185  0
Zn  Zn1  1  0.21654754  0.04590575  0.81796762  1  0  0.923051  0  1.948996  0  0  0.716334  0  2.42599  0  0  0.758974  0  2.377841  0  0  0.70052  0.687134  0  2.458187  0
Zn  Zn2  1  0.20698150  0.75856140  0.13895622  1  0  0.911504  0  1.97607  0  0  0.702316  0  2.456636  0  0  0.744822  0  2.408232  0  0  0.703728  0.67269  0  2.490766  0
Zn  Zn3  1  0.79301945  0.24143748  0.86104407  1  0  0.911485  0  1.976118  0  0  0.7023  0  2.456672  0  0  0.74481  0  2.408261  0  0  0.703721  0.672676  0  2.490809  0
H  H4  1  0.99781900  0.94849768  0.06850088  1  0  0.379855  0  0.935711  0  0  0.340826  0  1.023083  0  0  0.350946  0  1.007924  0  0  0.276779  0.333814  0  1.033387  0
H  H5  1  0.00218107  0.05150010  0.93149903  1  0  0.379866  0  0.935687  0  0  0.340835  0  1.023065  0  0  0.350955  0  1.007906  0  0  0.276789  0.33383  0  1.03336  0
H  H6  1  0.45700395  0.49449371  0.32567828  1  0  0.108173  0  0.913427  0  0  0.116826  0  0.984846  0  0  0.118505  0  0.982341  0  0  0.122061  0.115374  0  0.986896  0
H  H7  1  0.54299667  0.50550627  0.67432195  1  0  0.108196  0  0.913403  0  0  0.116849  0  0.984808  0  0  0.118528  0  0.982302  0  0  0.12207  0.115398  0  0.986859  0
H  H8  1  0.39243034  0.46933917  0.24394250  1  0  0.116779  0  0.942427  0  0  0.120326  0  1.020578  0  0  0.122515  0  1.018057  0  0  0.130681  0.118811  0  1.022305  0
H  H9  1  0.60757182  0.53065972  0.75605823  1  0  0.116786  0  0.942413  0  0  0.120314  0  1.020589  0  0  0.122504  0  1.018066  0  0  0.130672  0.118801  0  1.022316  0
H  H10  1  0.61815657  0.78354840  0.36065328  1  0  0.111474  0  0.941757  0  0  0.117397  0  1.013468  0  0  0.119551  0  1.011918  0  0  0.123563  0.115638  0  1.015033  0
H  H11  1  0.38184373  0.21645268  0.63934580  1  0  0.111479  0  0.941734  0  0  0.1174  0  1.01345  0  0  0.119557  0  1.011897  0  0  0.123566  0.115643  0  1.015013  0
H  H12  1  0.71355949  0.74555418  0.44267216  1  0  0.106704  0  0.911616  0  0  0.122178  0  0.967578  0  0  0.123561  0  0.966447  0  0  0.123649  0.121411  0  0.967778  0
H  H13  1  0.28643961  0.25444691  0.55732756  1  0  0.106694  0  0.911638  0  0  0.122172  0  0.967593  0  0  0.123558  0  0.966462  0  0  0.123649  0.121408  0  0.967788  0
H  H14  1  0.66305598  0.59598043  0.06006115  1  0  0.098209  0  0.988777  0  0  0.097523  0  1.068051  0  0  0.101676  0  1.065065  0  0  0.09573  0.094425  0  1.070272  0
H  H15  1  0.33694278  0.40402175  0.93993905  1  0  0.098195  0  0.988795  0  0  0.09753  0  1.068055  0  0  0.101683  0  1.065069  0  0  0.095714  0.094429  0  1.070276  0
H  H16  1  0.85964410  0.72648724  0.08696668  1  0  0.109029  0  0.959182  0  0  0.11781  0  1.021976  0  0  0.120848  0  1.019892  0  0  0.10617  0.115686  0  1.023505  0
H  H17  1  0.14035653  0.27351274  0.91303462  1  0  0.108997  0  0.95918  0  0  0.117781  0  1.021976  0  0  0.120831  0  1.019879  0  0  0.106158  0.115658  0  1.023498  0
H  H18  1  0.23591077  0.13478411  0.32134963  1  0  0.098096  0  0.976149  0  0  0.103106  0  1.046366  0  0  0.106112  0  1.044578  0  0  0.101423  0.100935  0  1.047694  0
H  H19  1  0.76408964  0.86521258  0.67865196  1  0  0.098122  0  0.976158  0  0  0.103132  0  1.046371  0  0  0.106139  0  1.044583  0  0  0.101421  0.100963  0  1.047698  0
H  H20  1  0.09158518  0.00483279  0.25741572  1  0  0.113835  0  0.963572  0  0  0.121235  0  1.025628  0  0  0.12378  0  1.025053  0  0  0.107957  0.119449  0  1.025949  0
H  H21  1  0.90841370  0.99516500  0.74258591  1  0  0.11381  0  0.963572  0  0  0.121211  0  1.025631  0  0  0.123757  0  1.025056  0  0  0.107944  0.119431  0  1.02595  0
H  H22  1  0.74138864  0.32583618  0.06381675  1  0  0.092662  0  0.974224  0  0  0.098458  0  1.042115  0  0  0.09992  0  1.043193  0  0  0.101406  0.09704  0  1.041831  0
H  H23  1  0.25861045  0.67416490  0.93618243  1  0  0.092656  0  0.974227  0  0  0.098449  0  1.04213  0  0  0.099911  0  1.043209  0  0  0.101399  0.097034  0  1.04184  0
H  H24  1  0.81362408  0.51893974  0.32560499  1  0  0.110938  0  0.980147  0  0  0.11653  0  1.046608  0  0  0.119651  0  1.045233  0  0  0.104299  0.114727  0  1.046701  0
H  H25  1  0.18637600  0.48105805  0.67439600  1  0  0.110946  0  0.980162  0  0  0.116541  0  1.046614  0  0  0.119662  0  1.045241  0  0  0.104284  0.114739  0  1.0467  0
H  H26  1  0.02169825  0.17217820  0.09096756  1  0  0.117091  0  0.967255  0  0  0.122554  0  1.036109  0  0  0.126143  0  1.033657  0  0  0.105  0.120821  0  1.036714  0
H  H27  1  0.97830084  0.82782288  0.90903162  1  0  0.117108  0  0.967231  0  0  0.122569  0  1.03609  0  0  0.126158  0  1.033638  0  0  0.105004  0.120838  0  1.036694  0
H  H28  1  0.09841231  0.38487687  0.35591160  1  0  0.099462  0  0.947071  0  0  0.107729  0  1.009625  0  0  0.110973  0  1.00752  0  0  0.103168  0.105388  0  1.011241  0
H  H29  1  0.90158711  0.61512311  0.64408980  1  0  0.099471  0  0.947068  0  0  0.107716  0  1.009655  0  0  0.110963  0  1.007544  0  0  0.103163  0.105377  0  1.011269  0
H  H30  1  0.86501744  0.89480240  0.51171412  1  0  0.1146  0  0.941777  0  0  0.126175  0  0.999022  0  0  0.129104  0  0.99811  0  0  0.109908  0.124074  0  0.999841  0
H  H31  1  0.13498790  0.10520198  0.48828267  1  0  0.114591  0  0.941776  0  0  0.126175  0  0.99901  0  0  0.129104  0  0.998096  0  0  0.109916  0.124075  0  0.999827  0
H  H32  1  0.69896111  0.34716261  0.55768880  1  0  0.091627  0  0.963327  0  0  0.099937  0  1.028907  0  0  0.103258  0  1.026616  0  0  0.09819  0.097557  0  1.030512  0
H  H33  1  0.30103612  0.65284067  0.44231089  1  0  0.091586  0  0.963313  0  0  0.09989  0  1.028904  0  0  0.103211  0  1.026612  0  0  0.098168  0.097512  0  1.030505  0
H  H34  1  0.49695116  0.41113306  0.46427543  1  0  0.098159  0  0.959254  0  0  0.112701  0  1.015474  0  0  0.114948  0  1.014535  0  0  0.10387  0.111449  0  1.015383  0
H  H35  1  0.50304640  0.58886912  0.53572325  1  0  0.098178  0  0.959266  0  0  0.112724  0  1.015478  0  0  0.114972  0  1.014538  0  0  0.10389  0.111474  0  1.015384  0
H  H36  1  0.87062910  0.09602532  0.58163893  1  0  0.09014  0  0.963581  0  0  0.098437  0  1.029059  0  0  0.100533  0  1.029331  0  0  0.09905  0.096952  0  1.028816  0
H  H37  1  0.12937295  0.90397796  0.41835930  1  0  0.090155  0  0.963623  0  0  0.098454  0  1.029092  0  0  0.100545  0  1.029378  0  0  0.099053  0.096969  0  1.028841  0
H  H38  1  0.29389968  0.09980730  0.12334398  1  0  0.113811  0  0.91981  0  0  0.122984  0  0.990199  0  0  0.124805  0  0.988051  0  0  0.126467  0.121241  0  0.992306  0
H  H39  1  0.70609854  0.90019268  0.87665644  1  0  0.113773  0  0.919716  0  0  0.122951  0  0.99011  0  0  0.124773  0  0.987961  0  0  0.12645  0.121209  0  0.99222  0
H  H40  1  0.40387023  0.15207202  0.18338078  1  0  0.108956  0  0.933495  0  0  0.114026  0  1.011047  0  0  0.115271  0  1.00956  0  0  0.125226  0.113075  0  1.01203  0
H  H41  1  0.59612919  0.84792797  0.81661955  1  0  0.10895  0  0.93353  0  0  0.11402  0  1.011081  0  0  0.115266  0  1.009594  0  0  0.125222  0.113069  0  1.012064  0
C  C42  1  0.09542224  0.36713182  0.10564096  1  0  0.094913  0  3.783975  0  0  0.069419  0  4.023865  0  0  0.072746  0  4.046811  0  0  0.108284  0.067559  0  4.008196  0
C  C43  1  0.90457718  0.63286816  0.89435828  1  0  0.094885  0  3.783926  0  0  0.069412  0  4.023828  0  0  0.072738  0  4.046773  0  0  0.10828  0.067545  0  4.008172  0
C  C44  1  0.04968311  0.52140566  0.10590445  1  0  0.121015  0  3.822258  0  0  0.118215  0  4.068756  0  0  0.119062  0  4.092369  0  0  0.097161  0.117553  0  4.052779  0
C  C45  1  0.95031784  0.47859322  0.89409584  1  0  0.121053  0  3.822261  0  0  0.118188  0  4.068838  0  0  0.119034  0  4.092454  0  0  0.097133  0.117525  0  4.052863  0
C  C46  1  0.49291550  0.49311324  0.26582401  1  0  -0.093851  0  3.650198  0  0  -0.17443  0  3.907645  0  0  -0.170439  0  3.913336  0  0  -0.030415  -0.176622  0  3.903508  0
C  C47  1  0.50708512  0.50688674  0.73417622  1  0  -0.093925  0  3.650173  0  0  -0.174466  0  3.907646  0  0  -0.17047  0  3.91333  0  0  -0.030423  -0.176658  0  3.90351  0
C  C48  1  0.86822390  0.18836309  0.25874906  1  0  0.120482  0  3.819599  0  0  0.113713  0  4.075062  0  0  0.114768  0  4.098764  0  0  0.094397  0.112784  0  4.058976  0
C  C49  1  0.13177344  0.81163580  0.74125206  1  0  0.120555  0  3.819625  0  0  0.113754  0  4.075115  0  0  0.114802  0  4.098826  0  0  0.09443  0.112819  0  4.059042  0
C  C50  1  0.70652969  0.81239285  0.38883886  1  0  -0.095165  0  3.672319  0  0  -0.160763  0  3.92143  0  0  -0.157178  0  3.929026  0  0  -0.035169  -0.163141  0  3.916549  0
C  C51  1  0.29346940  0.18760823  0.61116086  1  0  -0.095162  0  3.672323  0  0  -0.160742  0  3.921387  0  0  -0.157167  0  3.928994  0  0  -0.035179  -0.16312  0  3.916494  0
C  C52  1  0.78486323  0.53290295  0.07480723  1  0  -0.061336  0  3.725197  0  0  -0.082451  0  3.989937  0  0  -0.08523  0  4.010601  0  0  -0.095923  -0.08057  0  3.976059  0
C  C53  1  0.21513674  0.46709923  0.92519233  1  0  -0.061329  0  3.725236  0  0  -0.082468  0  3.989968  0  0  -0.085247  0  4.010636  0  0  -0.09591  -0.080584  0  3.976084  0
C  C54  1  0.79185919  0.33275392  0.27729146  1  0  0.090808  0  3.765228  0  0  0.066937  0  4.009075  0  0  0.070065  0  4.031552  0  0  0.105036  0.064996  0  3.994101  0
C  C55  1  0.20814176  0.66724497  0.72270883  1  0  0.090793  0  3.765226  0  0  0.066922  0  4.009129  0  0  0.070051  0  4.031608  0  0  0.105004  0.064982  0  3.994157  0
C  C56  1  0.89258840  0.60720655  0.08954472  1  0  -0.112923  0  3.714532  0  0  -0.129861  0  3.960939  0  0  -0.131651  0  3.981301  0  0  -0.08579  -0.128598  0  3.947096  0
C  C57  1  0.10741070  0.39279453  0.91045500  1  0  -0.112893  0  3.714571  0  0  -0.129814  0  3.961005  0  0  -0.131613  0  3.981358  0  0  -0.085766  -0.128549  0  3.947157  0
C  C58  1  0.10996734  0.18797415  0.30848769  1  0  -0.063976  0  3.738276  0  0  -0.078108  0  3.988768  0  0  -0.080774  0  4.010995  0  0  -0.089279  -0.076273  0  3.973598  0
C  C59  1  0.89003000  0.81202474  0.69151451  1  0  -0.06402  0  3.738295  0  0  -0.078146  0  3.98877  0  0  -0.080812  0  4.010997  0  0  -0.089289  -0.07631  0  3.973607  0
C  C60  1  0.03072152  0.11434040  0.27345157  1  0  -0.127877  0  3.710693  0  0  -0.145868  0  3.961278  0  0  -0.147947  0  3.981723  0  0  -0.089915  -0.144248  0  3.946911  0
C  C61  1  0.96927921  0.88565519  0.72655063  1  0  -0.12788  0  3.710804  0  0  -0.14586  0  3.961398  0  0  -0.14794  0  3.981845  0  0  -0.089911  -0.144245  0  3.947045  0
C  C62  1  0.83135520  0.37790361  0.07587219  1  0  -0.039944  0  3.722663  0  0  -0.062995  0  3.987531  0  0  -0.06329  0  4.009467  0  0  -0.0899  -0.062601  0  3.973007  0
C  C63  1  0.16864236  0.62209857  0.92412648  1  0  -0.039906  0  3.722764  0  0  -0.062948  0  3.987615  0  0  -0.063243  0  4.009551  0  0  -0.089875  -0.062557  0  3.973088  0
C  C64  1  0.87205850  0.40695981  0.31282067  1  0  -0.124867  0  3.724285  0  0  -0.142693  0  3.979204  0  0  -0.145951  0  3.999599  0  0  -0.088462  -0.140494  0  3.964697  0
C  C65  1  0.12794004  0.59303908  0.68718035  1  0  -0.124905  0  3.724367  0  0  -0.142723  0  3.979279  0  0  -0.145983  0  3.999675  0  0  -0.088426  -0.140522  0  3.96477  0
C  C66  1  0.98688528  0.29135209  0.09083027  1  0  -0.14292  0  3.734868  0  0  -0.159416  0  3.993416  0  0  -0.163733  0  4.01393  0  0  -0.092441  -0.156721  0  3.978739  0
C  C67  1  0.01311687  0.70864679  0.90916884  1  0  -0.142942  0  3.734976  0  0  -0.159438  0  3.993516  0  0  -0.163758  0  4.014036  0  0  -0.092434  -0.15674  0  3.978841  0
C  C68  1  0.03126641  0.33157733  0.32826905  1  0  -0.043339  0  3.720664  0  0  -0.061737  0  3.971069  0  0  -0.063087  0  3.992701  0  0  -0.084319  -0.060828  0  3.956479  0
C  C69  1  0.96873246  0.66842046  0.67173204  1  0  -0.043333  0  3.720686  0  0  -0.061716  0  3.971079  0  0  -0.063065  0  3.99271  0  0  -0.08432  -0.060807  0  3.956492  0
C  C70  1  0.87628394  0.77827743  0.34462459  1  0  0.28058  0  3.759744  0  0  0.260946  0  4.042335  0  0  0.270133  0  4.057915  0  0  0.208167  0.255088  0  4.031025  0
C  C71  1  0.12371395  0.22172365  0.65537577  1  0  0.280577  0  3.75975  0  0  0.260956  0  4.042323  0  0  0.270144  0  4.057904  0  0  0.208247  0.255107  0  4.030999  0
C  C72  1  0.67636629  0.04346306  0.44844052  1  0  0.092423  0  3.79736  0  0  0.075835  0  4.045801  0  0  0.080675  0  4.068017  0  0  0.099748  0.072966  0  4.030757  0
C  C73  1  0.32363554  0.95653692  0.55155961  1  0  0.092328  0  3.797434  0  0  0.075764  0  4.045859  0  0  0.080602  0  4.068075  0  0  0.099727  0.072893  0  4.030825  0
C  C74  1  0.57072081  0.18688393  0.43585244  1  0  0.096983  0  3.854362  0  0  0.097639  0  4.115752  0  0  0.097475  0  4.137745  0  0  0.081176  0.097764  0  4.101089  0
C  C75  1  0.42927971  0.81312045  0.56414636  1  0  0.097099  0  3.854221  0  0  0.097741  0  4.115622  0  0  0.097576  0  4.137615  0  0  0.081265  0.097864  0  4.100963  0
C  C76  1  0.78628071  0.00592908  0.50109385  1  0  -0.133163  0  3.736338  0  0  -0.1521  0  3.991927  0  0  -0.155783  0  4.011648  0  0  -0.088994  -0.150047  0  3.978835  0
C  C77  1  0.21372068  0.99407640  0.49890479  1  0  -0.133162  0  3.736265  0  0  -0.152111  0  3.991864  0  0  -0.155793  0  4.011585  0  0  -0.089017  -0.150055  0  3.978767  0
C  C78  1  0.68708051  0.26395033  0.52625158  1  0  -0.077778  0  3.773148  0  0  -0.094854  0  4.02893  0  0  -0.098252  0  4.051237  0  0  -0.095557  -0.092722  0  4.013591  0
C  C79  1  0.31291946  0.73605185  0.47374798  1  0  -0.077665  0  3.77324  0  0  -0.094729  0  4.029006  0  0  -0.098124  0  4.051311  0  0  -0.095494  -0.092601  0  4.01366  0
C  C80  1  0.57678428  0.30015185  0.47463077  1  0  -0.13671  0  3.76354  0  0  -0.15529  0  4.011124  0  0  -0.156498  0  4.031931  0  0  -0.092211  -0.154224  0  3.996119  0
C  C81  1  0.42321547  0.69984703  0.52536800  1  0  -0.136759  0  3.763548  0  0  -0.155346  0  4.011149  0  0  -0.156554  0  4.031953  0  0  -0.092251  -0.154274  0  3.996139  0
C  C82  1  0.78830955  0.11885399  0.53968807  1  0  -0.047551  0  3.747836  0  0  -0.066853  0  4.004735  0  0  -0.067111  0  4.025832  0  0  -0.088062  -0.066322  0  3.990458  0
C  C83  1  0.21169349  0.88114599  0.46030980  1  0  -0.047592  0  3.747878  0  0  -0.0669  0  4.004781  0  0  -0.06716  0  4.025878  0  0  -0.088073  -0.066363  0  3.99049  0
C  C84  1  0.51810537  0.63888158  0.23081956  1  0  0.304111  0  3.72066  0  0  0.283873  0  4.00244  0  0  0.293207  0  4.018375  0  0  0.224269  0.277721  0  3.991594  0
C  C85  1  0.48189525  0.36111841  0.76918121  1  0  0.304158  0  3.720571  0  0  0.283867  0  4.002405  0  0  0.293202  0  4.018339  0  0  0.22426  0.277716  0  3.99156  0
C  C86  1  0.36656981  0.17595754  0.12805365  1  0  -0.097691  0  3.671183  0  0  -0.177558  0  3.924127  0  0  -0.174122  0  3.931647  0  0  -0.030529  -0.179144  0  3.918603  0
C  C87  1  0.63342721  0.82404244  0.87194686  1  0  -0.097701  0  3.671108  0  0  -0.177574  0  3.924113  0  0  -0.174139  0  3.931633  0  0  -0.030541  -0.17915  0  3.918589  0
C  C88  1  0.51796521  0.15604036  0.07108197  1  0  0.298398  0  3.743165  0  0  0.275947  0  4.03309  0  0  0.284734  0  4.048943  0  0  0.219143  0.270188  0  4.02191  0
C  C89  1  0.48203334  0.84395852  0.92891851  1  0  0.298456  0  3.743076  0  0  0.275969  0  4.033052  0  0  0.284756  0  4.048906  0  0  0.219184  0.270182  0  4.021903  0
N  N90  1  0.18554239  0.55846067  0.12118075  1  0  -0.256889  0  3.232773  0  0  -0.19666  0  3.544381  0  0  -0.208616  0  3.553944  0  0  -0.212109  -0.18886  0  3.538053  0
N  N91  1  0.81445703  0.44153932  0.87881957  1  0  -0.256933  0  3.232739  0  0  -0.196681  0  3.544357  0  0  -0.208637  0  3.553917  0  0  -0.212103  -0.188877  0  3.538024  0
N  N92  1  0.75572049  0.14802111  0.22588555  1  0  -0.26549  0  3.247166  0  0  -0.207768  0  3.562785  0  0  -0.220221  0  3.573798  0  0  -0.210929  -0.199461  0  3.555185  0
N  N93  1  0.24427893  0.85197888  0.77411478  1  0  -0.265482  0  3.247136  0  0  -0.207731  0  3.562736  0  0  -0.22018  0  3.573751  0  0  -0.210917  -0.19942  0  3.555127  0
N  N94  1  0.63895302  0.36850932  0.25280048  1  0  0.025913  0  3.485977  0  0  0.137946  0  3.676373  0  0  0.126889  0  3.699634  0  0  -0.110986  0.144431  0  3.661703  0
N  N95  1  0.36104673  0.63148957  0.74719991  1  0  0.025978  0  3.485932  0  0  0.137967  0  3.676377  0  0  0.126909  0  3.699637  0  0  -0.110984  0.144447  0  3.661711  0
N  N96  1  0.62003534  0.25611051  0.22269578  1  0  -0.034407  0  2.897053  0  0  -0.056053  0  3.185713  0  0  -0.048989  0  3.195434  0  0  -0.05864  -0.059991  0  3.178754  0
N  N97  1  0.37996529  0.74388948  0.77730391  1  0  -0.034453  0  2.897049  0  0  -0.056082  0  3.185709  0  0  -0.049019  0  3.195429  0  0  -0.058644  -0.060011  0  3.178736  0
N  N98  1  0.91185639  0.81575338  0.27170512  1  0  -0.30641  0  3.136816  0  0  -0.253084  0  3.420197  0  0  -0.267272  0  3.43448  0  0  -0.227558  -0.243545  0  3.409517  0
N  N99  1  0.08814390  0.18424771  0.72829451  1  0  -0.306433  0  3.136866  0  0  -0.253115  0  3.420254  0  0  -0.267304  0  3.434538  0  0  -0.227598  -0.243575  0  3.409569  0
N  N100  1  0.30907413  0.43959574  0.12978576  1  0  -0.048022  0  2.850803  0  0  -0.067062  0  3.123391  0  0  -0.060348  0  3.132573  0  0  -0.067405  -0.070977  0  3.117255  0
N  N101  1  0.69092650  0.56040425  0.87021393  1  0  -0.047995  0  2.850723  0  0  -0.067032  0  3.123317  0  0  -0.060318  0  3.132498  0  0  -0.0674  -0.070947  0  3.11718  0
N  N102  1  0.25679509  0.32417326  0.12055934  1  0  0.034141  0  3.516421  0  0  0.149622  0  3.700033  0  0  0.139323  0  3.722729  0  0  -0.110873  0.154976  0  3.686821  0
N  N103  1  0.74320433  0.67582672  0.87944044  1  0  0.034151  0  3.516367  0  0  0.149629  0  3.699987  0  0  0.139329  0  3.722683  0  0  -0.110869  0.154981  0  3.686777  0
N  N104  1  0.13733741  0.68161525  0.31576434  1  0  -0.091785  0  2.980297  0  0  -0.084372  0  3.280765  0  0  -0.084469  0  3.29389  0  0  -0.100693  -0.083874  0  3.271488  0
N  N105  1  0.86266234  0.31838363  0.68423605  1  0  -0.091787  0  2.980275  0  0  -0.084374  0  3.280739  0  0  -0.084471  0  3.293865  0  0  -0.100694  -0.083874  0  3.271467  0
N  N106  1  0.07616759  0.75351814  0.25537948  1  0  -0.122595  0  3.175936  0  0  -0.073047  0  3.469116  0  0  -0.080417  0  3.484241  0  0  -0.111522  -0.067527  0  3.458299  0
N  N107  1  0.92383391  0.24648294  0.74462113  1  0  -0.122572  0  3.175948  0  0  -0.073017  0  3.469121  0  0  -0.080388  0  3.484245  0  0  -0.111517  -0.067498  0  3.458308  0
N  N108  1  0.01396711  0.69531548  0.37290990  1  0  -0.317042  0  2.924864  0  0  -0.299286  0  3.212805  0  0  -0.307625  0  3.222749  0  0  -0.229763  -0.29361  0  3.205501  0
N  N109  1  0.98603231  0.30468451  0.62709096  1  0  -0.317026  0  2.92489  0  0  -0.299275  0  3.212824  0  0  -0.307616  0  3.22277  0  0  -0.229775  -0.293599  0  3.205516  0
N  N110  1  0.63690818  0.96600550  0.40110134  1  0  -0.002115  0  3.513798  0  0  0.080771  0  3.743293  0  0  0.067098  0  3.769159  0  0  -0.133151  0.089386  0  3.726125  0
N  N111  1  0.36309092  0.03399558  0.59889784  1  0  -0.002065  0  3.513805  0  0  0.080797  0  3.743336  0  0  0.067128  0  3.769202  0  0  -0.133161  0.089405  0  3.72618  0
N  N112  1  0.51454926  0.05460354  0.36274421  1  0  -0.0787  0  2.898977  0  0  -0.084178  0  3.202922  0  0  -0.078481  0  3.211914  0  0  -0.079498  -0.087678  0  3.196933  0
N  N113  1  0.48545017  0.94539644  0.63725450  1  0  -0.078778  0  2.899051  0  0  -0.084243  0  3.203002  0  0  -0.078547  0  3.211995  0  0  -0.079539  -0.087746  0  3.197021  0
N  N114  1  0.47368088  0.18653920  0.38314340  1  0  -0.243913  0  2.964218  0  0  -0.236198  0  3.268132  0  0  -0.240598  0  3.278358  0  0  -0.203666  -0.233491  0  3.261479  0
N  N115  1  0.52631942  0.81346188  0.61685514  1  0  -0.243955  0  2.964148  0  0  -0.236235  0  3.268068  0  0  -0.240638  0  3.278296  0  0  -0.203701  -0.233529  0  3.261419  0
N  N116  1  0.42594410  0.73293569  0.18158870  1  0  -0.311603  0  3.196129  0  0  -0.245745  0  3.497632  0  0  -0.262264  0  3.508852  0  0  -0.220678  -0.235325  0  3.490834  0
N  N117  1  0.57405772  0.26706430  0.81841197  1  0  -0.311561  0  3.196089  0  0  -0.245683  0  3.497594  0  0  -0.262205  0  3.508816  0  0  -0.220651  -0.235265  0  3.490803  0
N  N118  1  0.48839802  0.84973801  0.16480687  1  0  -0.049224  0  2.966274  0  0  -0.050003  0  3.252997  0  0  -0.047178  0  3.266689  0  0  -0.083265  -0.05213  0  3.244237  0
N  N119  1  0.51160293  0.15026087  0.83519342  1  0  -0.049372  0  2.966421  0  0  -0.050161  0  3.253144  0  0  -0.047336  0  3.266836  0  0  -0.08331  -0.052287  0  3.244382  0
N  N120  1  0.61358156  0.82618523  0.20266647  1  0  -0.125076  0  3.269112  0  0  -0.065092  0  3.58696  0  0  -0.074187  0  3.598335  0  0  -0.110727  -0.058947  0  3.579018  0
N  N121  1  0.38642026  0.17381476  0.79733420  1  0  -0.12492  0  3.269157  0  0  -0.064911  0  3.586975  0  0  -0.074008  0  3.598356  0  0  -0.110656  -0.058768  0  3.579027  0
N  N122  1  0.63506837  0.69598539  0.24490589  1  0  -0.285328  0  2.965414  0  0  -0.269989  0  3.242148  0  0  -0.278626  0  3.257542  0  0  -0.21228  -0.263819  0  3.231496  0
N  N123  1  0.36493258  0.30401350  0.75509440  1  0  -0.285392  0  2.965456  0  0  -0.270047  0  3.242219  0  0  -0.278683  0  3.257613  0  0  -0.212304  -0.263877  0  3.231564  0
N  N124  1  0.66987265  0.06963380  0.08345338  1  0  -0.324591  0  3.159886  0  0  -0.265651  0  3.447245  0  0  -0.281459  0  3.461366  0  0  -0.224603  -0.255135  0  3.437947  0
N  N125  1  0.33012677  0.93036619  0.91654694  1  0  -0.324571  0  3.159807  0  0  -0.265628  0  3.447199  0  0  -0.281433  0  3.46131  0  0  -0.224602  -0.255103  0  3.437897  0
N  N126  1  0.52126428  0.21790457  0.00103363  1  0  -0.277047  0  2.920548  0  0  -0.265777  0  3.199309  0  0  -0.273706  0  3.212513  0  0  -0.214654  -0.260099  0  3.18998  0
N  N127  1  0.47873547  0.78209431  0.99896622  1  0  -0.276973  0  2.920551  0  0  -0.265669  0  3.199301  0  0  -0.2736  0  3.212507  0  0  -0.214615  -0.259985  0  3.189979  0
N  N128  1  0.76988073  0.07743454  0.01893545  1  0  -0.094756  0  2.994217  0  0  -0.076933  0  3.267263  0  0  -0.076703  0  3.280363  0  0  -0.098465  -0.077009  0  3.258577  0
N  N129  1  0.23011869  0.92256544  0.98106488  1  0  -0.094793  0  2.994224  0  0  -0.076957  0  3.267266  0  0  -0.076728  0  3.280368  0  0  -0.098473  -0.077034  0  3.258571  0
N  N130  1  0.67974108  0.16679449  0.97029585  1  0  -0.114939  0  3.217487  0  0  -0.060738  0  3.522737  0  0  -0.06842  0  3.535387  0  0  -0.108907  -0.05509  0  3.514158  0
N  N131  1  0.32025954  0.83320550  0.02970437  1  0  -0.114999  0  3.217535  0  0  -0.060817  0  3.52281  0  0  -0.068497  0  3.535459  0  0  -0.108943  -0.055163  0  3.514221  0
O  O132  1  0.00384872  0.91529944  0.12080356  1  0  -0.924896  0  1.94966  0  0  -0.82367  0  2.257263  0  0  -0.851456  0  2.220051  0  0  -0.598906  -0.804012  0  2.281697  0
O  O133  1  0.99614949  0.08470054  0.87919686  1  0  -0.924896  0  1.94964  0  0  -0.823671  0  2.257267  0  0  -0.851458  0  2.220054  0  0  -0.598909  -0.804021  0  2.281694  0
