# generated using pymatgen
data_ZnH18C10(N2O3)2
_symmetry_space_group_name_H-M   'P 1'
_cell_length_a   4.98191381
_cell_length_b   9.40968762
_cell_length_c   14.51878421
_cell_angle_alpha   105.68234137
_cell_angle_beta   89.99958859
_cell_angle_gamma   89.99928545
_symmetry_Int_Tables_number   1
_chemical_formula_structural   ZnH18C10(N2O3)2
_chemical_formula_sum   'Zn2 H36 C20 N8 O12'
_cell_volume   655.27940042
_cell_formula_units_Z   2
loop_
 _symmetry_equiv_pos_site_id
 _symmetry_equiv_pos_as_xyz
  1  'x, y, z'
loop_
 _atom_site_type_symbol
 _atom_site_label
 _atom_site_symmetry_multiplicity
 _atom_site_fract_x
 _atom_site_fract_y
 _atom_site_fract_z
 _atom_site_occupancy
 _atom_site_hle17_bader_spin_density
 _atom_site_hle17_ddec_charge
 _atom_site_hle17_ddec_spin_density
 _atom_site_hle17_ddec_sum_bond_order
 _atom_site_hle17_magmom
 _atom_site_hse06_10hf_bader_spin_density
 _atom_site_hse06_10hf_ddec_charge
 _atom_site_hse06_10hf_ddec_spin_density
 _atom_site_hse06_10hf_ddec_sum_bond_order
 _atom_site_hse06_10hf_magmom
 _atom_site_hse06_bader_spin_density
 _atom_site_hse06_ddec_charge
 _atom_site_hse06_ddec_spin_density
 _atom_site_hse06_ddec_sum_bond_order
 _atom_site_hse06_magmom
 _atom_site_pbe_bader_spin_density
 _atom_site_pbe_cm5_charge
 _atom_site_pbe_ddec_charge
 _atom_site_pbe_ddec_spin_density
 _atom_site_pbe_ddec_sum_bond_order
 _atom_site_pbe_magmom
Zn  Zn0  1  0.16074476  0.74904368  0.01950106  1  0  1.059501  0  1.723653  0  0  0.875539  0  2.174909  0  0  0.923182  0  2.122085  0  0  0.681824  0.841934  0  2.211257  0
Zn  Zn1  1  0.66072942  0.25097549  0.98049309  1  0  1.059458  0  1.723684  0  0  0.875517  0  2.174863  0  0  0.923165  0  2.122039  0  0  0.681747  0.841904  0  2.211214  0
H  H2  1  0.63046203  0.35061990  0.65663444  1  0  0.112684  0  0.925375  0  0  0.128498  0  0.983286  0  0  0.131169  0  0.982388  0  0  0.104777  0.1265  0  0.984186  0
H  H3  1  0.13047518  0.64933558  0.34336391  1  0  0.112532  0  0.925686  0  0  0.128289  0  0.983617  0  0  0.13098  0  0.9827  0  0  0.10476  0.1263  0  0.984503  0
H  H4  1  0.27991635  0.87107082  0.23057300  1  0  0.086657  0  0.964846  0  0  0.099571  0  1.032852  0  0  0.101682  0  1.03168  0  0  0.094892  0.097927  0  1.033876  0
H  H5  1  0.77991402  0.12892638  0.76942254  1  0  0.086694  0  0.964859  0  0  0.09964  0  1.032844  0  0  0.101751  0  1.031671  0  0  0.094939  0.097994  0  1.033871  0
H  H6  1  0.19679908  0.30503774  0.73755855  1  0  0.081834  0  0.954758  0  0  0.094617  0  1.024707  0  0  0.096439  0  1.023744  0  0  0.095535  0.09321  0  1.025646  0
H  H7  1  0.69681606  0.69496907  0.26245265  1  0  0.081758  0  0.954887  0  0  0.09462  0  1.024763  0  0  0.096442  0  1.023801  0  0  0.095534  0.093209  0  1.025712  0
H  H8  1  0.12876885  0.27589019  0.58418252  1  0  0.343482  0  0.9083  0  0  0.322521  0  0.976454  0  0  0.330444  0  0.970016  0  0  0.302075  0.316679  0  0.981381  0
H  H9  1  0.62874999  0.72409507  0.41581273  1  0  0.343292  0  0.908658  0  0  0.322334  0  0.976787  0  0  0.330254  0  0.970362  0  0  0.301999  0.31649  0  0.981721  0
H  H10  1  0.62042493  0.53822478  0.72285870  1  0  0.103245  0  0.935034  0  0  0.115536  0  0.998503  0  0  0.11824  0  0.996731  0  0  0.100301  0.113586  0  0.999748  0
H  H11  1  0.12039952  0.46173956  0.27712950  1  0  0.103308  0  0.934904  0  0  0.115579  0  0.998343  0  0  0.118298  0  0.996561  0  0  0.100339  0.113627  0  0.999587  0
H  H12  1  0.05432404  0.57657854  0.79729576  1  0  0.079804  0  0.908154  0  0  0.096483  0  0.961069  0  0  0.097627  0  0.961148  0  0  0.119218  0.095499  0  0.961322  0
H  H13  1  0.55429620  0.42344597  0.20270372  1  0  0.079879  0  0.908075  0  0  0.096555  0  0.960937  0  0  0.097699  0  0.961012  0  0  0.119235  0.095569  0  0.961187  0
H  H14  1  0.77482383  0.82857606  0.15010678  1  0  0.298231  0  0.905924  0  0  0.286948  0  0.965056  0  0  0.292686  0  0.96159  0  0  0.294468  0.282824  0  0.96761  0
H  H15  1  0.27481568  0.17143113  0.84989120  1  0  0.298176  0  0.906029  0  0  0.286915  0  0.965166  0  0  0.292655  0  0.961699  0  0  0.294471  0.28279  0  0.967719  0
H  H16  1  0.74651123  0.91717289  0.06843406  1  0  0.316892  0  0.918222  0  0  0.300145  0  0.98083  0  0  0.307169  0  0.975969  0  0  0.292941  0.295113  0  0.984373  0
H  H17  1  0.24651550  0.08284670  0.93156889  1  0  0.316951  0  0.918198  0  0  0.300213  0  0.980809  0  0  0.307236  0  0.975951  0  0  0.29297  0.295181  0  0.984357  0
H  H18  1  0.18207896  0.18082790  0.36364923  1  0  0.110536  0  0.938393  0  0  0.123711  0  1.002289  0  0  0.126827  0  1.000646  0  0  0.101341  0.121468  0  1.003556  0
H  H19  1  0.68211375  0.81917019  0.63635636  1  0  0.110577  0  0.938473  0  0  0.123755  0  1.002285  0  0  0.126869  0  1.000644  0  0  0.101382  0.121512  0  1.003558  0
H  H20  1  0.48248120  0.35004234  0.81203202  1  0  0.082403  0  0.968031  0  0  0.097737  0  1.034638  0  0  0.098793  0  1.035096  0  0  0.096695  0.096987  0  1.03435  0
H  H21  1  0.98249468  0.64996644  0.18797534  1  0  0.082441  0  0.967899  0  0  0.097772  0  1.034558  0  0  0.098827  0  1.035017  0  0  0.096686  0.09702  0  1.034274  0
H  H22  1  0.44692617  0.14630262  0.28209839  1  0  0.105137  0  0.943262  0  0  0.120475  0  1.002334  0  0  0.122743  0  1.001752  0  0  0.101418  0.118823  0  1.002893  0
H  H23  1  0.94694049  0.85369982  0.71790382  1  0  0.10512  0  0.943474  0  0  0.120472  0  1.002484  0  0  0.122739  0  1.001901  0  0  0.101444  0.118819  0  1.003045  0
H  H24  1  0.98919458  0.93572419  0.29760865  1  0  0.075781  0  0.933718  0  0  0.09458  0  0.993098  0  0  0.095472  0  0.9939  0  0  0.093364  0.09395  0  0.992535  0
H  H25  1  0.48919181  0.06426793  0.70238616  1  0  0.075755  0  0.933796  0  0  0.094565  0  0.993164  0  0  0.095452  0  0.993971  0  0  0.093378  0.093934  0  0.9926  0
H  H26  1  0.89548002  0.10577209  0.19524160  1  0  0.054991  0  0.917466  0  0  0.070247  0  0.972671  0  0  0.071711  0  0.97196  0  0  0.106562  0.06918  0  0.97325  0
H  H27  1  0.39548040  0.89423853  0.80476561  1  0  0.05491  0  0.917329  0  0  0.07021  0  0.972618  0  0  0.071677  0  0.971907  0  0  0.106526  0.069141  0  0.973199  0
H  H28  1  0.76876458  0.11205071  0.49851535  1  0  0.340735  0  0.92941  0  0  0.319762  0  0.995747  0  0  0.328116  0  0.988844  0  0  0.296622  0.314002  0  1.000446  0
H  H29  1  0.26878520  0.88793557  0.50148177  1  0  0.340737  0  0.929364  0  0  0.319778  0  0.995669  0  0  0.328128  0  0.98877  0  0  0.296626  0.314018  0  1.000371  0
H  H30  1  0.67551043  0.24037659  0.43486811  1  0  0.340955  0  0.921645  0  0  0.321236  0  0.987311  0  0  0.329324  0  0.980759  0  0  0.298569  0.315408  0  0.992163  0
H  H31  1  0.17551866  0.75961274  0.56514011  1  0  0.340858  0  0.921795  0  0  0.321268  0  0.987322  0  0  0.329352  0  0.980778  0  0  0.298581  0.315442  0  0.99217  0
H  H32  1  0.03543859  0.39514089  0.51471538  1  0  0.339945  0  0.921803  0  0  0.320796  0  0.985868  0  0  0.329075  0  0.979032  0  0  0.299165  0.315124  0  0.990469  0
H  H33  1  0.53543110  0.60484189  0.48528725  1  0  0.340013  0  0.921735  0  0  0.320864  0  0.985842  0  0  0.329128  0  0.979026  0  0  0.299164  0.31519  0  0.990451  0
H  H34  1  0.44763471  0.70038877  0.85969162  1  0  0.300809  0  0.912862  0  0  0.287546  0  0.974529  0  0  0.294018  0  0.969806  0  0  0.293167  0.28311  0  0.977655  0
H  H35  1  0.94758485  0.29960701  0.14030393  1  0  0.300803  0  0.912852  0  0  0.287494  0  0.974605  0  0  0.293973  0  0.969865  0  0  0.293098  0.283054  0  0.977733  0
H  H36  1  0.51823073  0.58670554  0.92327272  1  0  0.303957  0  0.918709  0  0  0.290522  0  0.977829  0  0  0.296529  0  0.974591  0  0  0.293332  0.286168  0  0.980309  0
H  H37  1  0.01823451  0.41328953  0.07673209  1  0  0.304008  0  0.918702  0  0  0.290532  0  0.977856  0  0  0.296538  0  0.974621  0  0  0.29333  0.286177  0  0.980332  0
C  C38  1  0.98701999  0.46798522  0.90428125  1  0  0.657745  0  3.803206  0  0  0.600324  0  4.107966  0  0  0.634696  0  4.099829  0  0  0.218637  0.577112  0  4.112479  0
C  C39  1  0.48703072  0.53205548  0.09572266  1  0  0.658307  0  3.802314  0  0  0.600751  0  4.107158  0  0  0.635122  0  4.099016  0  0  0.218897  0.577531  0  4.111685  0
C  C40  1  0.25679317  0.05397844  0.11076481  1  0  0.640174  0  3.853724  0  0  0.590884  0  4.156362  0  0  0.623547  0  4.149546  0  0  0.205723  0.568756  0  4.160214  0
C  C41  1  0.75681400  0.94601564  0.88922888  1  0  0.640097  0  3.854413  0  0  0.590764  0  4.157242  0  0  0.623427  0  4.150429  0  0  0.205698  0.56864  0  4.161086  0
C  C42  1  0.15281121  0.96896759  0.25693570  1  0  -0.128003  0  3.671354  0  0  -0.172985  0  3.928354  0  0  -0.17399  0  3.94177  0  0  -0.166213  -0.17206  0  3.919164  0
C  C43  1  0.65280963  0.03103731  0.74305944  1  0  -0.128053  0  3.671456  0  0  -0.173072  0  3.928569  0  0  -0.174067  0  3.941976  0  0  -0.166292  -0.172146  0  3.919374  0
C  C44  1  0.18400335  0.52003918  0.83793062  1  0  0.060158  0  3.600567  0  0  0.040591  0  3.843586  0  0  0.039507  0  3.857778  0  0  -0.002055  0.041291  0  3.833841  0
C  C45  1  0.68400114  0.47998424  0.16207247  1  0  0.05984  0  3.600788  0  0  0.040427  0  3.843611  0  0  0.039347  0  3.857791  0  0  -0.002192  0.041134  0  3.833857  0
C  C46  1  0.33774758  0.39437495  0.76995990  1  0  -0.142582  0  3.675387  0  0  -0.190481  0  3.933691  0  0  -0.191183  0  3.946823  0  0  -0.169104  -0.189726  0  3.924461  0
C  C47  1  0.83775520  0.60563177  0.23004954  1  0  -0.142392  0  3.675433  0  0  -0.190486  0  3.933781  0  0  -0.191196  0  3.94693  0  0  -0.168982  -0.189727  0  3.924559  0
C  C48  1  0.49448077  0.44122209  0.69212452  1  0  -0.256693  0  3.654023  0  0  -0.293653  0  3.902608  0  0  -0.299382  0  3.911423  0  0  -0.163158  -0.289679  0  3.896483  0
C  C49  1  0.99447586  0.55875013  0.30787097  1  0  -0.25642  0  3.654293  0  0  -0.293359  0  3.902788  0  0  -0.2991  0  3.911557  0  0  -0.163168  -0.289392  0  3.896666  0
C  C50  1  0.48556003  0.03892607  0.39359288  1  0  0.668381  0  3.789155  0  0  0.625853  0  4.079251  0  0  0.654917  0  4.077503  0  0  0.243394  0.606171  0  4.079776  0
C  C51  1  0.98557413  0.96104514  0.60640383  1  0  0.668438  0  3.7892  0  0  0.625588  0  4.079732  0  0  0.654663  0  4.077977  0  0  0.243344  0.605907  0  4.080251  0
C  C52  1  0.03059887  0.01035503  0.17047344  1  0  0.06219  0  3.609674  0  0  0.043014  0  3.853315  0  0  0.042359  0  3.866768  0  0  -0.004625  0.043281  0  3.844308  0
C  C53  1  0.53060184  0.98965313  0.82952327  1  0  0.062482  0  3.609089  0  0  0.043054  0  3.853299  0  0  0.042381  0  3.86679  0  0  -0.004556  0.04333  0  3.844285  0
C  C54  1  0.32239865  0.47818343  0.61561030  1  0  0.666593  0  3.798934  0  0  0.626063  0  4.086588  0  0  0.654952  0  4.08521  0  0  0.243416  0.606527  0  4.086969  0
C  C55  1  0.82240509  0.52181125  0.38439296  1  0  0.665941  0  3.799404  0  0  0.625727  0  4.086525  0  0  0.654611  0  4.085163  0  0  0.243274  0.606195  0  4.086897  0
C  C56  1  0.31476231  0.09214173  0.32309433  1  0  -0.267291  0  3.678111  0  0  -0.304484  0  3.925334  0  0  -0.310587  0  3.934797  0  0  -0.165867  -0.30027  0  3.918697  0
C  C57  1  0.81477220  0.90785189  0.67690602  1  0  -0.267305  0  3.678505  0  0  -0.304278  0  3.925563  0  0  -0.310384  0  3.935029  0  0  -0.165848  -0.300065  0  3.918929  0
N  N58  1  0.88512260  0.88214649  0.11024362  1  0  -0.653367  0  3.120597  0  0  -0.599258  0  3.379571  0  0  -0.618404  0  3.375294  0  0  -0.62891  -0.586107  0  3.382696  0
N  N59  1  0.38511888  0.11786527  0.88975486  1  0  -0.653504  0  3.120572  0  0  -0.599348  0  3.379575  0  0  -0.618493  0  3.375302  0  0  -0.628992  -0.586196  0  3.382671  0
N  N60  1  0.14580748  0.37633547  0.57008720  1  0  -0.68774  0  3.097287  0  0  -0.64788  0  3.327721  0  0  -0.671855  0  3.324254  0  0  -0.568066  -0.631359  0  3.329967  0
N  N61  1  0.64580067  0.62364082  0.42990852  1  0  -0.687331  0  3.097938  0  0  -0.64758  0  3.328195  0  0  -0.671541  0  3.324769  0  0  -0.567873  -0.631058  0  3.330439  0
N  N62  1  0.36042161  0.63483880  0.89733096  1  0  -0.644665  0  3.125439  0  0  -0.591328  0  3.382274  0  0  -0.610319  0  3.378499  0  0  -0.629121  -0.578098  0  3.384588  0
N  N63  1  0.86039710  0.36517431  0.10267264  1  0  -0.644876  0  3.12602  0  0  -0.591444  0  3.382614  0  0  -0.610445  0  3.378852  0  0  -0.629052  -0.578207  0  3.384919  0
N  N64  1  0.65265479  0.13872649  0.44699991  1  0  -0.69468  0  3.10755  0  0  -0.657272  0  3.343476  0  0  -0.681212  0  3.339483  0  0  -0.573303  -0.64072  0  3.345852  0
N  N65  1  0.15267700  0.86126632  0.55300347  1  0  -0.694593  0  3.10778  0  0  -0.657223  0  3.343702  0  0  -0.681156  0  3.339717  0  0  -0.573282  -0.640676  0  3.346083  0
O  O66  1  0.90895936  0.33449005  0.88142779  1  0  -0.627639  0  2.034828  0  0  -0.554381  0  2.288665  0  0  -0.580873  0  2.27629  0  0  -0.306933  -0.53595  0  2.296653  0
O  O67  1  0.40899470  0.66553584  0.11856894  1  0  -0.627905  0  2.034961  0  0  -0.554563  0  2.288768  0  0  -0.581052  0  2.276399  0  0  -0.307062  -0.536127  0  2.296751  0
O  O68  1  0.36572169  0.94844925  0.04610008  1  0  -0.654199  0  2.069135  0  0  -0.573754  0  2.32276  0  0  -0.602724  0  2.311246  0  0  -0.322403  -0.553578  0  2.330074  0
O  O69  1  0.86572145  0.05156709  0.95389924  1  0  -0.65419  0  2.06885  0  0  -0.573717  0  2.322532  0  0  -0.602691  0  2.311017  0  0  -0.322386  -0.553537  0  2.329844  0
O  O70  1  0.90005358  0.56601551  0.97681301  1  0  -0.638822  0  2.099324  0  0  -0.564352  0  2.356304  0  0  -0.592511  0  2.34551  0  0  -0.311878  -0.544693  0  2.363015  0
O  O71  1  0.40003386  0.43401600  0.02318885  1  0  -0.639078  0  2.098642  0  0  -0.564562  0  2.355634  0  0  -0.592726  0  2.344838  0  0  -0.312029  -0.544899  0  2.36235  0
O  O72  1  0.32966707  0.18645932  0.13057675  1  0  -0.623958  0  1.922882  0  0  -0.579766  0  2.163309  0  0  -0.602231  0  2.152703  0  0  -0.323029  -0.564193  0  2.170238  0
O  O73  1  0.82969333  0.81357055  0.86941812  1  0  -0.623907  0  1.924026  0  0  -0.57967  0  2.164485  0  0  -0.602124  0  2.15387  0  0  -0.323025  -0.564106  0  2.171416  0
O  O74  1  0.46846625  0.90899703  0.40162209  1  0  -0.637326  0  1.939026  0  0  -0.579764  0  2.159291  0  0  -0.600854  0  2.149528  0  0  -0.321146  -0.565021  0  2.165733  0
O  O75  1  0.96847021  0.09098866  0.59837579  1  0  -0.637453  0  1.938589  0  0  -0.579748  0  2.158963  0  0  -0.600852  0  2.149191  0  0  -0.32119  -0.565001  0  2.165397  0
O  O76  1  0.34984876  0.59966338  0.59554429  1  0  -0.635682  0  1.939798  0  0  -0.583787  0  2.15894  0  0  -0.605037  0  2.149385  0  0  -0.321571  -0.569125  0  2.165289  0
O  O77  1  0.84985155  0.40031010  0.40445523  1  0  -0.635542  0  1.939679  0  0  -0.583685  0  2.158602  0  0  -0.604948  0  2.149053  0  0  -0.321542  -0.569023  0  2.164944  0
