# generated using pymatgen
data_HgH8(C5N4)2
_symmetry_space_group_name_H-M   'P 1'
_cell_length_a   6.16624877
_cell_length_b   10.37184343
_cell_length_c   17.89092044
_cell_angle_alpha   90.00033617
_cell_angle_beta   89.99942856
_cell_angle_gamma   96.10521716
_symmetry_Int_Tables_number   1
_chemical_formula_structural   HgH8(C5N4)2
_chemical_formula_sum   'Hg4 H32 C40 N32'
_cell_volume   1137.73066394
_cell_formula_units_Z   4
loop_
 _symmetry_equiv_pos_site_id
 _symmetry_equiv_pos_as_xyz
  1  'x, y, z'
loop_
 _atom_site_type_symbol
 _atom_site_label
 _atom_site_symmetry_multiplicity
 _atom_site_fract_x
 _atom_site_fract_y
 _atom_site_fract_z
 _atom_site_occupancy
 _atom_site_hle17_bader_spin_density
 _atom_site_hle17_ddec_charge
 _atom_site_hle17_ddec_spin_density
 _atom_site_hle17_ddec_sum_bond_order
 _atom_site_hle17_magmom
 _atom_site_hse06_10hf_bader_spin_density
 _atom_site_hse06_10hf_ddec_charge
 _atom_site_hse06_10hf_ddec_spin_density
 _atom_site_hse06_10hf_ddec_sum_bond_order
 _atom_site_hse06_10hf_magmom
 _atom_site_hse06_bader_spin_density
 _atom_site_hse06_ddec_charge
 _atom_site_hse06_ddec_spin_density
 _atom_site_hse06_ddec_sum_bond_order
 _atom_site_hse06_magmom
 _atom_site_pbe_bader_spin_density
 _atom_site_pbe_cm5_charge
 _atom_site_pbe_ddec_charge
 _atom_site_pbe_ddec_spin_density
 _atom_site_pbe_ddec_sum_bond_order
 _atom_site_pbe_magmom
Hg  Hg0  1  0.63152457  0.01437259  0.86706948  1  0  0.838403  0  1.880638  0  0  0.629023  0  2.343645  0  0  0.68194  0  2.311993  0  0  0.717224  0.591236  0  2.364487  0
Hg  Hg1  1  0.36848231  0.48562903  0.36706515  1  0  0.838374  0  1.880663  0  0  0.629011  0  2.343655  0  0  0.681933  0  2.311994  0  0  0.717228  0.591223  0  2.364501  0
Hg  Hg2  1  0.36848007  0.98562881  0.13293271  1  0  0.838347  0  1.880705  0  0  0.629008  0  2.343666  0  0  0.681927  0  2.31201  0  0  0.717228  0.591215  0  2.364524  0
Hg  Hg3  1  0.63153011  0.51437045  0.63293424  1  0  0.838436  0  1.880553  0  0  0.629039  0  2.34359  0  0  0.681967  0  2.311919  0  0  0.717236  0.591242  0  2.364458  0
H  H4  1  0.55774133  0.09658302  0.61126345  1  0  0.089773  0  0.957422  0  0  0.10188  0  1.018189  0  0  0.104497  0  1.017475  0  0  0.095968  0.100042  0  1.018693  0
H  H5  1  0.44225600  0.40341445  0.11125859  1  0  0.089871  0  0.957545  0  0  0.101978  0  1.018283  0  0  0.104594  0  1.017574  0  0  0.096038  0.100139  0  1.018786  0
H  H6  1  0.44223325  0.90340374  0.38873817  1  0  0.089754  0  0.957451  0  0  0.101889  0  1.018191  0  0  0.104513  0  1.017463  0  0  0.095987  0.100047  0  1.018702  0
H  H7  1  0.55775545  0.59658890  0.88875309  1  0  0.089889  0  0.957502  0  0  0.101896  0  1.018351  0  0  0.104511  0  1.017648  0  0  0.096015  0.100058  0  1.018854  0
H  H8  1  0.57294988  0.90246326  0.53184629  1  0  0.091364  0  0.96088  0  0  0.102897  0  1.024623  0  0  0.10554  0  1.023503  0  0  0.097611  0.10105  0  1.025457  0
H  H9  1  0.42705691  0.59753706  0.03184324  1  0  0.091306  0  0.960881  0  0  0.102874  0  1.024591  0  0  0.105515  0  1.023473  0  0  0.097587  0.101028  0  1.025423  0
H  H10  1  0.42702761  0.09752158  0.46815701  1  0  0.091456  0  0.96077  0  0  0.102994  0  1.024514  0  0  0.105635  0  1.023394  0  0  0.097676  0.101148  0  1.025348  0
H  H11  1  0.57296329  0.40246050  0.96816062  1  0  0.091333  0  0.960941  0  0  0.102846  0  1.024707  0  0  0.105486  0  1.023588  0  0  0.097586  0.101  0  1.02554  0
H  H12  1  0.21961568  0.86351553  0.61255928  1  0  0.091514  0  1.002383  0  0  0.096156  0  1.074795  0  0  0.0989  0  1.073789  0  0  0.097664  0.094202  0  1.075505  0
H  H13  1  0.78040416  0.63648940  0.11256353  1  0  0.091515  0  1.002404  0  0  0.09615  0  1.074819  0  0  0.098891  0  1.073813  0  0  0.097644  0.094198  0  1.075527  0
H  H14  1  0.78040229  0.13649753  0.38742390  1  0  0.091607  0  1.002433  0  0  0.09623  0  1.074864  0  0  0.098968  0  1.073851  0  0  0.097666  0.094276  0  1.075572  0
H  H15  1  0.21960826  0.36351008  0.88743418  1  0  0.091567  0  1.002349  0  0  0.096208  0  1.074757  0  0  0.098951  0  1.073748  0  0  0.097644  0.094254  0  1.075465  0
H  H16  1  0.20006667  0.05073231  0.69543517  1  0  0.092852  0  0.973471  0  0  0.095553  0  1.048723  0  0  0.098759  0  1.047177  0  0  0.095214  0.093297  0  1.049809  0
H  H17  1  0.79993080  0.44927072  0.19543427  1  0  0.092891  0  0.973428  0  0  0.095557  0  1.048715  0  0  0.098763  0  1.04717  0  0  0.095193  0.093301  0  1.049802  0
H  H18  1  0.79993326  0.94927004  0.30455862  1  0  0.092871  0  0.973536  0  0  0.095554  0  1.048813  0  0  0.09876  0  1.047268  0  0  0.095211  0.093298  0  1.0499  0
H  H19  1  0.20006118  0.55073257  0.80456400  1  0  0.092906  0  0.97344  0  0  0.095541  0  1.048737  0  0  0.098747  0  1.047191  0  0  0.095207  0.093284  0  1.049823  0
H  H20  1  0.99364619  0.20431049  0.75277209  1  0  0.115215  0  0.94828  0  0  0.124399  0  1.017727  0  0  0.126307  0  1.016955  0  0  0.106728  0.123051  0  1.018344  0
H  H21  1  0.00635067  0.29568915  0.25277116  1  0  0.115181  0  0.948305  0  0  0.124384  0  1.017753  0  0  0.126289  0  1.016987  0  0  0.106728  0.123035  0  1.018371  0
H  H22  1  0.00634414  0.79568311  0.24722226  1  0  0.115108  0  0.948298  0  0  0.12433  0  1.017746  0  0  0.126234  0  1.016983  0  0  0.106698  0.122979  0  1.018362  0
H  H23  1  0.99365608  0.70431515  0.74723549  1  0  0.11517  0  0.94838  0  0  0.124358  0  1.017783  0  0  0.126263  0  1.017018  0  0  0.106749  0.123009  0  1.0184  0
H  H24  1  0.96643310  0.29632201  0.67232926  1  0  0.106306  0  0.960469  0  0  0.111658  0  1.040491  0  0  0.113932  0  1.038102  0  0  0.09982  0.109847  0  1.042374  0
H  H25  1  0.03357133  0.20367988  0.17232457  1  0  0.106329  0  0.960483  0  0  0.11169  0  1.040533  0  0  0.11397  0  1.038132  0  0  0.099833  0.109881  0  1.042414  0
H  H26  1  0.03354750  0.70367156  0.32767237  1  0  0.106391  0  0.960405  0  0  0.111776  0  1.04043  0  0  0.114057  0  1.038031  0  0  0.099843  0.109961  0  1.042309  0
H  H27  1  0.96642681  0.79632149  0.82768041  1  0  0.106498  0  0.960392  0  0  0.111756  0  1.040491  0  0  0.114037  0  1.038086  0  0  0.099855  0.109945  0  1.042373  0
H  H28  1  0.75318796  0.71358908  0.49723649  1  0  0.102611  0  0.931469  0  0  0.11243  0  1.002886  0  0  0.114259  0  1.000969  0  0  0.099267  0.1112  0  1.004185  0
H  H29  1  0.24682133  0.78641910  0.99724138  1  0  0.102589  0  0.931451  0  0  0.112472  0  1.002823  0  0  0.114302  0  1.000902  0  0  0.099304  0.11124  0  1.004132  0
H  H30  1  0.24683353  0.28640655  0.50275675  1  0  0.102553  0  0.931395  0  0  0.112428  0  1.002784  0  0  0.114255  0  1.00087  0  0  0.09927  0.111194  0  1.004096  0
H  H31  1  0.75317310  0.21358905  0.00276136  1  0  0.102578  0  0.931474  0  0  0.112441  0  1.00284  0  0  0.114272  0  1.000917  0  0  0.099266  0.11121  0  1.004149  0
H  H32  1  0.99350225  0.79566283  0.45923481  1  0  0.113553  0  0.955763  0  0  0.131743  0  1.009503  0  0  0.132222  0  1.01147  0  0  0.105258  0.131511  0  1.008187  0
H  H33  1  0.00651359  0.70433922  0.95923522  1  0  0.113625  0  0.955664  0  0  0.131834  0  1.009385  0  0  0.132298  0  1.011369  0  0  0.105294  0.131609  0  1.008064  0
H  H34  1  0.00651210  0.20432890  0.54076234  1  0  0.11356  0  0.955668  0  0  0.131744  0  1.009433  0  0  0.132221  0  1.011404  0  0  0.105272  0.131514  0  1.008115  0
H  H35  1  0.99347969  0.29566213  0.04076640  1  0  0.113596  0  0.955695  0  0  0.131767  0  1.009427  0  0  0.13223  0  1.011411  0  0  0.105284  0.131547  0  1.008104  0
C  C36  1  0.88099038  0.09043744  0.65773394  1  0  0.093933  0  3.754043  0  0  0.115558  0  3.987762  0  0  0.115464  0  4.011819  0  0  -0.018522  0.115535  0  3.971426  0
C  C37  1  0.11900197  0.40956719  0.15773580  1  0  0.093991  0  3.754029  0  0  0.11563  0  3.987774  0  0  0.115536  0  4.011831  0  0  -0.018542  0.115612  0  3.971433  0
C  C38  1  0.11899509  0.90955614  0.34225874  1  0  0.093896  0  3.753866  0  0  0.11555  0  3.987641  0  0  0.115456  0  4.0117  0  0  -0.018535  0.115523  0  3.971307  0
C  C39  1  0.88098727  0.59043900  0.84227309  1  0  0.094186  0  3.754238  0  0  0.11568  0  3.988042  0  0  0.115587  0  4.012096  0  0  -0.01846  0.115656  0  3.971707  0
C  C40  1  0.70425977  0.04599650  0.61185056  1  0  -0.124085  0  3.746749  0  0  -0.145085  0  3.996988  0  0  -0.147622  0  4.017968  0  0  -0.100568  -0.143457  0  3.982924  0
C  C41  1  0.29574906  0.45400197  0.11184861  1  0  -0.124227  0  3.746431  0  0  -0.145216  0  3.996689  0  0  -0.147755  0  4.017667  0  0  -0.100618  -0.14359  0  3.982628  0
C  C42  1  0.29572734  0.95400677  0.38814882  1  0  -0.124081  0  3.746919  0  0  -0.145102  0  3.997192  0  0  -0.147641  0  4.018178  0  0  -0.100594  -0.143475  0  3.983127  0
C  C43  1  0.70425249  0.54600038  0.88815692  1  0  -0.124278  0  3.746641  0  0  -0.145154  0  3.996922  0  0  -0.147696  0  4.017896  0  0  -0.100623  -0.143526  0  3.982861  0
C  C44  1  0.71316937  0.93711283  0.56635020  1  0  -0.113291  0  3.739037  0  0  -0.133573  0  3.98703  0  0  -0.135875  0  4.009117  0  0  -0.095626  -0.132017  0  3.972261  0
C  C45  1  0.28683064  0.56289164  0.06634752  1  0  -0.113286  0  3.739097  0  0  -0.133614  0  3.987096  0  0  -0.135909  0  4.009168  0  0  -0.095669  -0.132057  0  3.972326  0
C  C46  1  0.28682402  0.06287011  0.43364695  1  0  -0.113306  0  3.739132  0  0  -0.133582  0  3.987153  0  0  -0.135886  0  4.009247  0  0  -0.095662  -0.132026  0  3.972381  0
C  C47  1  0.71316912  0.43710974  0.93365746  1  0  -0.113192  0  3.738964  0  0  -0.133438  0  3.986966  0  0  -0.135736  0  4.009046  0  0  -0.095625  -0.131882  0  3.972199  0
C  C48  1  0.90058686  0.87192686  0.56468636  1  0  0.100394  0  3.739771  0  0  0.122193  0  3.973169  0  0  0.121312  0  3.998664  0  0  -0.015013  0.122683  0  3.95601  0
C  C49  1  0.09943251  0.62807668  0.06468901  1  0  0.100557  0  3.739724  0  0  0.122404  0  3.973059  0  0  0.121526  0  3.998548  0  0  -0.014874  0.122896  0  3.9559  0
C  C50  1  0.09940983  0.12807547  0.43530856  1  0  0.100373  0  3.739499  0  0  0.122114  0  3.972985  0  0  0.121233  0  3.99848  0  0  -0.015036  0.122605  0  3.955822  0
C  C51  1  0.90056806  0.37191985  0.93531485  1  0  0.100608  0  3.73943  0  0  0.122335  0  3.972896  0  0  0.121454  0  3.998385  0  0  -0.014811  0.12283  0  3.955737  0
C  C52  1  0.07518888  0.91522401  0.61127013  1  0  -0.117042  0  3.749848  0  0  -0.136054  0  3.993742  0  0  -0.138523  0  4.015888  0  0  -0.099113  -0.134312  0  3.978666  0
C  C53  1  0.92482143  0.58478184  0.11127539  1  0  -0.117093  0  3.74961  0  0  -0.136108  0  3.993464  0  0  -0.138573  0  4.015607  0  0  -0.099192  -0.134365  0  3.978387  0
C  C54  1  0.92480503  0.08477153  0.38871640  1  0  -0.117119  0  3.750027  0  0  -0.136091  0  3.993895  0  0  -0.138549  0  4.016035  0  0  -0.099083  -0.134345  0  3.978814  0
C  C55  1  0.07518516  0.41522149  0.88872790  1  0  -0.117296  0  3.749508  0  0  -0.136297  0  3.993415  0  0  -0.138761  0  4.015558  0  0  -0.099241  -0.134553  0  3.978335  0
C  C56  1  0.06454081  0.02182096  0.65785429  1  0  -0.114573  0  3.740737  0  0  -0.131563  0  3.986212  0  0  -0.134314  0  4.007156  0  0  -0.096842  -0.129523  0  3.9719  0
C  C57  1  0.93547587  0.47818374  0.15785692  1  0  -0.11466  0  3.741023  0  0  -0.131613  0  3.986463  0  0  -0.134366  0  4.007406  0  0  -0.096798  -0.129574  0  3.97215  0
C  C58  1  0.93546269  0.97818333  0.34213951  1  0  -0.114655  0  3.741364  0  0  -0.131647  0  3.986794  0  0  -0.1344  0  4.007737  0  0  -0.096902  -0.129608  0  3.972483  0
C  C59  1  0.06452602  0.52182055  0.84214805  1  0  -0.114731  0  3.740952  0  0  -0.131599  0  3.98645  0  0  -0.134353  0  4.007393  0  0  -0.096872  -0.129558  0  3.972138  0
C  C60  1  0.88756195  0.21309945  0.70411577  1  0  -0.260034  0  3.74512  0  0  -0.300006  0  3.977856  0  0  -0.302655  0  3.986862  0  0  -0.154966  -0.297939  0  3.971848  0
C  C61  1  0.11243771  0.28689881  0.20411500  1  0  -0.259999  0  3.744994  0  0  -0.300057  0  3.97792  0  0  -0.302704  0  3.986924  0  0  -0.154973  -0.297991  0  3.971908  0
C  C62  1  0.11242335  0.78689316  0.29588306  1  0  -0.259981  0  3.745072  0  0  -0.300111  0  3.977885  0  0  -0.302762  0  3.986893  0  0  -0.154959  -0.298027  0  3.971851  0
C  C63  1  0.88756352  0.71310160  0.79589109  1  0  -0.260327  0  3.745211  0  0  -0.300175  0  3.978033  0  0  -0.302823  0  3.987037  0  0  -0.155053  -0.298104  0  3.972017  0
C  C64  1  0.67289139  0.24465066  0.73120647  1  0  0.359763  0  3.7532  0  0  0.331659  0  4.019467  0  0  0.346606  0  4.03649  0  0  0.227214  0.32159  0  4.007675  0
C  C65  1  0.32711110  0.25534978  0.23120318  1  0  0.35977  0  3.752929  0  0  0.331623  0  4.019297  0  0  0.346571  0  4.036318  0  0  0.22723  0.321555  0  4.007507  0
C  C66  1  0.32709603  0.75534486  0.26879292  1  0  0.359764  0  3.753146  0  0  0.3318  0  4.019303  0  0  0.346748  0  4.036327  0  0  0.22722  0.321729  0  4.007511  0
C  C67  1  0.67289516  0.74465162  0.76879677  1  0  0.359878  0  3.753006  0  0  0.331707  0  4.019308  0  0  0.346657  0  4.03633  0  0  0.227226  0.321637  0  4.007518  0
C  C68  1  0.91715709  0.75905716  0.51164694  1  0  -0.244945  0  3.720906  0  0  -0.28773  0  3.950983  0  0  -0.289747  0  3.961372  0  0  -0.148556  -0.286392  0  3.944034  0
C  C69  1  0.08285513  0.74094300  0.01165003  1  0  -0.245124  0  3.720687  0  0  -0.288013  0  3.950894  0  0  -0.29002  0  3.961287  0  0  -0.14865  -0.286685  0  3.943956  0
C  C70  1  0.08285742  0.24093554  0.48834686  1  0  -0.244938  0  3.720767  0  0  -0.287708  0  3.95095  0  0  -0.289748  0  3.961318  0  0  -0.148581  -0.286351  0  3.944019  0
C  C71  1  0.91714690  0.25905257  0.98835382  1  0  -0.245129  0  3.720826  0  0  -0.287874  0  3.950928  0  0  -0.289879  0  3.961321  0  0  -0.148656  -0.286554  0  3.943993  0
C  C72  1  0.04760929  0.65868796  0.54269027  1  0  0.341088  0  3.730759  0  0  0.317286  0  4.010805  0  0  0.329389  0  4.026732  0  0  0.224606  0.309068  0  4.000143  0
C  C73  1  0.95240502  0.84132022  0.04268568  1  0  0.34127  0  3.73078  0  0  0.317424  0  4.010868  0  0  0.329528  0  4.026793  0  0  0.224654  0.309208  0  4.000206  0
C  C74  1  0.95241224  0.34131736  0.45731694  1  0  0.341332  0  3.730593  0  0  0.317388  0  4.010815  0  0  0.329568  0  4.026646  0  0  0.224688  0.309098  0  4.000242  0
C  C75  1  0.04759491  0.15868212  0.95731482  1  0  0.341305  0  3.730765  0  0  0.317442  0  4.010835  0  0  0.329545  0  4.026759  0  0  0.224685  0.309226  0  4.000175  0
N  N76  1  0.55601979  0.18097822  0.78543351  1  0  -0.328765  0  3.155373  0  0  -0.261842  0  3.45198  0  0  -0.28406  0  3.469801  0  0  -0.221489  -0.246008  0  3.438787  0
N  N77  1  0.44397488  0.31902363  0.28543227  1  0  -0.32866  0  3.155159  0  0  -0.261695  0  3.451738  0  0  -0.283918  0  3.469569  0  0  -0.221477  -0.245856  0  3.438525  0
N  N78  1  0.44397266  0.81901829  0.21456588  1  0  -0.328636  0  3.155386  0  0  -0.261756  0  3.45195  0  0  -0.283971  0  3.469763  0  0  -0.221443  -0.245918  0  3.43874  0
N  N79  1  0.55602829  0.68097873  0.71456824  1  0  -0.328688  0  3.155214  0  0  -0.261731  0  3.451835  0  0  -0.283947  0  3.46965  0  0  -0.221477  -0.245891  0  3.438624  0
N  N80  1  0.37132168  0.23907290  0.79421715  1  0  -0.066554  0  2.993191  0  0  -0.059937  0  3.291972  0  0  -0.058928  0  3.30587  0  0  -0.087094  -0.060502  0  3.282416  0
N  N81  1  0.62867160  0.26092224  0.29421508  1  0  -0.066702  0  2.993287  0  0  -0.060095  0  3.292076  0  0  -0.059085  0  3.30597  0  0  -0.087119  -0.060658  0  3.282522  0
N  N82  1  0.62867110  0.76092555  0.20578392  1  0  -0.066617  0  2.993338  0  0  -0.060014  0  3.292146  0  0  -0.059003  0  3.306045  0  0  -0.087135  -0.060578  0  3.282595  0
N  N83  1  0.37133108  0.73907721  0.70578543  1  0  -0.066659  0  2.993305  0  0  -0.060052  0  3.292087  0  0  -0.059043  0  3.305987  0  0  -0.087114  -0.060615  0  3.282534  0
N  N84  1  0.37339687  0.33526738  0.74738517  1  0  -0.067748  0  2.959875  0  0  -0.063713  0  3.256237  0  0  -0.062552  0  3.270337  0  0  -0.086425  -0.064454  0  3.246728  0
N  N85  1  0.62659528  0.16473220  0.24738111  1  0  -0.067558  0  2.959971  0  0  -0.063508  0  3.2563  0  0  -0.062347  0  3.2704  0  0  -0.086354  -0.06425  0  3.246791  0
N  N86  1  0.62660161  0.66473594  0.25261533  1  0  -0.067718  0  2.95997  0  0  -0.063679  0  3.256341  0  0  -0.062516  0  3.270441  0  0  -0.086407  -0.06442  0  3.246832  0
N  N87  1  0.37340270  0.83526820  0.75261772  1  0  -0.067651  0  2.95995  0  0  -0.06361  0  3.25629  0  0  -0.062447  0  3.27039  0  0  -0.086395  -0.064352  0  3.24678  0
N  N88  1  0.55973068  0.34041477  0.70679612  1  0  -0.326358  0  3.211328  0  0  -0.246768  0  3.503095  0  0  -0.270232  0  3.521584  0  0  -0.222955  -0.23032  0  3.489536  0
N  N89  1  0.44027119  0.15958740  0.20679212  1  0  -0.326444  0  3.211345  0  0  -0.246848  0  3.50313  0  0  -0.270309  0  3.521608  0  0  -0.22301  -0.230402  0  3.489571  0
N  N90  1  0.44026827  0.65958176  0.29320439  1  0  -0.326398  0  3.211384  0  0  -0.246856  0  3.503123  0  0  -0.270322  0  3.521613  0  0  -0.222944  -0.230409  0  3.489564  0
N  N91  1  0.55972891  0.84041591  0.79320727  1  0  -0.326429  0  3.21128  0  0  -0.246818  0  3.503064  0  0  -0.270279  0  3.521542  0  0  -0.222949  -0.23037  0  3.489505  0
N  N92  1  0.96260774  0.56056590  0.58742407  1  0  -0.295632  0  3.25805  0  0  -0.21453  0  3.5534  0  0  -0.237311  0  3.572645  0  0  -0.213715  -0.198872  0  3.5399  0
N  N93  1  0.03739349  0.93943972  0.08742520  1  0  -0.295594  0  3.258258  0  0  -0.214447  0  3.553522  0  0  -0.23723  0  3.572778  0  0  -0.213634  -0.198796  0  3.540037  0
N  N94  1  0.03739690  0.43943549  0.41257643  1  0  -0.295662  0  3.25808  0  0  -0.214532  0  3.553464  0  0  -0.237332  0  3.572675  0  0  -0.213724  -0.19886  0  3.540005  0
N  N95  1  0.96260628  0.06056166  0.91257587  1  0  -0.295653  0  3.25819  0  0  -0.214521  0  3.553513  0  0  -0.237304  0  3.572765  0  0  -0.213694  -0.19887  0  3.540028  0
N  N96  1  0.12418725  0.49160201  0.60788773  1  0  -0.061663  0  2.957308  0  0  -0.065712  0  3.244192  0  0  -0.060311  0  3.257742  0  0  -0.086172  -0.069153  0  3.234938  0
N  N97  1  0.87581425  0.00840029  0.10788955  1  0  -0.061719  0  2.957532  0  0  -0.065767  0  3.244399  0  0  -0.060369  0  3.257952  0  0  -0.086229  -0.069209  0  3.235141  0
N  N98  1  0.87581722  0.50839842  0.39211333  1  0  -0.061721  0  2.957396  0  0  -0.065766  0  3.244261  0  0  -0.060368  0  3.257818  0  0  -0.086199  -0.069208  0  3.235001  0
N  N99  1  0.12418568  0.99160206  0.89211207  1  0  -0.061744  0  2.957555  0  0  -0.06578  0  3.244395  0  0  -0.06038  0  3.257945  0  0  -0.08621  -0.069223  0  3.235139  0
N  N100  1  0.30172618  0.54697100  0.57552697  1  0  -0.102201  0  3.247822  0  0  -0.040858  0  3.562142  0  0  -0.053032  0  3.579139  0  0  -0.096523  -0.031949  0  3.550049  0
N  N101  1  0.69828007  0.95303356  0.07552866  1  0  -0.102171  0  3.248015  0  0  -0.040842  0  3.562328  0  0  -0.053015  0  3.57933  0  0  -0.096534  -0.031933  0  3.550233  0
N  N102  1  0.69828137  0.45302846  0.42447409  1  0  -0.102052  0  3.247783  0  0  -0.040688  0  3.562038  0  0  -0.052862  0  3.579042  0  0  -0.096485  -0.031779  0  3.549939  0
N  N103  1  0.30171841  0.04696975  0.92447464  1  0  -0.102054  0  3.247894  0  0  -0.040704  0  3.562183  0  0  -0.052878  0  3.579182  0  0  -0.09644  -0.031795  0  3.550088  0
N  N104  1  0.26194601  0.65145008  0.53453044  1  0  -0.313918  0  2.889946  0  0  -0.305082  0  3.180053  0  0  -0.314  0  3.192793  0  0  -0.223004  -0.299426  0  3.171539  0
N  N105  1  0.73806040  0.84855801  0.03452941  1  0  -0.314006  0  2.890003  0  0  -0.305178  0  3.180155  0  0  -0.314086  0  3.192874  0  0  -0.22305  -0.299523  0  3.171643  0
N  N106  1  0.73806511  0.34855133  0.46547006  1  0  -0.314154  0  2.889958  0  0  -0.305294  0  3.180116  0  0  -0.314228  0  3.192813  0  0  -0.223074  -0.299615  0  3.171626  0
N  N107  1  0.26193483  0.15144529  0.96547277  1  0  -0.314084  0  2.890079  0  0  -0.305254  0  3.18022  0  0  -0.314162  0  3.192939  0  0  -0.223127  -0.299599  0  3.171707  0
