# generated using pymatgen
data_ZnH16(C17N5)2
_symmetry_space_group_name_H-M   'P 1'
_cell_length_a   12.55932491
_cell_length_b   14.66410617
_cell_length_c   22.95634275
_cell_angle_alpha   89.99992699
_cell_angle_beta   89.99995610
_cell_angle_gamma   89.99994221
_symmetry_Int_Tables_number   1
_chemical_formula_structural   ZnH16(C17N5)2
_chemical_formula_sum   'Zn4 H64 C136 N40'
_cell_volume   4227.89888742
_cell_formula_units_Z   4
loop_
 _symmetry_equiv_pos_site_id
 _symmetry_equiv_pos_as_xyz
  1  'x, y, z'
loop_
 _atom_site_type_symbol
 _atom_site_label
 _atom_site_symmetry_multiplicity
 _atom_site_fract_x
 _atom_site_fract_y
 _atom_site_fract_z
 _atom_site_occupancy
 _atom_site_pbe_bader_charge
 _atom_site_pbe_bader_spin_density
 _atom_site_pbe_cm5_charge
 _atom_site_pbe_ddec_charge
 _atom_site_pbe_ddec_spin_density
 _atom_site_pbe_ddec_sum_bond_order
 _atom_site_pbe_magmom
Zn  Zn0  1  0.49999949  0.23809315  0.25000042  1  1.300015  0  0.732915  0.781969  0  2.559499  0
Zn  Zn1  1  0.49999913  0.26190590  0.75000079  1  1.300011  0  0.732909  0.781969  0  2.559513  0
Zn  Zn2  1  0.50000043  0.76190773  0.74999971  1  1.300052  0  0.732918  0.78201  0  2.559485  0
Zn  Zn3  1  0.50000079  0.73809089  0.25000022  1  1.300052  0  0.732886  0.781943  0  2.559559  0
H  H4  1  0.93111359  0.14279307  0.08967126  1  0.073398  0  0.104098  0.107986  0  1.011188  0
H  H5  1  0.79037031  0.13886646  0.16362035  1  0.085146  0  0.102698  0.108419  0  1.007136  0
H  H6  1  0.78423980  0.84446148  0.15406410  1  0.064437  0  0.102274  0.107831  0  1.009006  0
H  H7  1  0.92538438  0.84785890  0.08050837  1  0.069052  0  0.102962  0.106653  0  1.01673  0
H  H8  1  0.33700522  0.20638334  0.04121547  1  0.115248  0  0.107599  0.119392  0  1.029918  0
H  H9  1  0.34524047  0.20010736  0.14923355  1  0.111613  0  0.116437  0.088881  0  1.007982  0
H  H10  1  0.66053683  0.28014756  0.15151169  1  0.115862  0  0.116563  0.088152  0  1.005528  0
H  H11  1  0.66946174  0.28746417  0.04353542  1  0.111499  0  0.107255  0.120281  0  1.035469  0
H  H12  1  0.06888789  0.14279449  0.41032879  1  0.07339  0  0.1041  0.10793  0  1.011224  0
H  H13  1  0.20963117  0.13886723  0.33637926  1  0.085172  0  0.102723  0.108445  0  1.007113  0
H  H14  1  0.21576006  0.84446221  0.34593494  1  0.064449  0  0.102274  0.107893  0  1.008997  0
H  H15  1  0.07461548  0.84785893  0.41949155  1  0.069053  0  0.102957  0.106656  0  1.016713  0
H  H16  1  0.66299538  0.20638279  0.45878409  1  0.11526  0  0.107608  0.119377  0  1.029943  0
H  H17  1  0.65476015  0.20010771  0.35076602  1  0.111673  0  0.116437  0.088895  0  1.007947  0
H  H18  1  0.33946290  0.28014750  0.34848825  1  0.115866  0  0.116552  0.088139  0  1.00553  0
H  H19  1  0.33053798  0.28746322  0.45646451  1  0.111478  0  0.107252  0.120292  0  1.035492  0
H  H20  1  0.93111369  0.35720628  0.91032890  1  0.073385  0  0.104101  0.107977  0  1.011153  0
H  H21  1  0.79037051  0.36113301  0.83637986  1  0.085136  0  0.102736  0.108432  0  1.007158  0
H  H22  1  0.78423942  0.65553894  0.84593527  1  0.064426  0  0.102275  0.107885  0  1.008995  0
H  H23  1  0.92538390  0.65214071  0.91949139  1  0.069062  0  0.102941  0.106621  0  1.016706  0
H  H24  1  0.33700453  0.29361720  0.95878407  1  0.115262  0  0.107608  0.119371  0  1.029957  0
H  H25  1  0.34523992  0.29989181  0.85076598  1  0.111673  0  0.116436  0.088883  0  1.007955  0
H  H26  1  0.66053717  0.21985270  0.84848815  1  0.115886  0  0.11654  0.088115  0  1.005531  0
H  H27  1  0.66946194  0.21253677  0.95646441  1  0.11151  0  0.107233  0.120271  0  1.035544  0
H  H28  1  0.06888604  0.35720629  0.58967129  1  0.073384  0  0.104105  0.107978  0  1.011145  0
H  H29  1  0.20962922  0.36113207  0.66362032  1  0.085167  0  0.10274  0.108436  0  1.007117  0
H  H30  1  0.21575996  0.65553802  0.65406424  1  0.064444  0  0.102285  0.107894  0  1.009016  0
H  H31  1  0.07461628  0.65214074  0.58050813  1  0.069058  0  0.102942  0.106615  0  1.01668  0
H  H32  1  0.66299528  0.29361680  0.54121574  1  0.115244  0  0.107607  0.119374  0  1.029959  0
H  H33  1  0.65475988  0.29989188  0.64923382  1  0.11161  0  0.116436  0.088873  0  1.007973  0
H  H34  1  0.33946272  0.21985304  0.65151172  1  0.115869  0  0.116535  0.088086  0  1.005539  0
H  H35  1  0.33053796  0.21253665  0.54353546  1  0.111511  0  0.107254  0.120297  0  1.035479  0
H  H36  1  0.06888632  0.85720644  0.91032931  1  0.073397  0  0.104109  0.107991  0  1.011143  0
H  H37  1  0.20962881  0.86113305  0.83637978  1  0.085182  0  0.102753  0.108428  0  1.007145  0
H  H38  1  0.21576012  0.15553803  0.84593516  1  0.064446  0  0.102278  0.107889  0  1.008999  0
H  H39  1  0.07461634  0.15214061  0.91949177  1  0.069057  0  0.102942  0.106619  0  1.016691  0
H  H40  1  0.66299549  0.79361685  0.95878423  1  0.115245  0  0.107603  0.11937  0  1.029946  0
H  H41  1  0.65476024  0.79989215  0.85076615  1  0.111615  0  0.116443  0.088902  0  1.007943  0
H  H42  1  0.33946389  0.71985263  0.84848845  1  0.115869  0  0.116555  0.088113  0  1.00554  0
H  H43  1  0.33053818  0.71253671  0.95646471  1  0.111505  0  0.107251  0.120281  0  1.035493  0
H  H44  1  0.93111362  0.85720639  0.58967047  1  0.073388  0  0.104109  0.107978  0  1.011162  0
H  H45  1  0.79037033  0.86113297  0.66362000  1  0.085137  0  0.102711  0.108426  0  1.007121  0
H  H46  1  0.78424065  0.15553866  0.65406432  1  0.064443  0  0.102287  0.107875  0  1.009009  0
H  H47  1  0.92538364  0.15214058  0.58050815  1  0.069056  0  0.102946  0.106624  0  1.016689  0
H  H48  1  0.33700533  0.79361673  0.54121604  1  0.115253  0  0.107609  0.119392  0  1.029937  0
H  H49  1  0.34523977  0.79989180  0.64923411  1  0.111678  0  0.116441  0.088899  0  1.007946  0
H  H50  1  0.66053781  0.71985269  0.65151145  1  0.115859  0  0.116549  0.088119  0  1.005543  0
H  H51  1  0.66946194  0.71253629  0.54353519  1  0.111499  0  0.107254  0.12027  0  1.035474  0
H  H52  1  0.06888622  0.64279255  0.08967124  1  0.0734  0  0.104099  0.107991  0  1.011196  0
H  H53  1  0.20962941  0.63886651  0.16362027  1  0.085144  0  0.102728  0.108393  0  1.007143  0
H  H54  1  0.21575969  0.34446125  0.15406486  1  0.064431  0  0.102282  0.107894  0  1.008987  0
H  H55  1  0.07461601  0.34785880  0.08050831  1  0.069051  0  0.102944  0.106625  0  1.016673  0
H  H56  1  0.66299538  0.70638299  0.04121563  1  0.115265  0  0.107607  0.119376  0  1.029955  0
H  H57  1  0.65476079  0.70010770  0.14923371  1  0.111596  0  0.11644  0.088889  0  1.007951  0
H  H58  1  0.33946275  0.78014681  0.15151155  1  0.115868  0  0.11653  0.088088  0  1.005549  0
H  H59  1  0.33053718  0.78746342  0.04353529  1  0.111501  0  0.107245  0.120278  0  1.035386  0
H  H60  1  0.93111308  0.64279322  0.41032884  1  0.073397  0  0.104099  0.107965  0  1.011228  0
H  H61  1  0.79037069  0.63886676  0.33637938  1  0.085174  0  0.102741  0.108452  0  1.007127  0
H  H62  1  0.78424075  0.34446150  0.34593503  1  0.064446  0  0.10226  0.107856  0  1.009007  0
H  H63  1  0.92538364  0.34785946  0.41949157  1  0.069058  0  0.102968  0.106662  0  1.016721  0
H  H64  1  0.33700544  0.70638340  0.45878396  1  0.115247  0  0.10761  0.119382  0  1.029951  0
H  H65  1  0.34524003  0.70010763  0.35076632  1  0.111605  0  0.116446  0.088902  0  1.00794  0
H  H66  1  0.66053799  0.78014715  0.34848798  1  0.115878  0  0.116533  0.088088  0  1.005535  0
H  H67  1  0.66946195  0.78746355  0.45646423  1  0.111493  0  0.107242  0.120268  0  1.03552  0
C  C68  1  0.81611091  0.91002156  0.13999693  1  -0.006555  0  -0.096338  -0.137067  0  3.963513  0
C  C69  1  0.77675045  0.99138144  0.16479093  1  -0.037164  0  0.002593  0.124514  0  4.060579  0
C  C70  1  0.65440599  0.06887378  0.23369037  1  0.779865  0  0.193072  0.304566  0  4.109369  0
C  C71  1  0.65471364  0.90818372  0.23156425  1  0.78153  0  0.192662  0.304964  0  4.109888  0
C  C72  1  0.69533919  0.98933562  0.20979899  1  0.289348  0  -0.055329  -0.213104  0  4.236811  0
C  C73  1  0.41467494  0.22021496  0.12373513  1  0.486271  0  0.048184  0.097243  0  3.95084  0
C  C74  1  0.41109676  0.22377951  0.06326033  1  -0.011007  0  -0.078799  -0.16785  0  3.921191  0
C  C75  1  0.50322035  0.24779255  0.03216650  1  -0.081524  0  0.014575  0.109742  0  3.965575  0
C  C76  1  0.81942367  0.07497509  0.14522633  1  0.025953  0  -0.09693  -0.1386  0  3.967278  0
C  C77  1  0.59524915  0.26739272  0.06453792  1  0.013606  0  -0.078037  -0.166597  0  3.916499  0
C  C78  1  0.02503975  0.99815080  0.03352061  1  0.18814  0  0.061875  0.030833  0  3.905932  0
C  C79  1  0.09312865  0.91693205  0.03723899  1  0.879058  0  0.196491  0.237195  0  3.939867  0
C  C80  1  0.09329873  0.07875412  0.04068500  1  0.875053  0  0.198142  0.240462  0  3.93714  0
C  C81  1  0.89615107  0.91202442  0.09843934  1  0.056883  0  -0.093009  -0.115311  0  4.024308  0
C  C82  1  0.93878628  0.99563060  0.08001040  1  -0.097069  0  -0.03555  -0.006848  0  4.017664  0
C  C83  1  0.59123854  0.26322466  0.12500661  1  0.433304  0  0.04927  0.099597  0  3.947848  0
C  C84  1  0.89923134  0.07711365  0.10355547  1  -0.057551  0  -0.092806  -0.114178  0  4.025658  0
C  C85  1  0.18388728  0.91002161  0.36000249  1  -0.006526  0  -0.096354  -0.137182  0  3.963579  0
C  C86  1  0.22324924  0.99138151  0.33520843  1  -0.037105  0  0.002549  0.124564  0  4.060613  0
C  C87  1  0.34559319  0.06887456  0.26630931  1  0.779889  0  0.192965  0.304462  0  4.109441  0
C  C88  1  0.34528695  0.90818313  0.26843517  1  0.781558  0  0.1927  0.305028  0  4.10986  0
C  C89  1  0.30466050  0.98933502  0.29019994  1  0.289386  0  -0.055311  -0.213219  0  4.236803  0
C  C90  1  0.58532645  0.22021532  0.37626530  1  0.486162  0  0.048216  0.097282  0  3.950727  0
C  C91  1  0.58890383  0.22377838  0.43673921  1  -0.011071  0  -0.078824  -0.167833  0  3.921114  0
C  C92  1  0.49677941  0.24779212  0.46783303  1  0.012768  0  0.014527  0.109679  0  3.965579  0
C  C93  1  0.18057788  0.07497584  0.35477247  1  0.025801  0  -0.096905  -0.138572  0  3.967297  0
C  C94  1  0.40475139  0.26739244  0.43546203  1  0.013633  0  -0.078021  -0.166591  0  3.91658  0
C  C95  1  0.97496312  0.99815337  0.46648049  1  0.177204  0  0.061815  0.030795  0  3.905799  0
C  C96  1  0.90687033  0.91693672  0.46276087  1  0.879635  0  0.196519  0.237228  0  3.940101  0
C  C97  1  0.90670362  0.07875676  0.45931684  1  0.874986  0  0.198072  0.240426  0  3.937098  0
C  C98  1  0.10384553  0.91202446  0.40155965  1  0.056892  0  -0.092957  -0.115273  0  4.024349  0
C  C99  1  0.06121579  0.99563064  0.41998983  1  -0.09716  0  -0.035512  -0.006808  0  4.017631  0
C  C100  1  0.40876200  0.26322381  0.37499334  1  0.433322  0  0.049271  0.099603  0  3.947848  0
C  C101  1  0.10077022  0.07711439  0.39644419  1  -0.057464  0  -0.092857  -0.114186  0  4.025704  0
C  C102  1  0.81611139  0.58997883  0.86000287  1  -0.006553  0  -0.096322  -0.137133  0  3.963558  0
C  C103  1  0.77675026  0.50861899  0.83520889  1  -0.037095  0  0.002565  0.124525  0  4.060605  0
C  C104  1  0.65440700  0.43112649  0.76630990  1  0.779873  0  0.193032  0.304617  0  4.10935  0
C  C105  1  0.65471345  0.59181681  0.76843518  1  0.781552  0  0.192697  0.305049  0  4.109859  0
C  C106  1  0.69533987  0.51066556  0.79020043  1  0.28937  0  -0.055329  -0.213249  0  4.236886  0
C  C107  1  0.41467358  0.27978415  0.87626481  1  0.486172  0  0.048245  0.097308  0  3.950855  0
C  C108  1  0.41109612  0.27622097  0.93673917  1  -0.011061  0  -0.078787  -0.167788  0  3.921208  0
C  C109  1  0.50322049  0.25220853  0.96783296  1  0.012766  0  0.01451  0.10967  0  3.965563  0
C  C110  1  0.81942377  0.42502436  0.85477344  1  0.025883  0  -0.096972  -0.138614  0  3.967302  0
C  C111  1  0.59524936  0.23260828  0.93546194  1  0.013591  0  -0.078006  -0.166591  0  3.916609  0
C  C112  1  0.02503859  0.50184823  0.96647996  1  0.177185  0  0.061813  0.030758  0  3.906005  0
C  C113  1  0.09312899  0.58306761  0.96276155  1  0.879071  0  0.196457  0.237077  0  3.939921  0
C  C114  1  0.09329709  0.42124527  0.95931507  1  0.875345  0  0.198183  0.240534  0  3.937039  0
C  C115  1  0.89615069  0.58797522  0.90156086  1  0.05688  0  -0.092971  -0.115237  0  4.024305  0
C  C116  1  0.93878678  0.50436968  0.91998978  1  -0.097066  0  -0.035582  -0.006879  0  4.017761  0
C  C117  1  0.59123803  0.23677566  0.87499325  1  0.433076  0  0.049289  0.09964  0  3.947826  0
C  C118  1  0.89923058  0.42288573  0.89644470  1  -0.057536  0  -0.09282  -0.114178  0  4.025622  0
C  C119  1  0.18388807  0.58997864  0.63999757  1  -0.006558  0  -0.096327  -0.137148  0  3.963609  0
C  C120  1  0.22324850  0.50861872  0.66479118  1  -0.037109  0  0.002618  0.124598  0  4.06063  0
C  C121  1  0.34559265  0.43112598  0.73369110  1  0.77988  0  0.192996  0.304504  0  4.109301  0
C  C122  1  0.34528601  0.59181630  0.73156482  1  0.781565  0  0.192689  0.305016  0  4.109813  0
C  C123  1  0.30465889  0.51066445  0.70979964  1  0.289377  0  -0.055371  -0.213244  0  4.236899  0
C  C124  1  0.58532545  0.27978433  0.62373501  1  0.486256  0  0.048206  0.097282  0  3.950879  0
C  C125  1  0.58890371  0.27622059  0.56326065  1  -0.011047  0  -0.078805  -0.167813  0  3.921204  0
C  C126  1  0.49678016  0.25220760  0.53216688  1  -0.081521  0  0.014501  0.109636  0  3.965629  0
C  C127  1  0.18057588  0.42502416  0.64522713  1  0.025836  0  -0.096972  -0.138639  0  3.967257  0
C  C128  1  0.40475132  0.23260805  0.56453792  1  0.013595  0  -0.078011  -0.166583  0  3.91656  0
C  C129  1  0.97496097  0.50184893  0.53352011  1  0.177195  0  0.061865  0.030821  0  3.905931  0
C  C130  1  0.90687127  0.58306768  0.53723889  1  0.87906  0  0.196459  0.237129  0  3.939935  0
C  C131  1  0.90670177  0.42124534  0.54068550  1  0.875074  0  0.198102  0.240367  0  3.937136  0
C  C132  1  0.10384797  0.58797519  0.59843958  1  0.056897  0  -0.092978  -0.115236  0  4.024294  0
C  C133  1  0.06121278  0.50436972  0.58001072  1  -0.097085  0  -0.035557  -0.006869  0  4.017715  0
C  C134  1  0.40876184  0.23677599  0.62500617  1  0.43331  0  0.049307  0.099688  0  3.947797  0
C  C135  1  0.10076828  0.42288568  0.60355588  1  -0.057533  0  -0.092821  -0.114149  0  4.02563  0
C  C136  1  0.18388901  0.08997795  0.86000233  1  -0.006549  0  -0.096306  -0.137113  0  3.963581  0
C  C137  1  0.22325106  0.00861807  0.83521008  1  -0.037159  0  0.002569  0.124498  0  4.06066  0
C  C138  1  0.34559393  0.93112641  0.76631107  1  0.779754  0  0.193034  0.30453  0  4.109343  0
C  C139  1  0.34528628  0.09181580  0.76843501  1  0.781732  0  0.192677  0.304967  0  4.109834  0
C  C140  1  0.30465913  0.01066458  0.79020028  1  0.289358  0  -0.055346  -0.21317  0  4.236832  0
C  C141  1  0.58532577  0.77978455  0.87626501  1  0.486261  0  0.048229  0.097292  0  3.950722  0
C  C142  1  0.58890315  0.77622069  0.93673936  1  -0.011035  0  -0.07879  -0.167806  0  3.921164  0
C  C143  1  0.49677956  0.75220764  0.96783320  1  0.012759  0  0.014517  0.109683  0  3.965576  0
C  C144  1  0.18057704  0.92502442  0.85477294  1  0.025822  0  -0.096944  -0.138503  0  3.967331  0
C  C145  1  0.40475077  0.73260815  0.93546178  1  0.013596  0  -0.078007  -0.166578  0  3.916518  0
C  C146  1  0.97496176  0.00184871  0.96647996  1  0.177195  0  0.061833  0.030769  0  3.905964  0
C  C147  1  0.90687127  0.08306747  0.96276115  1  0.879061  0  0.196459  0.237126  0  3.939944  0
C  C148  1  0.90670198  0.92124539  0.95931470  1  0.87507  0  0.19807  0.240361  0  3.937145  0
C  C149  1  0.10384885  0.08797578  0.90156036  1  0.05689  0  -0.09302  -0.115309  0  4.024265  0
C  C150  1  0.06121363  0.00436959  0.91998973  1  -0.097064  0  -0.035533  -0.006786  0  4.017607  0
C  C151  1  0.40876137  0.73677485  0.87499352  1  0.433283  0  0.049246  0.099632  0  3.947811  0
C  C152  1  0.10076938  0.92288654  0.89644423  1  -0.057515  0  -0.092843  -0.114261  0  4.025724  0
C  C153  1  0.81611184  0.08997858  0.63999721  1  -0.006557  0  -0.096302  -0.137068  0  3.963691  0
C  C154  1  0.77675067  0.00861869  0.66479083  1  -0.037167  0  0.00258  0.124492  0  4.060609  0
C  C155  1  0.65440673  0.93112699  0.73369039  1  0.779854  0  0.193025  0.304588  0  4.109256  0
C  C156  1  0.65471297  0.09181638  0.73156496  1  0.781741  0  0.192659  0.30495  0  4.109972  0
C  C157  1  0.69534021  0.01066517  0.70979932  1  0.289369  0  -0.055329  -0.213171  0  4.23684  0
C  C158  1  0.41467426  0.77978488  0.62373484  1  0.486161  0  0.048213  0.097296  0  3.950689  0
C  C159  1  0.41109688  0.77622045  0.56326049  1  -0.01102  0  -0.078807  -0.16786  0  3.921152  0
C  C160  1  0.50322050  0.75220807  0.53216667  1  -0.081532  0  0.014536  0.109702  0  3.965629  0
C  C161  1  0.81942362  0.92502436  0.64522636  1  0.025936  0  -0.096933  -0.138543  0  3.967257  0
C  C162  1  0.59524932  0.73260776  0.56453767  1  0.013595  0  -0.078014  -0.166544  0  3.916481  0
C  C163  1  0.02504078  0.00185092  0.53352095  1  0.188162  0  0.061822  0.030639  0  3.906053  0
C  C164  1  0.09313038  0.08306893  0.53724014  1  0.879083  0  0.196524  0.237358  0  3.939757  0
C  C165  1  0.09329868  0.92124548  0.54068503  1  0.875075  0  0.198078  0.240354  0  3.937345  0
C  C166  1  0.89615120  0.08797574  0.59843961  1  0.056859  0  -0.093003  -0.1153  0  4.02452  0
C  C167  1  0.93878652  0.00437091  0.58001162  1  -0.097137  0  -0.035498  -0.006719  0  4.017665  0
C  C168  1  0.59123871  0.73677570  0.62500636  1  0.433316  0  0.049262  0.09962  0  3.947842  0
C  C169  1  0.89923049  0.92288581  0.60355507  1  -0.057466  0  -0.092842  -0.114247  0  4.02571  0
C  C170  1  0.18388853  0.41002136  0.13999727  1  -0.006542  0  -0.096309  -0.137114  0  3.963588  0
C  C171  1  0.22325045  0.49138189  0.16479038  1  -0.037111  0  0.002517  0.124434  0  4.060688  0
C  C172  1  0.34559372  0.56887370  0.23368849  1  0.779761  0  0.193055  0.304622  0  4.109342  0
C  C173  1  0.34528567  0.40818338  0.23156496  1  0.781707  0  0.192695  0.304998  0  4.109824  0
C  C174  1  0.30466005  0.48933463  0.20979971  1  0.289342  0  -0.055348  -0.213235  0  4.236861  0
C  C175  1  0.58532554  0.72021468  0.12373489  1  0.486232  0  0.04823  0.097328  0  3.950733  0
C  C176  1  0.58890380  0.72377922  0.06326097  1  -0.011034  0  -0.078813  -0.167829  0  3.921138  0
C  C177  1  0.49677942  0.74779235  0.03216674  1  -0.081508  0  0.014538  0.109679  0  3.965555  0
C  C178  1  0.18057615  0.57497516  0.14522669  1  0.025891  0  -0.096922  -0.138465  0  3.967279  0
C  C179  1  0.40475056  0.76739123  0.06453819  1  0.013592  0  -0.078005  -0.166574  0  3.916482  0
C  C180  1  0.97496132  0.49815060  0.03352061  1  0.188146  0  0.061853  0.030728  0  3.906039  0
C  C181  1  0.90687172  0.41693122  0.03723859  1  0.879067  0  0.196493  0.237249  0  3.939999  0
C  C182  1  0.90670123  0.57875424  0.04068550  1  0.875074  0  0.198106  0.240457  0  3.937164  0
C  C183  1  0.10384842  0.41202429  0.09843971  1  0.056888  0  -0.092988  -0.115283  0  4.024312  0
C  C184  1  0.06121313  0.49562983  0.08001079  1  -0.097091  0  -0.03554  -0.006756  0  4.017658  0
C  C185  1  0.40876188  0.76322385  0.12500645  1  0.433315  0  0.049279  0.099654  0  3.947848  0
C  C186  1  0.10076854  0.57711379  0.10355544  1  -0.05754  0  -0.092801  -0.114234  0  4.025683  0
C  C187  1  0.81611105  0.41002223  0.36000256  1  -0.006611  0  -0.09632  -0.13708  0  3.963521  0
C  C188  1  0.77674823  0.49138216  0.33520939  1  -0.037058  0  0.002566  0.124456  0  4.06067  0
C  C189  1  0.65440647  0.56887286  0.26630947  1  0.779847  0  0.193006  0.304542  0  4.10928  0
C  C190  1  0.65471390  0.40818321  0.26843531  1  0.781531  0  0.192699  0.304999  0  4.109823  0
C  C191  1  0.69534023  0.48933506  0.29020006  1  0.289356  0  -0.055311  -0.21315  0  4.236797  0
C  C192  1  0.41467447  0.72021518  0.37626513  1  0.486259  0  0.048226  0.097319  0  3.950779  0
C  C193  1  0.41109621  0.72377893  0.43673948  1  -0.011052  0  -0.078818  -0.167842  0  3.921145  0
C  C194  1  0.50322055  0.74779191  0.46783326  1  0.01276  0  0.01452  0.109653  0  3.965586  0
C  C195  1  0.81942323  0.57497603  0.35477300  1  0.025839  0  -0.097  -0.138634  0  3.967328  0
C  C196  1  0.59524939  0.76739214  0.43546222  1  0.013594  0  -0.078013  -0.166574  0  3.916588  0
C  C197  1  0.02503894  0.49815126  0.46647958  1  0.188137  0  0.061859  0.030818  0  3.905961  0
C  C198  1  0.09312864  0.41693183  0.46276168  1  0.87907  0  0.196471  0.237123  0  3.93994  0
C  C199  1  0.09329735  0.57875486  0.45931507  1  0.875351  0  0.198106  0.240359  0  3.937137  0
C  C200  1  0.89615115  0.41202432  0.40156056  1  0.056877  0  -0.093015  -0.115315  0  4.024317  0
C  C201  1  0.93878634  0.49562979  0.41998985  1  -0.097067  0  -0.035549  -0.006846  0  4.017649  0
C  C202  1  0.59123807  0.76322420  0.37499310  1  0.43332  0  0.049294  0.099688  0  3.9478  0
C  C203  1  0.89923084  0.57711383  0.39644469  1  -0.057521  0  -0.092794  -0.114141  0  4.025686  0
N  N204  1  0.62110797  0.13680086  0.25383816  1  -1.273392  0  -0.350262  -0.439591  0  3.173546  0
N  N205  1  0.62159246  0.83931078  0.25041093  1  -1.26517  0  -0.349112  -0.439102  0  3.178194  0
N  N206  1  0.14533212  0.85170268  0.04187215  1  -1.09128  0  -0.270778  -0.309638  0  2.737164  0
N  N207  1  0.50282694  0.23993379  0.15449479  1  -1.230329  0  -0.314376  -0.227895  0  3.518695  0
N  N208  1  0.14545913  0.14348153  0.04773922  1  -1.09593  0  -0.271832  -0.311871  0  2.726357  0
N  N209  1  0.37889034  0.13680165  0.24616190  1  -1.273424  0  -0.350177  -0.439438  0  3.173577  0
N  N210  1  0.37840821  0.83931089  0.24958899  1  -1.265224  0  -0.349122  -0.439101  0  3.178199  0
N  N211  1  0.85467091  0.85170809  0.45812733  1  -1.091624  0  -0.270805  -0.309673  0  2.737439  0
N  N212  1  0.49717363  0.23993292  0.34550518  1  -1.2303  0  -0.31437  -0.227919  0  3.518602  0
N  N213  1  0.85454075  0.14348286  0.45226039  1  -1.09595  0  -0.271799  -0.311862  0  2.726353  0
N  N214  1  0.62110829  0.36319808  0.74616257  1  -1.273369  0  -0.350237  -0.439601  0  3.173524  0
N  N215  1  0.62159221  0.66068910  0.74958895  1  -1.265227  0  -0.349123  -0.439118  0  3.178203  0
N  N216  1  0.14533081  0.64829693  0.95812793  1  -1.091133  0  -0.270741  -0.309539  0  2.737205  0
N  N217  1  0.50282644  0.26006593  0.84550468  1  -1.230089  0  -0.314408  -0.227946  0  3.518782  0
N  N218  1  0.14545838  0.35651782  0.95226039  1  -1.096299  0  -0.271872  -0.311911  0  2.726283  0
N  N219  1  0.37889064  0.36319817  0.75383806  1  -1.273408  0  -0.350206  -0.439494  0  3.173445  0
N  N220  1  0.37840796  0.66068920  0.75041056  1  -1.265203  0  -0.34911  -0.439103  0  3.178161  0
N  N221  1  0.85466859  0.64829704  0.54187158  1  -1.091271  0  -0.270748  -0.309581  0  2.737217  0
N  N222  1  0.49717340  0.26006612  0.65449472  1  -1.230298  0  -0.314376  -0.227917  0  3.518671  0
N  N223  1  0.85454056  0.35651791  0.54773980  1  -1.095954  0  -0.271822  -0.311803  0  2.726345  0
N  N224  1  0.37889195  0.86319933  0.74616198  1  -1.273275  0  -0.350247  -0.439557  0  3.173509  0
N  N225  1  0.37840746  0.16068873  0.74958920  1  -1.265386  0  -0.349087  -0.439042  0  3.17816  0
N  N226  1  0.85466938  0.14829684  0.95812755  1  -1.091127  0  -0.270739  -0.309572  0  2.737236  0
N  N227  1  0.49717298  0.76006641  0.84550535  1  -1.230286  0  -0.314395  -0.227962  0  3.518587  0
N  N228  1  0.85453998  0.85651867  0.95226004  1  -1.096021  0  -0.271801  -0.311814  0  2.726318  0
N  N229  1  0.62110719  0.86319990  0.75383824  1  -1.273377  0  -0.350257  -0.439603  0  3.173472  0
N  N230  1  0.62159171  0.16068794  0.75041158  1  -1.265364  0  -0.349074  -0.43904  0  3.178265  0
N  N231  1  0.14533139  0.14829892  0.54187237  1  -1.091355  0  -0.270796  -0.309742  0  2.737102  0
N  N232  1  0.50282708  0.76006659  0.65449495  1  -1.230291  0  -0.314387  -0.227966  0  3.518597  0
N  N233  1  0.14545916  0.85651801  0.54773931  1  -1.096022  0  -0.271801  -0.311783  0  2.726462  0
N  N234  1  0.37889163  0.63680007  0.25383800  1  -1.273273  0  -0.350244  -0.439585  0  3.173511  0
N  N235  1  0.37840770  0.33931110  0.25041119  1  -1.26534  0  -0.349108  -0.439058  0  3.178166  0
N  N236  1  0.85466911  0.35170258  0.04187133  1  -1.091289  0  -0.270766  -0.309666  0  2.737255  0
N  N237  1  0.49717268  0.73993290  0.15449502  1  -1.230304  0  -0.314388  -0.227965  0  3.518577  0
N  N238  1  0.85453995  0.64348101  0.04774018  1  -1.095944  0  -0.271808  -0.311861  0  2.72636  0
N  N239  1  0.62110768  0.63680066  0.24616164  1  -1.273379  0  -0.350219  -0.43953  0  3.173473  0
N  N240  1  0.62159275  0.33931099  0.24958914  1  -1.265193  0  -0.349106  -0.439077  0  3.178168  0
N  N241  1  0.14533133  0.35170315  0.45812811  1  -1.091148  0  -0.270752  -0.309569  0  2.737202  0
N  N242  1  0.50282651  0.73993339  0.34550498  1  -1.230318  0  -0.314372  -0.227957  0  3.518654  0
N  N243  1  0.14545856  0.64348160  0.45226034  1  -1.096221  0  -0.271824  -0.3118  0  2.726325  0
