# generated using pymatgen
data_CdH5C11NO4
_symmetry_space_group_name_H-M   'P 1'
_cell_length_a   5.26704610
_cell_length_b   7.96057519
_cell_length_c   11.52063134
_cell_angle_alpha   103.80011573
_cell_angle_beta   90.00189247
_cell_angle_gamma   89.99945833
_symmetry_Int_Tables_number   1
_chemical_formula_structural   CdH5C11NO4
_chemical_formula_sum   'Cd2 H10 C22 N2 O8'
_cell_volume   469.10160310
_cell_formula_units_Z   2
loop_
 _symmetry_equiv_pos_site_id
 _symmetry_equiv_pos_as_xyz
  1  'x, y, z'
loop_
 _atom_site_type_symbol
 _atom_site_label
 _atom_site_symmetry_multiplicity
 _atom_site_fract_x
 _atom_site_fract_y
 _atom_site_fract_z
 _atom_site_occupancy
 _atom_site_hle17_bader_spin_density
 _atom_site_hle17_ddec_charge
 _atom_site_hle17_ddec_spin_density
 _atom_site_hle17_ddec_sum_bond_order
 _atom_site_hle17_magmom
 _atom_site_hse06_10hf_bader_spin_density
 _atom_site_hse06_10hf_ddec_charge
 _atom_site_hse06_10hf_ddec_spin_density
 _atom_site_hse06_10hf_ddec_sum_bond_order
 _atom_site_hse06_10hf_magmom
 _atom_site_hse06_bader_spin_density
 _atom_site_hse06_ddec_charge
 _atom_site_hse06_ddec_spin_density
 _atom_site_hse06_ddec_sum_bond_order
 _atom_site_hse06_magmom
 _atom_site_pbe_bader_spin_density
 _atom_site_pbe_cm5_charge
 _atom_site_pbe_ddec_charge
 _atom_site_pbe_ddec_spin_density
 _atom_site_pbe_ddec_sum_bond_order
 _atom_site_pbe_magmom
Cd  Cd0  1  0.29055243  0.17620317  0.92517016  1  0  1.221149  0  1.557047  0  0  1.034845  0  1.99659  0  0  1.096621  0  1.940355  0  0  0.787677  0.990755  0  2.035035  0
Cd  Cd1  1  0.79056776  0.82379428  0.07482820  1  0  1.221199  0  1.557043  0  0  1.034864  0  1.996579  0  0  1.096644  0  1.940343  0  0  0.787701  0.990776  0  2.035017  0
H  H2  1  0.78551834  0.71805178  0.68060369  1  0  0.1084  0  0.926884  0  0  0.123746  0  0.983118  0  0  0.12674  0  0.980582  0  0  0.114031  0.121552  0  0.984975  0
H  H3  1  0.28555637  0.28195085  0.31939620  1  0  0.108463  0  0.926967  0  0  0.123839  0  0.983134  0  0  0.126843  0  0.980596  0  0  0.114105  0.121654  0  0.984995  0
H  H4  1  0.07384859  0.50301454  0.55216123  1  0  0.092959  0  0.960164  0  0  0.103858  0  1.022894  0  0  0.106315  0  1.022892  0  0  0.100302  0.102103  0  1.022953  0
H  H5  1  0.57390536  0.49698440  0.44783824  1  0  0.09292  0  0.960287  0  0  0.103899  0  1.022951  0  0  0.106359  0  1.022942  0  0  0.10036  0.102146  0  1.023002  0
H  H6  1  0.25172130  0.20463453  0.50157770  1  0  0.080798  0  0.968006  0  0  0.091585  0  1.03193  0  0  0.093822  0  1.031674  0  0  0.0982  0.089983  0  1.03219  0
H  H7  1  0.75177854  0.79536266  0.49841883  1  0  0.080783  0  0.967822  0  0  0.091566  0  1.031763  0  0  0.093807  0  1.031499  0  0  0.098187  0.089967  0  1.032023  0
H  H8  1  0.07773976  0.98048290  0.59549440  1  0  0.098005  0  0.949018  0  0  0.109556  0  1.007289  0  0  0.112645  0  1.005527  0  0  0.102913  0.107259  0  1.008699  0
H  H9  1  0.57778515  0.01951595  0.40450167  1  0  0.097994  0  0.948954  0  0  0.109521  0  1.007271  0  0  0.112615  0  1.005521  0  0  0.102893  0.107253  0  1.008647  0
H  H10  1  0.70131253  0.04403832  0.73035999  1  0  0.106635  0  0.962517  0  0  0.1162  0  1.025655  0  0  0.119315  0  1.024238  0  0  0.105952  0.113951  0  1.026749  0
H  H11  1  0.20133571  0.95595989  0.26963635  1  0  0.10669  0  0.962494  0  0  0.116262  0  1.025615  0  0  0.119379  0  1.024195  0  0  0.105941  0.114011  0  1.026712  0
C  C12  1  0.14501676  0.53619432  0.90419493  1  0  0.637149  0  3.910076  0  0  0.57807  0  4.212712  0  0  0.61354  0  4.204323  0  0  0.211729  0.553942  0  4.217498  0
C  C13  1  0.64501049  0.46382810  0.09580282  1  0  0.636823  0  3.910255  0  0  0.577742  0  4.212876  0  0  0.613219  0  4.204483  0  0  0.211474  0.553608  0  4.217667  0
C  C14  1  0.38112740  0.50579914  0.82682105  1  0  0.118144  0  3.726567  0  0  0.11003  0  3.972142  0  0  0.116284  0  3.987248  0  0  0.127654  0.105759  0  3.962008  0
C  C15  1  0.88113038  0.49420264  0.17317753  1  0  0.118143  0  3.726603  0  0  0.110069  0  3.972121  0  0  0.116316  0  3.987223  0  0  0.127661  0.105801  0  3.961987  0
C  C16  1  0.49208687  0.64701771  0.78954068  1  0  -0.088585  0  3.695655  0  0  -0.072541  0  3.939302  0  0  -0.081332  0  3.956937  0  0  -0.001139  -0.06717  0  3.927866  0
C  C17  1  0.99210366  0.35298483  0.21046328  1  0  -0.088475  0  3.695603  0  0  -0.072418  0  3.939233  0  0  -0.081206  0  3.956869  0  0  -0.001008  -0.067049  0  3.927801  0
C  C18  1  0.41461518  0.83147298  0.84028848  1  0  0.685357  0  3.90243  0  0  0.626913  0  4.201303  0  0  0.665083  0  4.191372  0  0  0.205477  0.600759  0  4.207367  0
C  C19  1  0.91463081  0.16852906  0.15971268  1  0  0.685441  0  3.902358  0  0  0.626966  0  4.201264  0  0  0.665136  0  4.191328  0  0  0.205366  0.600809  0  4.207337  0
C  C20  1  0.69112170  0.61309678  0.70964180  1  0  -0.049476  0  3.658746  0  0  -0.088639  0  3.913279  0  0  -0.083485  0  3.927599  0  0  -0.059773  -0.091836  0  3.903648  0
C  C21  1  0.19115079  0.38689907  0.29036262  1  0  -0.049693  0  3.658903  0  0  -0.0889  0  3.9134  0  0  -0.083757  0  3.927731  0  0  -0.059929  -0.092108  0  3.90378  0
C  C22  1  0.78447137  0.44281258  0.66963467  1  0  0.018451  0  3.782667  0  0  0.036981  0  4.013675  0  0  0.033656  0  4.037116  0  0  -0.004197  0.038908  0  3.998052  0
C  C23  1  0.28449970  0.55719153  0.33037149  1  0  0.018518  0  3.782746  0  0  0.037126  0  4.013652  0  0  0.033799  0  4.037098  0  0  -0.004099  0.039066  0  3.998038  0
C  C24  1  0.99110067  0.40129524  0.58907019  1  0  -0.108971  0  3.742012  0  0  -0.130474  0  3.992711  0  0  -0.132931  0  4.015122  0  0  -0.089591  -0.128658  0  3.977547  0
C  C25  1  0.49114379  0.59870586  0.41092918  1  0  -0.109063  0  3.742054  0  0  -0.130661  0  3.99274  0  0  -0.133114  0  4.015147  0  0  -0.089741  -0.128843  0  3.977573  0
C  C26  1  0.08970124  0.23625305  0.56146102  1  0  -0.05627  0  3.763768  0  0  -0.074583  0  4.021661  0  0  -0.077595  0  4.04494  0  0  -0.088402  -0.072552  0  4.005816  0
C  C27  1  0.58974979  0.76375239  0.43853806  1  0  -0.056278  0  3.763425  0  0  -0.074592  0  4.02132  0  0  -0.07761  0  4.04461  0  0  -0.088395  -0.072566  0  4.005491  0
C  C28  1  0.98767740  0.10726281  0.61358675  1  0  -0.041837  0  3.742796  0  0  -0.058911  0  3.996706  0  0  -0.058636  0  4.016456  0  0  -0.081808  -0.058888  0  3.983242  0
C  C29  1  0.48771312  0.89272925  0.38641205  1  0  -0.041731  0  3.74295  0  0  -0.058786  0  3.996856  0  0  -0.058525  0  4.016624  0  0  -0.081724  -0.058781  0  3.983375  0
C  C30  1  0.78234485  0.14255588  0.69004074  1  0  -0.141332  0  3.693975  0  0  -0.15954  0  3.945076  0  0  -0.164008  0  3.964058  0  0  -0.083541  -0.156597  0  3.932358  0
C  C31  1  0.28236957  0.85744146  0.30995567  1  0  -0.141593  0  3.694082  0  0  -0.159785  0  3.945166  0  0  -0.164252  0  3.96415  0  0  -0.083586  -0.156827  0  3.932467  0
C  C32  1  0.67445179  0.31039297  0.71915055  1  0  0.218921  0  3.766187  0  0  0.214103  0  4.006273  0  0  0.220968  0  4.027992  0  0  0.113999  0.209444  0  3.991673  0
C  C33  1  0.17447753  0.68961171  0.28085133  1  0  0.219283  0  3.765841  0  0  0.214395  0  4.006008  0  0  0.221256  0  4.027728  0  0  0.11404  0.209701  0  3.991449  0
N  N34  1  0.47242469  0.34611662  0.79522990  1  0  -0.384933  0  3.219188  0  0  -0.325179  0  3.480214  0  0  -0.343892  0  3.497855  0  0  -0.310024  -0.312281  0  3.468002  0
N  N35  1  0.97243259  0.65387939  0.20477434  1  0  -0.385075  0  3.219107  0  0  -0.325331  0  3.480161  0  0  -0.344038  0  3.497795  0  0  -0.310071  -0.312426  0  3.467972  0
O  O36  1  0.27596831  0.90893755  0.77957489  1  0  -0.630392  0  1.934964  0  0  -0.571434  0  2.178204  0  0  -0.602012  0  2.168414  0  0  -0.319261  -0.549879  0  2.184135  0
O  O37  1  0.77599702  0.09105861  0.22042553  1  0  -0.630463  0  1.934943  0  0  -0.571493  0  2.178194  0  0  -0.602074  0  2.168408  0  0  -0.319197  -0.549935  0  2.18413  0
O  O38  1  0.51618122  0.91247867  0.93917958  1  0  -0.654813  0  2.020818  0  0  -0.573172  0  2.278847  0  0  -0.607105  0  2.265364  0  0  -0.318932  -0.549307  0  2.287344  0
O  O39  1  0.01618357  0.08752518  0.06082185  1  0  -0.654828  0  2.020826  0  0  -0.573195  0  2.278894  0  0  -0.607127  0  2.265409  0  0  -0.318913  -0.549329  0  2.287398  0
O  O40  1  0.06476168  0.69048498  0.92924553  1  0  -0.60898  0  2.075651  0  0  -0.537674  0  2.333243  0  0  -0.569234  0  2.324582  0  0  -0.301478  -0.515462  0  2.338373  0
O  O41  1  0.56476194  0.30950485  0.07075234  1  0  -0.60884  0  2.074898  0  0  -0.537587  0  2.332508  0  0  -0.569139  0  2.323822  0  0  -0.301392  -0.515363  0  2.33763  0
O  O42  1  0.03919081  0.40924100  0.93336540  1  0  -0.620389  0  2.077791  0  0  -0.553734  0  2.336553  0  0  -0.584766  0  2.328939  0  0  -0.309801  -0.531784  0  2.340763  0
O  O43  1  0.53919598  0.59076170  0.06663641  1  0  -0.620209  0  2.078513  0  0  -0.55351  0  2.337235  0  0  -0.584523  0  2.32959  0  0  -0.309662  -0.531563  0  2.341446  0
