# generated using pymatgen
data_CdH7C11N2O5
_symmetry_space_group_name_H-M   'P 1'
_cell_length_a   8.24759190
_cell_length_b   8.38193642
_cell_length_c   8.76965727
_cell_angle_alpha   107.29297970
_cell_angle_beta   107.52219609
_cell_angle_gamma   103.06037206
_symmetry_Int_Tables_number   1
_chemical_formula_structural   CdH7C11N2O5
_chemical_formula_sum   'Cd2 H14 C22 N4 O10'
_cell_volume   517.79747479
_cell_formula_units_Z   2
loop_
 _symmetry_equiv_pos_site_id
 _symmetry_equiv_pos_as_xyz
  1  'x, y, z'
loop_
 _atom_site_type_symbol
 _atom_site_label
 _atom_site_symmetry_multiplicity
 _atom_site_fract_x
 _atom_site_fract_y
 _atom_site_fract_z
 _atom_site_occupancy
 _atom_site_hle17_bader_spin_density
 _atom_site_hle17_ddec_charge
 _atom_site_hle17_ddec_spin_density
 _atom_site_hle17_ddec_sum_bond_order
 _atom_site_hle17_magmom
 _atom_site_hse06_10hf_bader_spin_density
 _atom_site_hse06_10hf_ddec_charge
 _atom_site_hse06_10hf_ddec_spin_density
 _atom_site_hse06_10hf_ddec_sum_bond_order
 _atom_site_hse06_10hf_magmom
 _atom_site_hse06_bader_spin_density
 _atom_site_hse06_ddec_charge
 _atom_site_hse06_ddec_spin_density
 _atom_site_hse06_ddec_sum_bond_order
 _atom_site_hse06_magmom
 _atom_site_pbe_bader_spin_density
 _atom_site_pbe_cm5_charge
 _atom_site_pbe_ddec_charge
 _atom_site_pbe_ddec_spin_density
 _atom_site_pbe_ddec_sum_bond_order
 _atom_site_pbe_magmom
Cd  Cd0  1  0.08413130  0.30667022  0.10032343  1  0  1.218588  0  1.570519  0  0  1.030478  0  2.014911  0  0  1.088861  0  1.959149  0  0  0.798274  0.988679  0  2.053314  0
Cd  Cd1  1  0.91586846  0.69333088  0.89967791  1  0  1.218582  0  1.570515  0  0  1.030471  0  2.014899  0  0  1.088852  0  1.959138  0  0  0.798273  0.988672  0  2.053301  0
H  H2  1  0.64906436  0.27688783  0.87373342  1  0  0.392653  0  0.884188  0  0  0.368668  0  0.955637  0  0  0.378432  0  0.944455  0  0  0.30325  0.361801  0  0.963398  0
H  H3  1  0.35093621  0.72311194  0.12626777  1  0  0.392655  0  0.884187  0  0  0.368668  0  0.955642  0  0  0.378432  0  0.94446  0  0  0.303248  0.361801  0  0.963403  0
H  H4  1  0.76638033  0.41672238  0.54720478  1  0  0.318725  0  0.916955  0  0  0.298253  0  0.979695  0  0  0.307018  0  0.972216  0  0  0.316846  0.292089  0  0.985035  0
H  H5  1  0.23361885  0.58327340  0.45279145  1  0  0.318685  0  0.917013  0  0  0.298184  0  0.979791  0  0  0.306953  0  0.972316  0  0  0.316833  0.292021  0  0.985129  0
H  H6  1  0.35382295  0.12666806  0.04396421  1  0  0.116023  0  0.968184  0  0  0.125543  0  1.026051  0  0  0.128877  0  1.023916  0  0  0.117418  0.1231  0  1.027736  0
H  H7  1  0.64617301  0.87333304  0.95603261  1  0  0.115949  0  0.968384  0  0  0.125555  0  1.026143  0  0  0.128856  0  1.024047  0  0  0.117397  0.123112  0  1.027828  0
H  H8  1  0.69958962  0.17224196  0.26277319  1  0  0.120387  0  0.952697  0  0  0.131662  0  1.009697  0  0  0.134425  0  1.008287  0  0  0.127521  0.129611  0  1.010881  0
H  H9  1  0.30040703  0.82775382  0.73722118  1  0  0.120337  0  0.952709  0  0  0.131627  0  1.0097  0  0  0.13439  0  1.008289  0  0  0.127495  0.129589  0  1.010868  0
H  H10  1  0.96649566  0.26363399  0.45101449  1  0  0.101896  0  0.974297  0  0  0.107918  0  1.047689  0  0  0.11181  0  1.044344  0  0  0.100975  0.105067  0  1.050258  0
H  H11  1  0.03350585  0.73636844  0.54898659  1  0  0.10188  0  0.974317  0  0  0.107895  0  1.04771  0  0  0.111786  0  1.044366  0  0  0.100973  0.105043  0  1.050282  0
H  H12  1  0.34661920  0.98864910  0.43921070  1  0  0.136508  0  0.954563  0  0  0.141824  0  1.022044  0  0  0.146573  0  1.018294  0  0  0.110257  0.138378  0  1.024848  0
H  H13  1  0.65338183  0.01135200  0.56079214  1  0  0.136511  0  0.954576  0  0  0.14184  0  1.022022  0  0  0.146579  0  1.018299  0  0  0.110256  0.138393  0  1.024826  0
H  H14  1  0.41890671  0.38617495  0.92259192  1  0  0.105831  0  0.991618  0  0  0.113622  0  1.062461  0  0  0.117143  0  1.059791  0  0  0.100417  0.111103  0  1.064359  0
H  H15  1  0.58109305  0.61382614  0.07741056  1  0  0.105792  0  0.991678  0  0  0.113619  0  1.062473  0  0  0.117136  0  1.059815  0  0  0.100421  0.1111  0  1.064372  0
C  C16  1  0.50270925  0.43078835  0.42906521  1  0  0.271079  0  3.764302  0  0  0.240582  0  4.032987  0  0  0.252727  0  4.049274  0  0  0.219889  0.232564  0  4.021718  0
C  C17  1  0.49728959  0.56921009  0.57093169  1  0  0.271161  0  3.764181  0  0  0.240615  0  4.032888  0  0  0.252765  0  4.049187  0  0  0.219919  0.232597  0  4.021619  0
C  C18  1  0.43705764  0.22107629  0.17664077  1  0  0.006784  0  3.721168  0  0  -0.026043  0  3.989834  0  0  -0.024611  0  4.009466  0  0  -0.002708  -0.02707  0  3.976593  0
C  C19  1  0.56293912  0.77892347  0.82335591  1  0  0.006712  0  3.72149  0  0  -0.026193  0  3.990168  0  0  -0.024733  0  4.009813  0  0  -0.002734  -0.02722  0  3.97693  0
C  C20  1  0.60611785  0.23995540  0.28479082  1  0  0.034184  0  3.636315  0  0  -0.00806  0  3.900945  0  0  -0.005166  0  3.917768  0  0  0.015803  -0.009949  0  3.889753  0
C  C21  1  0.39388133  0.76004038  0.71520541  1  0  0.03435  0  3.636348  0  0  -0.007917  0  3.90098  0  0  -0.005013  0  3.917797  0  0  0.015889  -0.009816  0  3.889777  0
C  C22  1  0.18456551  0.33740560  0.69789480  1  0  -0.050196  0  3.803458  0  0  -0.024215  0  4.041055  0  0  -0.031838  0  4.064239  0  0  -0.02504  -0.019278  0  4.025417  0
C  C23  1  0.81543552  0.66259551  0.30210691  1  0  -0.050219  0  3.803533  0  0  -0.024258  0  4.041151  0  0  -0.031882  0  4.064335  0  0  -0.025071  -0.019319  0  4.025509  0
C  C24  1  0.08755467  0.24176196  0.51889817  1  0  -0.092268  0  3.711317  0  0  -0.139616  0  3.976073  0  0  -0.138343  0  3.995167  0  0  -0.095547  -0.14028  0  3.96321  0
C  C25  1  0.91244637  0.75823914  0.48110240  1  0  -0.09223  0  3.711321  0  0  -0.139575  0  3.976052  0  0  -0.1383  0  3.995143  0  0  -0.095537  -0.140239  0  3.963191  0
C  C26  1  0.14482049  0.11385656  0.42862357  1  0  -0.06049  0  3.803836  0  0  -0.033718  0  4.041589  0  0  -0.041595  0  4.065406  0  0  -0.025181  -0.028608  0  4.0255  0
C  C27  1  0.85518055  0.88614454  0.57137813  1  0  -0.06045  0  3.803829  0  0  -0.033642  0  4.041508  0  0  -0.041514  0  4.065321  0  0  -0.025173  -0.028534  0  4.02542  0
C  C28  1  0.30299651  0.08699486  0.51326971  1  0  -0.16239  0  3.632862  0  0  -0.199848  0  3.888068  0  0  -0.201256  0  3.904538  0  0  -0.093157  -0.198654  0  3.877036  0
C  C29  1  0.69700406  0.91300490  0.48673262  1  0  -0.162397  0  3.632954  0  0  -0.199873  0  3.888139  0  0  -0.201283  0  3.9046  0  0  -0.093144  -0.198679  0  3.877109  0
C  C30  1  0.40794680  0.19306095  0.68974067  1  0  0.324608  0  3.837851  0  0  0.321407  0  4.102716  0  0  0.330598  0  4.119019  0  0  0.077913  0.314762  0  4.091676  0
C  C31  1  0.59205551  0.80694015  0.31026254  1  0  0.324556  0  3.837962  0  0  0.321386  0  4.102795  0  0  0.330579  0  4.119097  0  0  0.077902  0.314742  0  4.091753  0
C  C32  1  0.34439774  0.31300572  0.78303495  1  0  -0.200746  0  3.704816  0  0  -0.236321  0  3.957927  0  0  -0.238895  0  3.977253  0  0  -0.103868  -0.234332  0  3.944973  0
C  C33  1  0.65560283  0.68699405  0.21696624  1  0  -0.2007  0  3.704865  0  0  -0.236313  0  3.957971  0  0  -0.238887  0  3.977293  0  0  -0.103865  -0.234324  0  3.945017  0
C  C34  1  0.11616144  0.46146055  0.79981492  1  0  0.682868  0  3.863317  0  0  0.625679  0  4.155739  0  0  0.6618  0  4.146778  0  0  0.215979  0.60107  0  4.161109  0
C  C35  1  0.88383787  0.53853922  0.20018477  1  0  0.682815  0  3.863372  0  0  0.625649  0  4.155755  0  0  0.661772  0  4.146793  0  0  0.215975  0.60104  0  4.161124  0
C  C36  1  0.03673124  0.00494372  0.23866970  1  0  0.65334  0  3.908547  0  0  0.600917  0  4.196928  0  0  0.636061  0  4.190873  0  0  0.207535  0.577023  0  4.200122  0
C  C37  1  0.96326979  0.99505738  0.76133200  1  0  0.653288  0  3.908665  0  0  0.600869  0  4.19702  0  0  0.636011  0  4.190967  0  0  0.207523  0.576975  0  4.200212  0
N  N38  1  0.37302039  0.33983679  0.26605428  1  0  -0.456804  0  3.197476  0  0  -0.383912  0  3.481722  0  0  -0.406716  0  3.499921  0  0  -0.354901  -0.36809  0  3.468925  0
N  N39  1  0.62698019  0.66016299  0.73394349  1  0  -0.456776  0  3.197383  0  0  -0.383879  0  3.481666  0  0  -0.406679  0  3.499856  0  0  -0.354897  -0.368056  0  3.468868  0
N  N40  1  0.64454486  0.37064191  0.44182381  1  0  -0.301697  0  3.413681  0  0  -0.23578  0  3.643178  0  0  -0.251416  0  3.657794  0  0  -0.367138  -0.225422  0  3.633465  0
N  N41  1  0.35545352  0.62935520  0.55817257  1  0  -0.301725  0  3.413669  0  0  -0.235755  0  3.643171  0  0  -0.251416  0  3.657813  0  0  -0.367164  -0.225396  0  3.63346  0
O  O42  1  0.18778770  0.52668821  0.96569241  1  0  -0.689672  0  2.025841  0  0  -0.622118  0  2.276359  0  0  -0.648504  0  2.26193  0  0  -0.324019  -0.603542  0  2.28562  0
O  O43  1  0.81221252  0.47331422  0.03430944  1  0  -0.689632  0  2.025906  0  0  -0.622088  0  2.27642  0  0  -0.648468  0  2.261976  0  0  -0.324006  -0.603507  0  2.285673  0
O  O44  1  0.56753005  0.17241519  0.76406705  1  0  -0.521109  0  2.13609  0  0  -0.47111  0  2.347037  0  0  -0.490093  0  2.340221  0  0  -0.353586  -0.457466  0  2.351361  0
O  O45  1  0.43247052  0.82758458  0.23593414  1  0  -0.521096  0  2.136064  0  0  -0.471108  0  2.347006  0  0  -0.490094  0  2.340191  0  0  -0.353588  -0.457464  0  2.351329  0
O  O46  1  0.05921823  0.85694583  0.17692329  1  0  -0.618745  0  2.075085  0  0  -0.539102  0  2.327404  0  0  -0.571729  0  2.318734  0  0  -0.311628  -0.516274  0  2.332576  0
O  O47  1  0.94078234  0.14305394  0.82307789  1  0  -0.618738  0  2.075108  0  0  -0.539113  0  2.327438  0  0  -0.57174  0  2.318768  0  0  -0.311636  -0.516285  0  2.33261  0
O  O48  1  0.92983615  0.06270724  0.14936718  1  0  -0.678288  0  2.002829  0  0  -0.614009  0  2.25489  0  0  -0.641192  0  2.242356  0  0  -0.336208  -0.594796  0  2.26284  0
O  O49  1  0.07016442  0.93729253  0.85063401  1  0  -0.67828  0  2.002864  0  0  -0.613994  0  2.254916  0  0  -0.641182  0  2.242391  0  0  -0.336198  -0.59478  0  2.262867  0
O  O50  1  0.98392453  0.49990327  0.71507523  1  0  -0.651059  0  2.059082  0  0  -0.572694  0  2.314672  0  0  -0.602955  0  2.301762  0  0  -0.319091  -0.551485  0  2.322764  0
O  O51  1  0.01607604  0.50009650  0.28492596  1  0  -0.651041  0  2.059081  0  0  -0.572676  0  2.314662  0  0  -0.602938  0  2.301753  0  0  -0.319097  -0.551467  0  2.322754  0
