# generated using pymatgen
data_CaP2H11C4NO9
_symmetry_space_group_name_H-M   'P 1'
_cell_length_a   7.13405786
_cell_length_b   7.25967338
_cell_length_c   10.43695261
_cell_angle_alpha   78.72497868
_cell_angle_beta   80.53520876
_cell_angle_gamma   89.41062010
_symmetry_Int_Tables_number   1
_chemical_formula_structural   CaP2H11C4NO9
_chemical_formula_sum   'Ca2 P4 H22 C8 N2 O18'
_cell_volume   522.75704363
_cell_formula_units_Z   2
loop_
 _symmetry_equiv_pos_site_id
 _symmetry_equiv_pos_as_xyz
  1  'x, y, z'
loop_
 _atom_site_type_symbol
 _atom_site_label
 _atom_site_symmetry_multiplicity
 _atom_site_fract_x
 _atom_site_fract_y
 _atom_site_fract_z
 _atom_site_occupancy
 _atom_site_hle17_bader_spin_density
 _atom_site_hle17_ddec_charge
 _atom_site_hle17_ddec_spin_density
 _atom_site_hle17_ddec_sum_bond_order
 _atom_site_hle17_magmom
 _atom_site_hse06_10hf_bader_spin_density
 _atom_site_hse06_10hf_ddec_charge
 _atom_site_hse06_10hf_ddec_spin_density
 _atom_site_hse06_10hf_ddec_sum_bond_order
 _atom_site_hse06_10hf_magmom
 _atom_site_hse06_bader_spin_density
 _atom_site_hse06_ddec_charge
 _atom_site_hse06_ddec_spin_density
 _atom_site_hse06_ddec_sum_bond_order
 _atom_site_hse06_magmom
 _atom_site_pbe_bader_spin_density
 _atom_site_pbe_cm5_charge
 _atom_site_pbe_ddec_charge
 _atom_site_pbe_ddec_spin_density
 _atom_site_pbe_ddec_sum_bond_order
 _atom_site_pbe_magmom
Ca  Ca0  1  0.62012123  0.82904971  0.74172857  1  0  1.62875  0  1.015924  0  0  1.498459  0  1.363635  0  0  1.537238  0  1.320565  0  0  0.86798  1.468935  0  1.394676  0
Ca  Ca1  1  0.37987857  0.17095033  0.25827106  1  0  1.628762  0  1.015916  0  0  1.498472  0  1.363613  0  0  1.537244  0  1.320549  0  0  0.867971  1.468946  0  1.394655  0
P  P2  1  0.51776555  0.27670224  0.88383604  1  0  1.528506  0  4.783536  0  0  1.369744  0  5.286855  0  0  1.420467  0  5.245964  0  0  0.377844  1.33405  0  5.314937  0
P  P3  1  0.48223421  0.72329499  0.11616590  1  0  1.528543  0  4.783487  0  0  1.369777  0  5.286813  0  0  1.420526  0  5.245855  0  0  0.377884  1.334082  0  5.314896  0
P  P4  1  0.10672057  0.88572912  0.79129518  1  0  1.510358  0  4.823105  0  0  1.349057  0  5.332438  0  0  1.399542  0  5.292471  0  0  0.368527  1.313692  0  5.359503  0
P  P5  1  0.89327924  0.11427092  0.20870445  1  0  1.510348  0  4.823176  0  0  1.349056  0  5.332503  0  0  1.399498  0  5.292655  0  0  0.36852  1.313687  0  5.359576  0
H  H6  1  0.68996752  0.44502557  0.70214793  1  0  0.407503  0  0.919468  0  0  0.369178  0  0.995386  0  0  0.382416  0  0.976773  0  0  0.306018  0.359914  0  1.008371  0
H  H7  1  0.31003085  0.55497306  0.29785397  1  0  0.4075  0  0.919415  0  0  0.369168  0  0.995382  0  0  0.382405  0  0.976771  0  0  0.306042  0.359904  0  1.008368  0
H  H8  1  0.26604147  0.79616783  0.95522539  1  0  0.423302  0  0.894241  0  0  0.387432  0  0.966868  0  0  0.399317  0  0.94978  0  0  0.312018  0.379092  0  0.978849  0
H  H9  1  0.73395836  0.20383362  0.04477500  1  0  0.423309  0  0.894224  0  0  0.387444  0  0.966842  0  0  0.399327  0  0.949756  0  0  0.312033  0.379104  0  0.978822  0
H  H10  1  0.74684058  0.19893674  0.56505582  1  0  0.417792  0  0.891275  0  0  0.385116  0  0.958454  0  0  0.395527  0  0.943193  0  0  0.293129  0.377728  0  0.969286  0
H  H11  1  0.25315918  0.80106049  0.43494420  1  0  0.417777  0  0.891277  0  0  0.385078  0  0.958484  0  0  0.395489  0  0.943224  0  0  0.293149  0.37769  0  0.969316  0
H  H12  1  0.71073029  0.07446523  0.46485929  1  0  0.433547  0  0.865778  0  0  0.404944  0  0.925719  0  0  0.41516  0  0.910636  0  0  0.30116  0.397625  0  0.936517  0
H  H13  1  0.28926949  0.92553340  0.53514053  1  0  0.433496  0  0.865837  0  0  0.404873  0  0.925795  0  0  0.415087  0  0.910716  0  0  0.301141  0.397554  0  0.936592  0
H  H14  1  0.34455501  0.19379461  0.69695149  1  0  0.266427  0  0.851519  0  0  0.248523  0  0.916388  0  0  0.256779  0  0.909271  0  0  0.334493  0.242501  0  0.921695  0
H  H15  1  0.65544622  0.80620544  0.30304798  1  0  0.26642  0  0.851513  0  0  0.248522  0  0.916369  0  0  0.256776  0  0.909255  0  0  0.334493  0.242499  0  0.921677  0
H  H16  1  0.19642011  0.16334749  0.94926526  1  0  0.157125  0  0.948381  0  0  0.164994  0  1.010571  0  0  0.168279  0  1.008895  0  0  0.136383  0.162491  0  1.012077  0
H  H17  1  0.80357825  0.83665113  0.05073376  1  0  0.15712  0  0.948418  0  0  0.164978  0  1.01062  0  0  0.168262  0  1.008946  0  0  0.136384  0.162474  0  1.012127  0
H  H18  1  0.19649324  0.41164938  0.89991741  1  0  0.160677  0  0.896376  0  0  0.175144  0  0.94468  0  0  0.178206  0  0.943052  0  0  0.136595  0.17282  0  0.946082  0
H  H19  1  0.80350512  0.58834924  0.10008257  1  0  0.160678  0  0.896363  0  0  0.17515  0  0.944654  0  0  0.178211  0  0.943029  0  0  0.136581  0.172824  0  0.946059  0
H  H20  1  0.01876205  0.15988595  0.64984411  1  0  0.151689  0  0.931968  0  0  0.162577  0  0.989376  0  0  0.165798  0  0.987606  0  0  0.136722  0.160118  0  0.990944  0
H  H21  1  0.98123917  0.84011410  0.35015439  1  0  0.151683  0  0.932018  0  0  0.162583  0  0.989415  0  0  0.165804  0  0.987644  0  0  0.136732  0.160124  0  0.990982  0
H  H22  1  0.94128031  0.17712337  0.81875378  1  0  0.159998  0  0.932938  0  0  0.169752  0  0.989784  0  0  0.172998  0  0.98824  0  0  0.130412  0.167306  0  0.991127  0
H  H23  1  0.05871949  0.82287666  0.18124393  1  0  0.160029  0  0.932963  0  0  0.169781  0  0.989804  0  0  0.173025  0  0.988261  0  0  0.130413  0.167335  0  0.991149  0
H  H24  1  0.32167555  0.54404593  0.67022754  1  0  0.129792  0  0.943335  0  0  0.136625  0  1.011279  0  0  0.139899  0  1.009375  0  0  0.133107  0.134254  0  1.012747  0
H  H25  1  0.67832707  0.45595273  0.32977291  1  0  0.129771  0  0.943342  0  0  0.13657  0  1.011321  0  0  0.139843  0  1.009415  0  0  0.133061  0.134198  0  1.01279  0
H  H26  1  0.07538126  0.50436784  0.67664968  1  0  0.145362  0  0.909901  0  0  0.154161  0  0.970746  0  0  0.157724  0  0.968495  0  0  0.132044  0.151539  0  0.972496  0
H  H27  1  0.92462139  0.49563222  0.32334962  1  0  0.14531  0  0.909928  0  0  0.154108  0  0.97076  0  0  0.15767  0  0.968507  0  0  0.132019  0.151485  0  0.972513  0
C  C28  1  0.26401772  0.28329363  0.87662261  1  0  -0.356028  0  3.472743  0  0  -0.394682  0  3.719201  0  0  -0.399599  0  3.722409  0  0  -0.060492  -0.391171  0  3.71729  0
C  C29  1  0.73597922  0.71670498  0.12337562  1  0  -0.356  0  3.472725  0  0  -0.39466  0  3.719209  0  0  -0.399583  0  3.722421  0  0  -0.060482  -0.391146  0  3.71729  0
C  C30  1  0.05847589  0.13665837  0.74879160  1  0  -0.3593  0  3.477242  0  0  -0.395778  0  3.720901  0  0  -0.400936  0  3.725024  0  0  -0.066336  -0.392012  0  3.718172  0
C  C31  1  0.94152533  0.86334168  0.25120690  1  0  -0.359369  0  3.477381  0  0  -0.395864  0  3.721036  0  0  -0.401015  0  3.72516  0  0  -0.066354  -0.392092  0  3.718289  0
C  C32  1  0.21644142  0.44699672  0.65202582  1  0  -0.185492  0  3.500793  0  0  -0.242334  0  3.750481  0  0  -0.244397  0  3.754421  0  0  -0.057888  -0.24087  0  3.747954  0
C  C33  1  0.78356121  0.55300193  0.34797559  1  0  -0.185407  0  3.500734  0  0  -0.242223  0  3.750307  0  0  -0.244273  0  3.754226  0  0  -0.057869  -0.240761  0  3.747781  0
C  C34  1  0.26113926  0.42968434  0.50759119  1  0  0.697236  0  3.842108  0  0  0.639551  0  4.155353  0  0  0.673219  0  4.147479  0  0  0.228638  0.616664  0  4.159965  0
C  C35  1  0.73885658  0.57033394  0.49241119  1  0  0.697216  0  3.842091  0  0  0.63967  0  4.155086  0  0  0.673336  0  4.147208  0  0  0.228755  0.616785  0  4.159697  0
N  N36  1  0.22901955  0.26083704  0.74161194  1  0  0.027846  0  3.39637  0  0  0.106211  0  3.601567  0  0  0.096761  0  3.620379  0  0  -0.328874  0.112598  0  3.588896  0
N  N37  1  0.77098167  0.73916301  0.25838752  1  0  0.02783  0  3.39639  0  0  0.106188  0  3.601574  0  0  0.096734  0  3.620389  0  0  -0.328882  0.112579  0  3.588897  0
O  O38  1  0.59379466  0.11377911  0.82202774  1  0  -0.912824  0  1.907702  0  0  -0.83259  0  2.173681  0  0  -0.859723  0  2.154785  0  0  -0.417889  -0.812912  0  2.186179  0
O  O39  1  0.40620228  0.88621951  0.17797240  1  0  -0.912898  0  1.907764  0  0  -0.832639  0  2.173734  0  0  -0.859765  0  2.154813  0  0  -0.417889  -0.812961  0  2.186234  0
O  O40  1  0.53786929  0.27274188  0.02705313  1  0  -0.870873  0  1.974385  0  0  -0.786852  0  2.227112  0  0  -0.814151  0  2.208226  0  0  -0.383703  -0.767424  0  2.240015  0
O  O41  1  0.46212910  0.72725815  0.97294761  1  0  -0.870917  0  1.974294  0  0  -0.786902  0  2.227045  0  0  -0.814215  0  2.208159  0  0  -0.383747  -0.767475  0  2.239947  0
O  O42  1  0.60863374  0.46776614  0.79341377  1  0  -0.816911  0  2.059295  0  0  -0.742355  0  2.310826  0  0  -0.765583  0  2.2842  0  0  -0.400477  -0.725682  0  2.328917  0
O  O43  1  0.39136609  0.53223530  0.20658566  1  0  -0.81686  0  2.059238  0  0  -0.742321  0  2.310813  0  0  -0.765551  0  2.28418  0  0  -0.400472  -0.725649  0  2.328903  0
O  O44  1  0.29809626  0.85835682  0.70739238  1  0  -0.924871  0  1.932258  0  0  -0.837011  0  2.188051  0  0  -0.863918  0  2.167626  0  0  -0.411927  -0.817614  0  2.202044  0
O  O45  1  0.70190352  0.14164181  0.29260745  1  0  -0.924866  0  1.932287  0  0  -0.837022  0  2.188091  0  0  -0.863926  0  2.167686  0  0  -0.411916  -0.817626  0  2.202084  0
O  O46  1  0.13140526  0.84237456  0.94247898  1  0  -0.763317  0  2.042775  0  0  -0.690677  0  2.277518  0  0  -0.712612  0  2.252673  0  0  -0.381486  -0.675142  0  2.294522  0
O  O47  1  0.86859457  0.15762689  0.05752045  1  0  -0.763305  0  2.042752  0  0  -0.690682  0  2.2775  0  0  -0.712607  0  2.25267  0  0  -0.381501  -0.675146  0  2.294504  0
O  O48  1  0.93286483  0.78376377  0.77351880  1  0  -0.891378  0  1.855366  0  0  -0.813462  0  2.116348  0  0  -0.840586  0  2.096305  0  0  -0.426618  -0.793749  0  2.129601  0
O  O49  1  0.06713495  0.21623486  0.22648102  1  0  -0.891377  0  1.855398  0  0  -0.813454  0  2.116357  0  0  -0.840574  0  2.096334  0  0  -0.426604  -0.793737  0  2.129606  0
O  O50  1  0.34506722  0.28749526  0.47777602  1  0  -0.63838  0  1.937898  0  0  -0.578439  0  2.172426  0  0  -0.603498  0  2.164239  0  0  -0.313865  -0.560854  0  2.177598  0
O  O51  1  0.65493676  0.71249919  0.52222390  1  0  -0.638163  0  1.938318  0  0  -0.578311  0  2.172816  0  0  -0.603367  0  2.164633  0  0  -0.313838  -0.56073  0  2.177988  0
O  O52  1  0.21423028  0.57040334  0.42451722  1  0  -0.626526  0  2.057482  0  0  -0.555791  0  2.278246  0  0  -0.583186  0  2.267958  0  0  -0.299781  -0.536635  0  2.284884  0
O  O53  1  0.78577228  0.42959111  0.57548669  1  0  -0.626669  0  2.057119  0  0  -0.55599  0  2.277815  0  0  -0.583389  0  2.267531  0  0  -0.299837  -0.536832  0  2.284456  0
O  O54  1  0.72825990  0.06714481  0.55771217  1  0  -0.90003  0  1.828477  0  0  -0.851485  0  2.024997  0  0  -0.871122  0  1.992628  0  0  -0.645765  -0.837249  0  2.047763  0
O  O55  1  0.27173990  0.93285523  0.44228745  1  0  -0.899943  0  1.828475  0  0  -0.851366  0  2.025102  0  0  -0.870993  0  1.992715  0  0  -0.645757  -0.837129  0  2.047866  0
