# generated using pymatgen
data_PrFe2H25C36(NO4)2
_symmetry_space_group_name_H-M   'P 1'
_cell_length_a   11.61975223
_cell_length_b   12.04391794
_cell_length_c   13.70120000
_cell_angle_alpha   94.56997965
_cell_angle_beta   109.31265764
_cell_angle_gamma   117.50896041
_symmetry_Int_Tables_number   1
_chemical_formula_structural   PrFe2H25C36(NO4)2
_chemical_formula_sum   'Pr2 Fe4 H50 C72 N4 O16'
_cell_volume   1541.83664467
_cell_formula_units_Z   2
loop_
 _symmetry_equiv_pos_site_id
 _symmetry_equiv_pos_as_xyz
  1  'x, y, z'
loop_
 _atom_site_type_symbol
 _atom_site_label
 _atom_site_symmetry_multiplicity
 _atom_site_fract_x
 _atom_site_fract_y
 _atom_site_fract_z
 _atom_site_occupancy
 _atom_site_hle17_bader_spin_density
 _atom_site_hle17_ddec_charge
 _atom_site_hle17_ddec_spin_density
 _atom_site_hle17_ddec_sum_bond_order
 _atom_site_hle17_magmom
 _atom_site_hse06_10hf_bader_spin_density
 _atom_site_hse06_10hf_ddec_charge
 _atom_site_hse06_10hf_ddec_spin_density
 _atom_site_hse06_10hf_ddec_sum_bond_order
 _atom_site_hse06_10hf_magmom
 _atom_site_hse06_bader_spin_density
 _atom_site_hse06_ddec_charge
 _atom_site_hse06_ddec_spin_density
 _atom_site_hse06_ddec_sum_bond_order
 _atom_site_hse06_magmom
 _atom_site_pbe_bader_charge
 _atom_site_pbe_bader_spin_density
 _atom_site_pbe_cm5_charge
 _atom_site_pbe_ddec_charge
 _atom_site_pbe_ddec_spin_density
 _atom_site_pbe_ddec_sum_bond_order
 _atom_site_pbe_magmom
Pr  Pr0  1  0.80055217  0.35876880  0.38350785  1  0  2.253276  0  1.685793  0  0  2.068218  0  2.171662  0  0  2.112023  0  2.12466  0  2.25857  0  1.494728  2.03345  0  2.209419  0
Pr  Pr1  1  0.19944473  0.64123155  0.61649109  1  0  2.253232  0  1.685786  0  0  2.068204  0  2.171611  0  0  2.112011  0  2.124591  0  2.258626  0  1.494698  2.033426  0  2.209374  0
Fe  Fe2  1  0.84943198  0.76124017  0.25033778  1  0  0.115595  0  3.547568  0  0  0.214895  0  3.963123  0  0  0.220374  0  3.948883  0  0.72386  0  0.539962  0.21872  0  3.965627  0
Fe  Fe3  1  0.15056695  0.23876213  0.74965967  1  0  0.115536  0  3.547541  0  0  0.214741  0  3.963144  0  0  0.220153  0  3.948954  0  0.723996  0  0.539935  0.218646  0  3.965632  0
Fe  Fe4  1  0.77316247  0.65559899  0.75204911  1  0  0.126789  0  3.563717  0  0  0.227611  0  3.974945  0  0  0.232284  0  3.961701  0  0.742611  0  0.54586  0.231679  0  3.976741  0
Fe  Fe5  1  0.22683535  0.34440136  0.24795082  1  0  0.126779  0  3.563712  0  0  0.227512  0  3.97493  0  0  0.2324  0  3.961673  0  0.742744  0  0.545837  0.231633  0  3.976754  0
H  H6  1  0.52123920  0.32228405  0.11604308  1  0  0.38684  0  0.920098  0  0  0.353592  0  1.003487  0  0  0.367563  0  0.989738  0  0.629796  0  0.294293  0.343916  0  1.012895  0
H  H7  1  0.47876227  0.67771630  0.88395714  1  0  0.386795  0  0.920158  0  0  0.353561  0  1.003521  0  0  0.367531  0  0.989771  0  0.629817  0  0.294261  0.343884  0  1.012929  0
H  H8  1  0.69234282  0.59195215  0.34773708  1  0  0.136646  0  0.956182  0  0  0.148517  0  1.01445  0  0  0.152126  0  1.012584  0  0.151699  0  0.117773  0.1459  0  1.01596  0
H  H9  1  0.30765665  0.40805113  0.65226206  1  0  0.13662  0  0.95616  0  0  0.148504  0  1.014415  0  0  0.152109  0  1.012552  0  0.151798  0  0.117766  0.145888  0  1.015927  0
H  H10  1  0.60778292  0.75282961  0.26440308  1  0  0.109594  0  0.964734  0  0  0.123565  0  1.021584  0  0  0.125935  0  1.02185  0  0.076861  0  0.103764  0.121884  0  1.02159  0
H  H11  1  0.39221525  0.24716977  0.73559395  1  0  0.109629  0  0.964728  0  0  0.123612  0  1.02156  0  0  0.12597  0  1.02184  0  0.076944  0  0.103814  0.121933  0  1.021566  0
H  H12  1  0.84354581  0.98842669  0.31300838  1  0  0.1199  0  0.943166  0  0  0.134494  0  0.9967  0  0  0.137237  0  0.996254  0  0.085369  0  0.110104  0.132542  0  0.997229  0
H  H13  1  0.15645201  0.01157366  0.68698716  1  0  0.119887  0  0.943206  0  0  0.134488  0  0.996733  0  0  0.137233  0  0.996284  0  0.085527  0  0.110107  0.132519  0  0.997284  0
H  H14  1  0.07492387  0.97458936  0.42634008  1  0  0.123142  0  0.938474  0  0  0.140306  0  0.989022  0  0  0.143214  0  0.988172  0  0.103739  0  0.111871  0.138218  0  0.989866  0
H  H15  1  0.92507414  0.02541294  0.57365711  1  0  0.123151  0  0.938386  0  0  0.14035  0  0.988896  0  0  0.143262  0  0.988043  0  0.103751  0  0.111877  0.138264  0  0.989744  0
H  H16  1  0.62003879  0.63702286  0.04491778  1  0  0.137232  0  0.963014  0  0  0.147512  0  1.022626  0  0  0.151702  0  1.019139  0  0.194711  0  0.11256  0.144536  0  1.025242  0
H  H17  1  0.37996176  0.36297749  0.95507853  1  0  0.137229  0  0.96297  0  0  0.147516  0  1.022588  0  0  0.151709  0  1.019092  0  0.194716  0  0.112564  0.14454  0  1.025204  0
H  H18  1  0.83673181  0.88193188  0.08160528  1  0  0.108024  0  0.956549  0  0  0.123768  0  1.011816  0  0  0.126685  0  1.010538  0  0.074301  0  0.10694  0.121723  0  1.012911  0
H  H19  1  0.16327057  0.11806847  0.91839300  1  0  0.108009  0  0.95654  0  0  0.123755  0  1.011815  0  0  0.126672  0  1.010535  0  0.074283  0  0.106927  0.121711  0  1.012908  0
H  H20  1  0.08536515  0.89917008  0.20039938  1  0  0.113987  0  0.964793  0  0  0.128346  0  1.01963  0  0  0.130941  0  1.019729  0  0.100164  0  0.104603  0.126582  0  1.019631  0
H  H21  1  0.91463374  0.10082735  0.79959772  1  0  0.113974  0  0.964783  0  0  0.128336  0  1.019623  0  0  0.130928  0  1.019724  0  0.100152  0  0.104601  0.126571  0  1.019626  0
H  H22  1  0.02048646  0.66159679  0.23811262  1  0  0.125039  0  0.939963  0  0  0.140147  0  0.994213  0  0  0.143408  0  0.992299  0  0.110968  0  0.115743  0.137832  0  0.995708  0
H  H23  1  0.97951611  0.33840551  0.76188658  1  0  0.125044  0  0.939959  0  0  0.140117  0  0.994245  0  0  0.143377  0  0.992331  0  0.110913  0  0.115739  0.137804  0  0.995738  0
H  H24  1  0.57607246  0.39739249  0.62715489  1  0  0.116003  0  0.946151  0  0  0.133761  0  0.998059  0  0  0.136713  0  0.996315  0  0.091404  0  0.110334  0.131644  0  0.99947  0
H  H25  1  0.42392408  0.60260884  0.37284255  1  0  0.116026  0  0.946139  0  0  0.133775  0  0.99805  0  0  0.136735  0  0.996306  0  0.091446  0  0.110337  0.131663  0  0.999454  0
H  H26  1  0.56759243  0.47952775  0.81401739  1  0  0.122634  0  0.933511  0  0  0.140598  0  0.98163  0  0  0.143104  0  0.981405  0  0.089579  0  0.114213  0.138751  0  0.981964  0
H  H27  1  0.43240372  0.52046968  0.18598332  1  0  0.122623  0  0.933499  0  0  0.140605  0  0.981598  0  0  0.143113  0  0.981373  0  0.089591  0  0.114228  0.13876  0  0.981933  0
H  H28  1  0.83833445  0.63100849  0.96406142  1  0  0.11942  0  0.982009  0  0  0.137106  0  1.030222  0  0  0.13873  0  1.032232  0  0.126818  0  0.103438  0.135966  0  1.028974  0
H  H29  1  0.16166425  0.36898698  0.03593841  1  0  0.119449  0  0.981958  0  0  0.137092  0  1.030223  0  0  0.138718  0  1.032235  0  0.126796  0  0.103434  0.135954  0  1.028975  0
H  H30  1  0.01609916  0.64529895  0.87125645  1  0  0.119562  0  0.950026  0  0  0.136883  0  1.000377  0  0  0.140078  0  0.998321  0  0.074485  0  0.110979  0.13468  0  1.001901  0
H  H31  1  0.98389719  0.35470043  0.12874226  1  0  0.119664  0  0.949885  0  0  0.136941  0  1.000296  0  0  0.140137  0  0.998242  0  0.074444  0  0.11102  0.134735  0  1.001817  0
H  H32  1  0.57243210  0.63542767  0.55920854  1  0  0.12023  0  0.939723  0  0  0.136141  0  0.993375  0  0  0.139367  0  0.991102  0  0.079054  0  0.114058  0.133789  0  0.995151  0
H  H33  1  0.42756901  0.36457366  0.44079237  1  0  0.120199  0  0.93974  0  0  0.136116  0  0.993387  0  0  0.139344  0  0.991113  0  0.079034  0  0.114048  0.133765  0  0.995164  0
H  H34  1  0.84705130  0.73867753  0.58423625  1  0  0.122821  0  0.94642  0  0  0.141233  0  0.9915  0  0  0.143527  0  0.992016  0  0.112713  0  0.113621  0.139652  0  0.991226  0
H  H35  1  0.15294905  0.26132087  0.41576571  1  0  0.122798  0  0.946412  0  0  0.141216  0  0.991484  0  0  0.143514  0  0.992001  0  0.11275  0  0.113607  0.139636  0  0.991208  0
H  H36  1  0.01956462  0.89467782  0.78698764  1  0  0.103651  0  0.965506  0  0  0.117305  0  1.025695  0  0  0.119777  0  1.025292  0  0.053116  0  0.105172  0.115547  0  1.02624  0
H  H37  1  0.98043665  0.10532059  0.21301457  1  0  0.103649  0  0.96551  0  0  0.117322  0  1.025673  0  0  0.119801  0  1.025272  0  0.053125  0  0.105166  0.115564  0  1.02622  0
H  H38  1  0.85159125  0.88721151  0.88945716  1  0  0.118963  0  0.941742  0  0  0.135785  0  0.99292  0  0  0.139477  0  0.989919  0  0.086923  0  0.109557  0.133125  0  0.995248  0
H  H39  1  0.14840819  0.11278690  0.11054382  1  0  0.118934  0  0.941695  0  0  0.135762  0  0.992878  0  0  0.139454  0  0.989881  0  0.086871  0  0.109546  0.133103  0  0.995206  0
H  H40  1  0.83226181  0.22908575  0.17292054  1  0  0.081468  0  0.970525  0  0  0.085951  0  1.041321  0  0  0.089309  0  1.037376  0  0.131746  0  0.121592  0.083369  0  1.044361  0
H  H41  1  0.16774073  0.77091168  0.82707977  1  0  0.081517  0  0.970479  0  0  0.08598  0  1.041289  0  0  0.089339  0  1.037341  0  0.131736  0  0.121594  0.083399  0  1.044329  0
H  H42  1  0.73510306  0.02784421  0.02565035  1  0  0.109453  0  0.933799  0  0  0.122547  0  0.986043  0  0  0.126052  0  0.985011  0  0.093546  0  0.112428  0.119919  0  0.987137  0
H  H43  1  0.26489837  0.97215127  0.97435097  1  0  0.109556  0  0.933637  0  0  0.122598  0  0.985935  0  0  0.126106  0  0.984905  0  0.093631  0  0.112466  0.119972  0  0.987029  0
H  H44  1  0.52317753  0.82103887  0.01100070  1  0  0.110451  0  0.95622  0  0  0.121458  0  1.015313  0  0  0.12422  0  1.013538  0  0.108269  0  0.115017  0.119319  0  1.01687  0
H  H45  1  0.47682172  0.17895759  0.98900227  1  0  0.110492  0  0.956198  0  0  0.121495  0  1.015284  0  0  0.124269  0  1.013493  0  0.108302  0  0.115046  0.119354  0  1.016843  0
H  H46  1  0.22621866  0.83585260  0.36120995  1  0  0.108994  0  0.935653  0  0  0.120521  0  0.995003  0  0  0.12284  0  0.993895  0  0.100904  0  0.116514  0.118816  0  0.995831  0
H  H47  1  0.77378482  0.16414970  0.63879170  1  0  0.108963  0  0.93562  0  0  0.120488  0  0.994976  0  0  0.122808  0  0.993867  0  0.100879  0  0.116505  0.118785  0  0.9958  0
H  H48  1  0.33780548  0.04674678  0.49613230  1  0  0.111945  0  0.928334  0  0  0.125799  0  0.979972  0  0  0.12904  0  0.979486  0  0.099672  0  0.112839  0.123236  0  0.980902  0
H  H49  1  0.66219599  0.95325357  0.50387011  1  0  0.111872  0  0.928347  0  0  0.125731  0  0.979984  0  0  0.128972  0  0.979499  0  0.09968  0  0.11281  0.123173  0  0.980912  0
H  H50  1  0.56135109  0.23978629  0.50298731  1  0  0.080123  0  0.956053  0  0  0.086189  0  1.024807  0  0  0.089648  0  1.020685  0  0.116364  0  0.120064  0.083553  0  1.027854  0
H  H51  1  0.43865240  0.76021601  0.49701507  1  0  0.080124  0  0.956145  0  0  0.086215  0  1.024888  0  0  0.089645  0  1.020798  0  0.116411  0  0.120069  0.083579  0  1.027936  0
H  H52  1  0.33612565  0.70420407  0.07834576  1  0  0.105508  0  0.939699  0  0  0.119957  0  0.992398  0  0  0.122452  0  0.992172  0  0.076484  0  0.108226  0.118099  0  0.99269  0
H  H53  1  0.66387526  0.29579531  0.92165788  1  0  0.105429  0  0.939736  0  0  0.119885  0  0.992437  0  0  0.122379  0  0.992214  0  0.076399  0  0.108203  0.118039  0  0.992715  0
H  H54  1  0.22650383  0.70930439  0.20408560  1  0  0.103871  0  0.952077  0  0  0.1182  0  1.006017  0  0  0.120159  0  1.006855  0  0.095381  0  0.10659  0.116669  0  1.005763  0
H  H55  1  0.77349653  0.29069401  0.79591709  1  0  0.103888  0  0.952081  0  0  0.118214  0  1.006006  0  0  0.120174  0  1.006843  0  0.095389  0  0.106583  0.116648  0  1.005796  0
C  C56  1  0.00553673  0.71696462  0.46382507  1  0  0.704552  0  3.894005  0  0  0.661423  0  4.18129  0  0  0.698254  0  4.168492  0  1.578752  0  0.215585  0.636239  0  4.18931  0
C  C57  1  0.99446310  0.28303768  0.53617409  1  0  0.704556  0  3.893905  0  0  0.661414  0  4.181228  0  0  0.698245  0  4.168427  0  1.578745  0  0.215625  0.636232  0  4.189243  0
C  C58  1  0.91485639  0.76738316  0.40854477  1  0  -0.101773  0  3.727915  0  0  -0.092232  0  3.98846  0  0  -0.102643  0  4.007322  0  -0.11904  0  -0.078527  -0.086235  0  3.9764  0
C  C59  1  0.08514289  0.23261816  0.59145345  1  0  -0.101825  0  3.727884  0  0  -0.092301  0  3.988491  0  0  -0.102702  0  4.007341  0  -0.119112  0  -0.078532  -0.086314  0  3.976444  0
C  C60  1  0.76102248  0.69412523  0.35469176  1  0  -0.115898  0  3.662254  0  0  -0.155551  0  3.937919  0  0  -0.158149  0  3.95523  0  -0.177207  0  -0.142226  -0.154266  0  3.926587  0
C  C61  1  0.23897625  0.30587512  0.64530477  1  0  -0.115909  0  3.662241  0  0  -0.155558  0  3.937924  0  0  -0.158145  0  3.955221  0  -0.177409  0  -0.142256  -0.154287  0  3.926616  0
C  C62  1  0.71701420  0.77899385  0.31099349  1  0  -0.110359  0  3.718879  0  0  -0.136683  0  3.991368  0  0  -0.140562  0  4.009506  0  -0.161858  0  -0.149779  -0.134684  0  3.979508  0
C  C63  1  0.28298453  0.22100650  0.68900303  1  0  -0.110394  0  3.718964  0  0  -0.136718  0  3.991438  0  0  -0.140581  0  4.009574  0  -0.161896  0  -0.149819  -0.134728  0  3.979582  0
C  C64  1  0.84208105  0.90371983  0.33596438  1  0  -0.095635  0  3.70186  0  0  -0.126069  0  3.979381  0  0  -0.128953  0  3.995322  0  -0.091179  0  -0.144409  -0.124909  0  3.96907  0
C  C65  1  0.15791788  0.09628247  0.66403161  1  0  -0.095603  0  3.701965  0  0  -0.126032  0  3.979479  0  0  -0.12891  0  3.995413  0  -0.09127  0  -0.144413  -0.124868  0  3.969183  0
C  C66  1  0.96419015  0.89701847  0.39619593  1  0  -0.103935  0  3.678565  0  0  -0.140741  0  3.949811  0  0  -0.141187  0  3.965066  0  -0.141474  0  -0.141989  -0.14094  0  3.939853  0
C  C67  1  0.03580858  0.10298188  0.60379914  1  0  -0.10388  0  3.678404  0  0  -0.140698  0  3.949627  0  0  -0.141143  0  3.964881  0  -0.141461  0  -0.141972  -0.140917  0  3.939698  0
C  C68  1  0.71636308  0.47056467  0.14854373  1  0  0.699933  0  3.836243  0  0  0.652436  0  4.129362  0  0  0.69039  0  4.114369  0  1.530573  0  0.237246  0.626447  0  4.139108  0
C  C69  1  0.28363549  0.52943861  0.85145442  1  0  0.699768  0  3.836649  0  0  0.652355  0  4.129646  0  0  0.690307  0  4.11465  0  1.530701  0  0.237214  0.626369  0  4.139393  0
C  C70  1  0.79445512  0.60318669  0.13968158  1  0  -0.117029  0  3.768423  0  0  -0.107841  0  4.0297  0  0  -0.119363  0  4.048771  0  -0.071326  0  -0.083972  -0.100864  0  4.017136  0
C  C71  1  0.20554599  0.39681463  0.86031714  1  0  -0.117103  0  3.768453  0  0  -0.107914  0  4.029678  0  0  -0.119427  0  4.048734  0  -0.071647  0  -0.084007  -0.100947  0  4.017127  0
C  C72  1  0.73313512  0.67515542  0.08911191  1  0  -0.114341  0  3.664816  0  0  -0.154133  0  3.943299  0  0  -0.153459  0  3.956058  0  -0.210998  0  -0.146794  -0.154976  0  3.934874  0
C  C73  1  0.26686471  0.32484688  0.91088579  1  0  -0.114299  0  3.664768  0  0  -0.154106  0  3.943254  0  0  -0.153425  0  3.956002  0  -0.211024  0  -0.14681  -0.154959  0  3.93484  0
C  C74  1  0.84811028  0.80367789  0.10829656  1  0  -0.10151  0  3.719977  0  0  -0.132251  0  3.998632  0  0  -0.135168  0  4.014122  0  -0.101719  0  -0.147715  -0.131079  0  3.98842  0
C  C75  1  0.15189027  0.19632246  0.89170121  1  0  -0.101466  0  3.719851  0  0  -0.132198  0  3.998504  0  0  -0.135107  0  4.013988  0  -0.10172  0  -0.14767  -0.131034  0  3.988302  0
C  C76  1  0.97995076  0.81233109  0.17077400  1  0  -0.117121  0  3.725638  0  0  -0.143508  0  3.998252  0  0  -0.146616  0  4.014628  0  -0.189769  0  -0.151471  -0.141922  0  3.987318  0
C  C77  1  0.02004924  0.18766828  0.82922573  1  0  -0.117114  0  3.725589  0  0  -0.143491  0  3.998179  0  0  -0.146592  0  4.014547  0  -0.189705  0  -0.151489  -0.141913  0  3.987253  0
C  C78  1  0.94715929  0.68889725  0.19108285  1  0  -0.11855  0  3.691142  0  0  -0.15891  0  3.969263  0  0  -0.159595  0  3.984209  0  -0.154532  0  -0.146651  -0.15886  0  3.959347  0
C  C79  1  0.05283943  0.31110310  0.80891806  1  0  -0.118491  0  3.69095  0  0  -0.158813  0  3.969053  0  0  -0.159489  0  3.983985  0  -0.154219  0  -0.146593  -0.158769  0  3.959144  0
C  C80  1  0.87248599  0.50971067  0.64045194  1  0  0.728577  0  3.866488  0  0  0.682812  0  4.158724  0  0  0.720321  0  4.144527  0  1.60355  0  0.232056  0.657027  0  4.167779  0
C  C81  1  0.12751110  0.49029163  0.35954572  1  0  0.728559  0  3.866471  0  0  0.682693  0  4.15886  0  0  0.720204  0  4.144665  0  1.603569  0  0.231919  0.656903  0  4.167923  0
C  C82  1  0.81489804  0.51461317  0.72169437  1  0  -0.112056  0  3.742663  0  0  -0.10419  0  4.005675  0  0  -0.114307  0  4.024767  0  -0.102657  0  -0.085254  -0.098285  0  3.993421  0
C  C83  1  0.18509684  0.48538523  0.27830386  1  0  -0.112149  0  3.74276  0  0  -0.104202  0  4.005698  0  0  -0.11434  0  4.024825  0  -0.102665  0  -0.085242  -0.098303  0  3.993459  0
C  C84  1  0.66717406  0.45795321  0.70343808  1  0  -0.124676  0  3.70239  0  0  -0.16494  0  3.982745  0  0  -0.165966  0  3.998649  0  -0.157918  0  -0.149215  -0.164666  0  3.972018  0
C  C85  1  0.33282285  0.54204714  0.29656086  1  0  -0.12464  0  3.702362  0  0  -0.164901  0  3.982706  0  0  -0.165951  0  3.998635  0  -0.157993  0  -0.149195  -0.164633  0  3.97199  0
C  C86  1  0.66273561  0.50039288  0.80203815  1  0  -0.100004  0  3.703747  0  0  -0.132158  0  3.985111  0  0  -0.135886  0  4.002536  0  -0.150103  0  -0.147056  -0.129915  0  3.973157  0
C  C87  1  0.33726201  0.49960552  0.19796158  1  0  -0.100013  0  3.703754  0  0  -0.132175  0  3.985112  0  0  -0.135924  0  4.002568  0  -0.150274  0  -0.147087  -0.129944  0  3.973174  0
C  C88  1  0.80656944  0.58182459  0.88176803  1  0  -0.104194  0  3.709127  0  0  -0.129615  0  3.973927  0  0  -0.132736  0  3.991839  0  -0.152501  0  -0.150011  -0.128  0  3.961667  0
C  C89  1  0.19343056  0.41817479  0.11823098  1  0  -0.104197  0  3.709121  0  0  -0.129576  0  3.973911  0  0  -0.13272  0  3.991854  0  -0.152474  0  -0.149997  -0.127966  0  3.961658  0
C  C90  1  0.90045007  0.59105662  0.83268363  1  0  -0.122691  0  3.706069  0  0  -0.15841  0  3.974606  0  0  -0.159107  0  3.989365  0  -0.137299  0  -0.14919  -0.158421  0  3.964745  0
C  C91  1  0.09954791  0.40894081  0.16731540  1  0  -0.122798  0  3.706069  0  0  -0.158486  0  3.97459  0  0  -0.159206  0  3.98938  0  -0.137183  0  -0.149244  -0.158497  0  3.964732  0
C  C92  1  0.54468604  0.71429070  0.75638562  1  0  0.69065  0  3.879535  0  0  0.640845  0  4.18019  0  0  0.67826  0  4.167022  0  1.56258  0  0.219238  0.615012  0  4.188994  0
C  C93  1  0.45531158  0.28570770  0.24361338  1  0  0.690576  0  3.87946  0  0  0.640685  0  4.180193  0  0  0.678116  0  4.167032  0  1.562542  0  0.219184  0.614852  0  4.188995  0
C  C94  1  0.66939402  0.75407984  0.73067656  1  0  -0.108581  0  3.761944  0  0  -0.101068  0  4.023858  0  0  -0.111938  0  4.044013  0  -0.068777  0  -0.085346  -0.094465  0  4.010568  0
C  C95  1  0.33060764  0.24592246  0.26932458  1  0  -0.108603  0  3.761957  0  0  -0.100942  0  4.0237  0  0  -0.111895  0  4.04397  0  -0.068748  0  -0.085375  -0.094343  0  4.01042  0
C  C96  1  0.66772944  0.70492127  0.63045247  1  0  -0.121525  0  3.702216  0  0  -0.159118  0  3.977735  0  0  -0.160056  0  3.993203  0  -0.174805  0  -0.146769  -0.158741  0  3.967176  0
C  C97  1  0.33226929  0.29507908  0.36954844  1  0  -0.121472  0  3.70226  0  0  -0.159096  0  3.977753  0  0  -0.160042  0  3.993266  0  -0.174802  0  -0.146734  -0.158726  0  3.967204  0
C  C98  1  0.81224403  0.75976386  0.64394659  1  0  -0.08699  0  3.679932  0  0  -0.114064  0  3.947466  0  0  -0.11718  0  3.964811  0  -0.103773  0  -0.142742  -0.112565  0  3.93592  0
C  C99  1  0.18775652  0.24023649  0.35605483  1  0  -0.086868  0  3.679705  0  0  -0.113933  0  3.947232  0  0  -0.117074  0  3.964609  0  -0.103534  0  -0.142657  -0.112439  0  3.935694  0
C  C100  1  0.90383341  0.84175783  0.75207971  1  0  -0.09767  0  3.711235  0  0  -0.125958  0  3.987874  0  0  -0.12915  0  4.004726  0  -0.127315  0  -0.145508  -0.124447  0  3.976745  0
C  C101  1  0.09616659  0.15824155  0.24792149  1  0  -0.097728  0  3.71104  0  0  -0.126024  0  3.987676  0  0  -0.129245  0  4.004563  0  -0.127655  0  -0.145558  -0.124521  0  3.976561  0
C  C102  1  0.81641184  0.83848949  0.80612532  1  0  -0.126277  0  3.703899  0  0  -0.162934  0  3.976172  0  0  -0.162746  0  3.990015  0  -0.152944  0  -0.151578  -0.163519  0  3.966838  0
C  C103  1  0.18358871  0.16151086  0.19387683  1  0  -0.126261  0  3.703796  0  0  -0.162957  0  3.97606  0  0  -0.162779  0  3.989949  0  -0.152833  0  -0.151551  -0.16355  0  3.966737  0
C  C104  1  0.73888302  0.13668845  0.16199499  1  0  0.144914  0  3.718494  0  0  0.11412  0  3.981995  0  0  0.121928  0  3.997015  0  0.495531  0  0.063773  0.108994  0  3.971927  0
C  C105  1  0.26111896  0.86330801  0.83800729  1  0  0.144801  0  3.718539  0  0  0.11402  0  3.982034  0  0  0.12183  0  3.997052  0  0.495337  0  0.063772  0.108893  0  3.971967  0
C  C106  1  0.68554228  0.02415491  0.08133611  1  0  -0.126404  0  3.747623  0  0  -0.140435  0  4.006407  0  0  -0.147819  0  4.027969  0  -0.042938  0  -0.082877  -0.135647  0  3.991985  0
C  C107  1  0.31446172  0.97584349  0.91866468  1  0  -0.126515  0  3.747711  0  0  -0.140508  0  4.006477  0  0  -0.147896  0  4.028048  0  -0.042919  0  -0.082965  -0.135719  0  3.992056  0
C  C108  1  0.56798249  0.90986770  0.07286489  1  0  -0.033222  0  3.668621  0  0  -0.058683  0  3.917149  0  0  -0.056259  0  3.936265  0  -0.030909  0  -0.05842  -0.060036  0  3.904195  0
C  C109  1  0.43201731  0.09012973  0.92713757  1  0  -0.033209  0  3.668639  0  0  -0.05865  0  3.917117  0  0  -0.056227  0  3.936211  0  -0.030936  0  -0.058398  -0.060003  0  3.904164  0
C  C110  1  0.50399771  0.90867691  0.14451475  1  0  0.020249  0  3.796481  0  0  0.036067  0  4.029075  0  0  0.032953  0  4.054343  0  -0.022842  0  -0.000609  0.03806  0  4.011985  0
C  C111  1  0.49600356  0.09132150  0.85548673  1  0  0.020146  0  3.796453  0  0  0.035955  0  4.029057  0  0  0.032843  0  4.054326  0  -0.022825  0  -0.000702  0.037948  0  4.01197  0
C  C112  1  0.56568041  0.02709485  0.22396828  1  0  0.152153  0  3.730324  0  0  0.147766  0  3.968554  0  0  0.152635  0  3.988334  0  0.496835  0  0.128371  0.144429  0  3.955144  0
C  C113  1  0.43432177  0.97290355  0.77603346  1  0  0.152217  0  3.73024  0  0  0.147833  0  3.968462  0  0  0.152698  0  3.988246  0  0.496989  0  0.128397  0.144496  0  3.955054  0
C  C114  1  0.50314982  0.02971030  0.29878580  1  0  0.14661  0  3.738346  0  0  0.141059  0  3.976993  0  0  0.145385  0  3.997511  0  0.487604  0  0.128761  0.138195  0  3.963076  0
C  C115  1  0.49684999  0.97028712  0.70121520  1  0  0.146545  0  3.738554  0  0  0.141011  0  3.977173  0  0  0.145342  0  3.997694  0  0.487677  0  0.128743  0.138147  0  3.963257  0
C  C116  1  0.37884300  0.91451197  0.28971518  1  0  0.017031  0  3.7845  0  0  0.035157  0  4.012815  0  0  0.032267  0  4.037502  0  -0.044509  0  -0.001198  0.036895  0  3.996311  0
C  C117  1  0.62115902  0.08548935  0.71028818  1  0  0.017054  0  3.784457  0  0  0.035168  0  4.012779  0  0  0.032275  0  4.037468  0  -0.044347  0  -0.001192  0.036906  0  3.996267  0
C  C118  1  0.31917052  0.92206598  0.36301698  1  0  -0.040514  0  3.672473  0  0  -0.065099  0  3.923957  0  0  -0.062743  0  3.941858  0  -0.056528  0  -0.057263  -0.066475  0  3.911726  0
C  C119  1  0.68083205  0.07793632  0.63698661  1  0  -0.040534  0  3.672411  0  0  -0.06511  0  3.923919  0  0  -0.062752  0  3.941822  0  -0.056927  0  -0.057314  -0.066484  0  3.911688  0
C  C120  1  0.38135222  0.03879909  0.43841617  1  0  -0.104261  0  3.714577  0  0  -0.119477  0  3.969394  0  0  -0.125858  0  3.990603  0  -0.00399  0  -0.076585  -0.115231  0  3.955238  0
C  C121  1  0.61865146  0.96120516  0.56158786  1  0  -0.104105  0  3.714506  0  0  -0.119326  0  3.969336  0  0  -0.125707  0  3.990541  0  -0.004058  0  -0.076484  -0.115087  0  3.955177  0
C  C122  1  0.50562848  0.14659188  0.44257519  1  0  0.151131  0  3.713249  0  0  0.12178  0  3.974021  0  0  0.129394  0  3.989859  0  0.510336  0  0.063526  0.116995  0  3.962907  0
C  C123  1  0.49437409  0.85341042  0.55742621  1  0  0.151101  0  3.713294  0  0  0.121718  0  3.974077  0  0  0.129353  0  3.989926  0  0.510749  0  0.063526  0.116933  0  3.962966  0
C  C124  1  0.38049606  0.79423733  0.13904916  1  0  -0.106756  0  3.757057  0  0  -0.128009  0  4.00811  0  0  -0.131475  0  4.031074  0  -0.034718  0  -0.084573  -0.125564  0  3.992665  0
C  C125  1  0.61950612  0.20576108  0.86095258  1  0  -0.106623  0  3.757138  0  0  -0.127882  0  4.008198  0  0  -0.131349  0  4.031165  0  -0.034651  0  -0.084502  -0.125444  0  3.992736  0
C  C126  1  0.32000016  0.79723671  0.20867208  1  0  -0.093486  0  3.747671  0  0  -0.113131  0  3.992732  0  0  -0.115796  0  4.016301  0  -0.011562  0  -0.082883  -0.111427  0  3.977221  0
C  C127  1  0.68000039  0.20276364  0.79133080  1  0  -0.093524  0  3.747823  0  0  -0.113164  0  3.992883  0  0  -0.11583  0  4.016454  0  -0.011393  0  -0.082883  -0.111433  0  3.977388  0
N  N128  1  0.68144358  0.13863931  0.23123980  1  0  -0.421776  0  3.229922  0  0  -0.37254  0  3.500844  0  0  -0.385704  0  3.516286  0  -1.234735  0  -0.372129  -0.363408  0  3.490406  0
N  N129  1  0.31855860  0.86135909  0.76876121  1  0  -0.42175  0  3.229928  0  0  -0.372527  0  3.500858  0  0  -0.385691  0  3.516303  0  -1.234867  0  -0.372117  -0.363391  0  3.490419  0
N  N130  1  0.56540296  0.14281877  0.37550498  1  0  -0.411076  0  3.228971  0  0  -0.360918  0  3.493996  0  0  -0.374845  0  3.51142  0  -1.219413  0  -0.359105  -0.351161  0  3.481906  0
N  N131  1  0.43459724  0.85718255  0.62449714  1  0  -0.410992  0  3.229079  0  0  -0.36085  0  3.494133  0  0  -0.37477  0  3.51153  0  -1.21974  0  -0.359078  -0.351093  0  3.482044  0
O  O132  1  0.95066305  0.59325208  0.44637814  1  0  -0.812482  0  2.134192  0  0  -0.748554  0  2.39578  0  0  -0.773617  0  2.382385  0  -1.221947  0  -0.429408  -0.730449  0  2.40438  0
O  O133  1  0.04933841  0.40674827  0.55362208  1  0  -0.812508  0  2.134251  0  0  -0.748559  0  2.395801  0  0  -0.773618  0  2.382404  0  -1.221957  0  -0.429429  -0.730455  0  2.404402  0
O  O134  1  0.13451162  0.79650392  0.52931914  1  0  -0.67913  0  1.926346  0  0  -0.634662  0  2.163788  0  0  -0.657777  0  2.154834  0  -1.195863  0  -0.367524  -0.618255  0  2.169695  0
O  O135  1  0.86548529  0.20349643  0.47067907  1  0  -0.679099  0  1.926209  0  0  -0.634627  0  2.163663  0  0  -0.657737  0  2.15471  0  -1.195875  0  -0.367551  -0.61822  0  2.169569  0
O  O136  1  0.77821780  0.42506130  0.20999066  1  0  -0.680717  0  2.050484  0  0  -0.633334  0  2.304185  0  0  -0.654761  0  2.291411  0  -1.198372  0  -0.361171  -0.618182  0  2.312478  0
O  O137  1  0.22178145  0.57493516  0.79001158  1  0  -0.680571  0  2.050878  0  0  -0.633217  0  2.304513  0  0  -0.654652  0  2.291757  0  -1.198717  0  -0.361113  -0.618055  0  2.312782  0
O  O138  1  0.57876788  0.40531387  0.08707663  1  0  -0.568546  0  2.089183  0  0  -0.509608  0  2.306862  0  0  -0.533469  0  2.292016  0  -1.1792  0  -0.320251  -0.493233  0  2.316717  0
O  O139  1  0.42123232  0.59468746  0.91292402  1  0  -0.568524  0  2.089185  0  0  -0.509633  0  2.30684  0  0  -0.533483  0  2.291978  0  -1.179012  0  -0.320272  -0.49326  0  2.316695  0
O  O140  1  0.78964097  0.41592866  0.55389298  1  0  -0.729187  0  1.991221  0  0  -0.675651  0  2.244413  0  0  -0.699624  0  2.230799  0  -1.220459  0  -0.398324  -0.658411  0  2.253251  0
O  O141  1  0.21035665  0.58406974  0.44610675  1  0  -0.729136  0  1.991161  0  0  -0.675592  0  2.244433  0  0  -0.699564  0  2.230814  0  -1.220427  0  -0.398298  -0.658348  0  2.253271  0
O  O142  1  0.99976218  0.59924403  0.66358421  1  0  -0.714568  0  2.045489  0  0  -0.661831  0  2.302934  0  0  -0.686151  0  2.290882  0  -1.196662  0  -0.388798  -0.643934  0  2.310557  0
O  O143  1  0.00023127  0.40075827  0.33641316  1  0  -0.714531  0  2.045451  0  0  -0.661786  0  2.303001  0  0  -0.686111  0  2.290953  0  -1.196699  0  -0.388714  -0.643886  0  2.310625  0
O  O144  1  0.57006204  0.76826505  0.85188038  1  0  -0.612283  0  1.965198  0  0  -0.562473  0  2.192172  0  0  -0.586846  0  2.181247  0  -1.177947  0  -0.323227  -0.545847  0  2.199545  0
O  O145  1  0.42993776  0.23173238  0.14812136  1  0  -0.612213  0  1.96517  0  0  -0.562379  0  2.19218  0  0  -0.586752  0  2.181251  0  -1.177905  0  -0.323174  -0.54575  0  2.199551  0
O  O146  1  0.42074503  0.62957896  0.68475131  1  0  -0.73173  0  2.000782  0  0  -0.679068  0  2.255137  0  0  -0.702248  0  2.242034  0  -1.215156  0  -0.390804  -0.662363  0  2.264083  0
O  O147  1  0.57925607  0.37042236  0.31524888  1  0  -0.73175  0  2.000658  0  0  -0.679073  0  2.255068  0  0  -0.702254  0  2.241958  0  -1.215103  0  -0.390827  -0.662369  0  2.26401  0
