# generated using pymatgen
data_LaH18C14N3O7
_symmetry_space_group_name_H-M   'P 1'
_cell_length_a   8.80026949
_cell_length_b   13.46858504
_cell_length_c   15.21217192
_cell_angle_alpha   90.00040891
_cell_angle_beta   89.99991830
_cell_angle_gamma   108.26186572
_symmetry_Int_Tables_number   1
_chemical_formula_structural   LaH18C14N3O7
_chemical_formula_sum   'La4 H72 C56 N12 O28'
_cell_volume   1712.24355233
_cell_formula_units_Z   4
loop_
 _symmetry_equiv_pos_site_id
 _symmetry_equiv_pos_as_xyz
  1  'x, y, z'
loop_
 _atom_site_type_symbol
 _atom_site_label
 _atom_site_symmetry_multiplicity
 _atom_site_fract_x
 _atom_site_fract_y
 _atom_site_fract_z
 _atom_site_occupancy
 _atom_site_pbe_bader_charge
 _atom_site_pbe_bader_spin_density
 _atom_site_pbe_cm5_charge
 _atom_site_pbe_ddec_charge
 _atom_site_pbe_ddec_spin_density
 _atom_site_pbe_ddec_sum_bond_order
 _atom_site_pbe_magmom
La  La0  1  0.80632367  0.51465009  0.92310948  1  2.200284  0  1.375888  1.711114  0  2.431191  0
La  La1  1  0.69367805  0.98535669  0.42310943  1  2.200235  0  1.375825  1.711002  0  2.431375  0
La  La2  1  0.19367527  0.48535877  0.07689120  1  2.200271  0  1.375843  1.711017  0  2.431461  0
La  La3  1  0.30632506  0.01464200  0.57688928  1  2.200271  0  1.375807  1.711069  0  2.431285  0
H  H4  1  0.79090621  0.44938553  0.12113438  1  0.648593  0  0.294154  0.387736  0  0.955385  0
H  H5  1  0.70909374  0.05061386  0.62113276  1  0.64861  0  0.294115  0.387696  0  0.955458  0
H  H6  1  0.20909765  0.55061472  0.87886630  1  0.648619  0  0.294124  0.38769  0  0.955454  0
H  H7  1  0.29090407  0.94938562  0.37886726  1  0.648619  0  0.294125  0.387701  0  0.955448  0
H  H8  1  0.63119856  0.48080673  0.09574960  1  0.637659  0  0.297309  0.380967  0  0.957397  0
H  H9  1  0.86879568  0.01918775  0.59575029  1  0.637623  0  0.297291  0.380977  0  0.9574  0
H  H10  1  0.36880115  0.51919196  0.90424910  1  0.637597  0  0.297277  0.380949  0  0.957404  0
H  H11  1  0.13120515  0.98081094  0.40424842  1  0.637675  0  0.297292  0.380991  0  0.957369  0
H  H12  1  0.56236587  0.18945420  0.80444501  1  0.010291  0  0.104244  0.081129  0  1.036966  0
H  H13  1  0.93764266  0.31054278  0.30444104  1  0.010119  0  0.104238  0.081097  0  1.036994  0
H  H14  1  0.43763913  0.81054839  0.19556093  1  0.010227  0  0.104236  0.081111  0  1.037029  0
H  H15  1  0.06236007  0.68945513  0.69556095  1  0.010282  0  0.104222  0.081105  0  1.036952  0
H  H16  1  0.48370288  0.29439646  0.80790379  1  0.055305  0  0.107372  0.081142  0  1.037632  0
H  H17  1  0.01630685  0.20560622  0.30790145  1  0.055262  0  0.10735  0.081103  0  1.037587  0
H  H18  1  0.51630401  0.70560535  0.19210084  1  0.055311  0  0.107355  0.081109  0  1.037553  0
H  H19  1  0.98369285  0.79439247  0.69209792  1  0.055259  0  0.107352  0.081111  0  1.037578  0
H  H20  1  0.67905744  0.29508847  0.68510666  1  0.114174  0  0.106936  0.103761  0  1.004531  0
H  H21  1  0.82094941  0.20490439  0.18510276  1  0.113745  0  0.106958  0.103676  0  1.004538  0
H  H22  1  0.32094378  0.70490865  0.31489731  1  0.113998  0  0.106962  0.103753  0  1.004626  0
H  H23  1  0.17905143  0.79509430  0.81489594  1  0.113753  0  0.106977  0.103743  0  1.004551  0
H  H24  1  0.83204602  0.31561615  0.76531809  1  0.035212  0  0.112177  0.091629  0  0.984012  0
H  H25  1  0.66796586  0.18438050  0.26531418  1  0.035401  0  0.112162  0.091621  0  0.984052  0
H  H26  1  0.16795709  0.68438253  0.23468391  1  0.035239  0  0.112163  0.091637  0  0.984044  0
H  H27  1  0.33203460  0.81562210  0.73468452  1  0.035364  0  0.112156  0.0916  0  0.984131  0
H  H28  1  0.53573860  0.27612564  0.03518171  1  0.100628  0  0.123161  0.134418  0  0.977337  0
H  H29  1  0.96426615  0.22388085  0.53518164  1  0.100624  0  0.123139  0.134356  0  0.97736  0
H  H30  1  0.46426602  0.72387617  0.96482029  1  0.100588  0  0.12314  0.134351  0  0.977321  0
H  H31  1  0.03573923  0.77611549  0.46481838  1  0.100631  0  0.123143  0.134424  0  0.97723  0
H  H32  1  0.40991911  0.20123746  0.95123020  1  0.055173  0  0.102884  0.097956  0  0.982798  0
H  H33  1  0.09008930  0.29876798  0.45122970  1  0.055039  0  0.10283  0.097877  0  0.982947  0
H  H34  1  0.59008513  0.79876827  0.04877048  1  0.055077  0  0.102846  0.097899  0  0.982845  0
H  H35  1  0.90991646  0.70122913  0.54876900  1  0.055037  0  0.102838  0.097927  0  0.982871  0
H  H36  1  0.79504780  0.20472297  0.88335941  1  0.075292  0  0.118846  0.124515  0  0.999457  0
H  H37  1  0.70495666  0.29527311  0.38335486  1  0.075556  0  0.118855  0.124496  0  0.99953  0
H  H38  1  0.20495114  0.79527416  0.11664324  1  0.075499  0  0.118835  0.124488  0  0.999562  0
H  H39  1  0.29505061  0.70472713  0.61664582  1  0.075512  0  0.118825  0.124443  0  0.999529  0
H  H40  1  0.67423961  0.16265331  0.97594308  1  0.060439  0  0.107085  0.105916  0  0.977798  0
H  H41  1  0.82577141  0.33734979  0.47593871  1  0.060368  0  0.107118  0.105936  0  0.977741  0
H  H42  1  0.32576653  0.83734928  0.02406220  1  0.060426  0  0.107112  0.105929  0  0.977736  0
H  H43  1  0.17422791  0.66264577  0.52406329  1  0.060355  0  0.107101  0.105901  0  0.977789  0
H  H44  1  0.88220615  0.56097798  0.66074535  1  0.038595  0  0.112152  0.102923  0  1.01727  0
H  H45  1  0.61779295  0.93901253  0.16074507  1  0.038465  0  0.112093  0.102846  0  1.017209  0
H  H46  1  0.11778599  0.43901681  0.33925599  1  0.03848  0  0.112138  0.102926  0  1.017219  0
H  H47  1  0.38220259  0.06098929  0.83925430  1  0.038852  0  0.112085  0.102807  0  1.017278  0
H  H48  1  0.89692766  0.43613926  0.63747937  1  0.061035  0  0.107077  0.104082  0  0.982715  0
H  H49  1  0.60307686  0.06385320  0.13748067  1  0.060988  0  0.107093  0.104082  0  0.982782  0
H  H50  1  0.10307243  0.56385551  0.36252394  1  0.060929  0  0.107068  0.104036  0  0.982774  0
H  H51  1  0.39691944  0.93615019  0.86252067  1  0.061051  0  0.107115  0.104115  0  0.982797  0
H  H52  1  0.50717828  0.43363069  0.75318094  1  0.085265  0  0.116057  0.10589  0  1.020215  0
H  H53  1  0.99282980  0.06636038  0.25317669  1  0.085377  0  0.116057  0.105847  0  1.020228  0
H  H54  1  0.49282635  0.56637112  0.24682500  1  0.08542  0  0.116088  0.105871  0  1.020221  0
H  H55  1  0.00716347  0.93363675  0.74682136  1  0.085202  0  0.116075  0.105908  0  1.020149  0
H  H56  1  0.58782556  0.45351623  0.64532326  1  0.064149  0  0.106552  0.098499  0  0.964674  0
H  H57  1  0.91218199  0.04647786  0.14531961  1  0.064076  0  0.106542  0.098465  0  0.964689  0
H  H58  1  0.41217679  0.54648324  0.35468268  1  0.064027  0  0.106541  0.098508  0  0.964589  0
H  H59  1  0.08781317  0.95352318  0.85467647  1  0.064154  0  0.106529  0.098478  0  0.964729  0
H  H60  1  0.53113895  0.61507086  0.60665410  1  0.086979  0  0.112679  0.12632  0  0.981201  0
H  H61  1  0.96885780  0.88492391  0.10665058  1  0.087083  0  0.11265  0.12632  0  0.981039  0
H  H62  1  0.46884599  0.38492317  0.39334987  1  0.087071  0  0.112667  0.126372  0  0.981106  0
H  H63  1  0.03114796  0.11507790  0.89334813  1  0.087194  0  0.112653  0.12635  0  0.981112  0
H  H64  1  0.58155128  0.80596287  0.63645648  1  0.11962  0  0.114255  0.108361  0  1.020321  0
H  H65  1  0.91843416  0.69402747  0.13645507  1  0.119532  0  0.114214  0.108366  0  1.020357  0
H  H66  1  0.41843480  0.19403115  0.36353894  1  0.119628  0  0.114198  0.108333  0  1.020404  0
H  H67  1  0.08156629  0.30597513  0.86354298  1  0.119518  0  0.11419  0.108324  0  1.020333  0
H  H68  1  0.71633198  0.88255547  0.77721369  1  0.164697  0  0.105903  0.125923  0  1.038634  0
H  H69  1  0.78364229  0.61743840  0.27721388  1  0.164726  0  0.10589  0.125949  0  1.038568  0
H  H70  1  0.28365561  0.11744402  0.22277976  1  0.164688  0  0.105881  0.125865  0  1.038571  0
H  H71  1  0.21635741  0.38256263  0.72278483  1  0.164926  0  0.105879  0.125873  0  1.038573  0
H  H72  1  0.80627828  0.76528040  0.87974960  1  0.149359  0  0.122312  0.094078  0  1.013604  0
H  H73  1  0.69371127  0.73472213  0.37975125  1  0.149287  0  0.122328  0.094142  0  1.013597  0
H  H74  1  0.19372179  0.23473081  0.12024517  1  0.149322  0  0.122369  0.094171  0  1.013599  0
H  H75  1  0.30628541  0.26527500  0.62024417  1  0.149261  0  0.122384  0.094195  0  1.013511  0
C  C76  1  0.59340916  0.27359806  0.81745327  1  0.294328  0  -0.073644  -0.098251  0  3.920791  0
C  C77  1  0.90659824  0.22640138  0.31745142  1  0.294602  0  -0.073599  -0.098109  0  3.920635  0
C  C78  1  0.40659432  0.72640375  0.18254938  1  0.294341  0  -0.073605  -0.098167  0  3.920548  0
C  C79  1  0.09340411  0.77359809  0.68254860  1  0.294416  0  -0.073593  -0.098163  0  3.92054  0
C  C80  1  0.71778808  0.32942705  0.75048269  1  0.25502  0  -0.069264  -0.093969  0  3.890588  0
C  C81  1  0.78222453  0.17057103  0.25048058  1  0.2553  0  -0.069335  -0.09394  0  3.890857  0
C  C82  1  0.28221351  0.67057320  0.24952062  1  0.255217  0  -0.069312  -0.094039  0  3.890677  0
C  C83  1  0.21777934  0.82942921  0.74952010  1  0.255337  0  -0.069352  -0.093935  0  3.890896  0
C  C84  1  0.50145059  0.27706990  0.96589695  1  0.260756  0  -0.070303  -0.239795  0  3.935726  0
C  C85  1  0.99855285  0.22293627  0.46589632  1  0.260802  0  -0.070182  -0.239617  0  3.935886  0
C  C86  1  0.49855100  0.72293270  0.03410571  1  0.260925  0  -0.070212  -0.239653  0  3.935718  0
C  C87  1  0.00144609  0.77706321  0.53410239  1  0.260865  0  -0.070172  -0.239724  0  3.935721  0
C  C88  1  0.42532605  0.36377451  0.95766963  1  1.577269  0  0.227783  0.632271  0  4.14548  0
C  C89  1  0.07468313  0.13623254  0.45767404  1  1.577649  0  0.227673  0.632129  0  4.145696  0
C  C90  1  0.57467933  0.63623121  0.04232579  1  1.577318  0  0.227764  0.632257  0  4.145866  0
C  C91  1  0.92531847  0.86376536  0.54232007  1  1.577456  0  0.227768  0.632394  0  4.145346  0
C  C92  1  0.74482181  0.23347131  0.94065706  1  0.271662  0  -0.066921  -0.227736  0  3.884358  0
C  C93  1  0.75517706  0.26652995  0.44065689  1  0.271472  0  -0.066978  -0.227849  0  3.884372  0
C  C94  1  0.25517221  0.76652973  0.05934362  1  0.271785  0  -0.066954  -0.227829  0  3.884391  0
C  C95  1  0.24482643  0.73346717  0.55934247  1  0.271484  0  -0.066916  -0.227688  0  3.884348  0
C  C96  1  0.88667847  0.29399762  0.99767667  1  1.569407  0  0.216203  0.620915  0  4.159152  0
C  C97  1  0.61332918  0.20599862  0.49767623  1  1.569527  0  0.216395  0.621436  0  4.158583  0
C  C98  1  0.11332653  0.70600028  0.00232467  1  1.569138  0  0.216386  0.621319  0  4.15885  0
C  C99  1  0.38667014  0.79400163  0.50232117  1  1.569434  0  0.21634  0.621214  0  4.158906  0
C  C100  1  0.89155600  0.48930483  0.69170782  1  0.256389  0  -0.071821  -0.236727  0  3.942262  0
C  C101  1  0.60844518  0.01068810  0.19171010  1  0.256621  0  -0.071809  -0.236637  0  3.942089  0
C  C102  1  0.10844446  0.51069308  0.30829286  1  0.256589  0  -0.071844  -0.236724  0  3.942248  0
C  C103  1  0.39155149  0.98931373  0.80829321  1  0.256439  0  -0.071837  -0.236614  0  3.942186  0
C  C104  1  0.05081228  0.52055508  0.74141910  1  1.593509  0  0.203844  0.601039  0  4.2126  0
C  C105  1  0.44919116  0.97944568  0.24142013  1  1.593254  0  0.203906  0.601144  0  4.212581  0
C  C106  1  0.94918591  0.47944283  0.25858093  1  1.593312  0  0.203907  0.601045  0  4.212653  0
C  C107  1  0.55080968  0.02055536  0.75857990  1  1.593176  0  0.203954  0.601287  0  4.212462  0
C  C108  1  0.61409709  0.47530812  0.71501094  1  0.246622  0  -0.059392  -0.155069  0  3.910783  0
C  C109  1  0.88590639  0.02468969  0.21500717  1  0.246638  0  -0.059367  -0.154907  0  3.910656  0
C  C110  1  0.38590223  0.52468979  0.28499303  1  0.246555  0  -0.059401  -0.155034  0  3.910482  0
C  C111  1  0.11408915  0.97530979  0.78498891  1  0.246567  0  -0.059356  -0.154979  0  3.910549  0
C  C112  1  0.64316352  0.59108198  0.72780171  1  0.523829  0  0.125265  0.23985  0  3.961122  0
C  C113  1  0.85683756  0.90891535  0.22779908  1  0.523699  0  0.125151  0.239691  0  3.961275  0
C  C114  1  0.35683921  0.40891358  0.27220160  1  0.524031  0  0.125219  0.239803  0  3.96133  0
C  C115  1  0.14315874  0.09108334  0.77219963  1  0.524204  0  0.125185  0.239819  0  3.961309  0
C  C116  1  0.59152805  0.65100253  0.66662788  1  -0.024277  0  -0.080988  -0.170684  0  3.92683  0
C  C117  1  0.90848240  0.84899740  0.16663469  1  -0.02424  0  -0.080849  -0.17063  0  3.926676  0
C  C118  1  0.40847430  0.34900164  0.33336820  1  -0.024265  0  -0.08094  -0.170745  0  3.926739  0
C  C119  1  0.09152184  0.15100362  0.83336599  1  -0.024324  0  -0.080871  -0.170726  0  3.926612  0
C  C120  1  0.61748676  0.75683205  0.68373490  1  -0.06024  0  -0.065588  -0.015493  0  3.956875  0
C  C121  1  0.88250556  0.74316102  0.18373449  1  -0.060262  0  -0.065559  -0.015412  0  3.956716  0
C  C122  1  0.38250160  0.24315962  0.31626381  1  -0.060391  0  -0.065558  -0.015408  0  3.956537  0
C  C123  1  0.11749717  0.25684158  0.81626225  1  -0.060261  0  -0.065537  -0.015316  0  3.956473  0
C  C124  1  0.69453636  0.80025195  0.76129789  1  -0.119457  0  -0.091085  -0.148845  0  3.960598  0
C  C125  1  0.80545833  0.69974646  0.26130121  1  -0.119779  0  -0.091104  -0.148923  0  3.960812  0
C  C126  1  0.30545540  0.19975615  0.23869424  1  -0.119404  0  -0.091102  -0.148929  0  3.961109  0
C  C127  1  0.19455083  0.30025300  0.73869750  1  -0.120053  0  -0.091107  -0.148915  0  3.960929  0
C  C128  1  0.74386696  0.73577890  0.81855708  1  0.422225  0  0.052767  0.108286  0  3.95522  0
C  C129  1  0.75612743  0.76421685  0.31855822  1  0.422416  0  0.052771  0.108207  0  3.955279  0
C  C130  1  0.25612896  0.26421902  0.18144031  1  0.422244  0  0.052796  0.10832  0  3.95535  0
C  C131  1  0.24387454  0.23578183  0.68144049  1  0.422596  0  0.052779  0.108254  0  3.9552  0
N  N132  1  0.64422771  0.29622411  0.91019419  1  -1.021633  0  -0.366855  -0.118842  0  3.480638  0
N  N133  1  0.85578020  0.20377923  0.41019158  1  -1.021521  0  -0.36688  -0.118917  0  3.480692  0
N  N134  1  0.35577351  0.70378006  0.08980912  1  -1.021516  0  -0.366841  -0.118778  0  3.48042  0
N  N135  1  0.14422329  0.79621788  0.58980647  1  -1.021499  0  -0.366848  -0.118925  0  3.480488  0
N  N136  1  0.75061575  0.44432902  0.74794231  1  -1.031208  0  -0.370812  -0.139845  0  3.489854  0
N  N137  1  0.74939459  0.05567140  0.24794082  1  -1.031431  0  -0.370719  -0.139846  0  3.489937  0
N  N138  1  0.24938509  0.55567201  0.25206232  1  -1.031225  0  -0.370763  -0.139812  0  3.489908  0
N  N139  1  0.25060966  0.94432963  0.75205789  1  -1.03139  0  -0.370776  -0.140007  0  3.490091  0
N  N140  1  0.71920800  0.63367347  0.80241246  1  -1.254306  0  -0.373944  -0.345169  0  3.418584  0
N  N141  1  0.78079394  0.86632840  0.30241356  1  -1.254101  0  -0.373904  -0.345088  0  3.418248  0
N  N142  1  0.28079170  0.36633227  0.19758822  1  -1.254542  0  -0.373971  -0.345172  0  3.418192  0
N  N143  1  0.21920160  0.13366874  0.69758712  1  -1.2545  0  -0.373973  -0.345237  0  3.418378  0
O  O144  1  0.50008800  0.44466940  0.91219903  1  -1.203775  0  -0.355739  -0.600947  0  2.291406  0
O  O145  1  0.99991158  0.05533319  0.41220063  1  -1.203662  0  -0.355746  -0.600999  0  2.29127  0
O  O146  1  0.49991473  0.55533085  0.08780362  1  -1.20354  0  -0.35579  -0.601086  0  2.291201  0
O  O147  1  0.00008850  0.94466628  0.58779545  1  -1.203418  0  -0.355914  -0.601227  0  2.291072  0
O  O148  1  0.29529613  0.35191622  0.99758373  1  -1.203187  0  -0.360763  -0.592188  0  2.28178  0
O  O149  1  0.20469720  0.14809120  0.49758351  1  -1.203651  0  -0.360698  -0.592032  0  2.281977  0
O  O150  1  0.70468540  0.64809424  0.00242024  1  -1.203517  0  -0.360762  -0.592122  0  2.282376  0
O  O151  1  0.79530817  0.85190748  0.50240928  1  -1.20371  0  -0.36065  -0.592077  0  2.281938  0
O  O152  1  0.95060732  0.39272954  0.97843052  1  -1.226112  0  -0.437286  -0.65832  0  2.33132  0
O  O153  1  0.54940220  0.10726810  0.47842885  1  -1.226295  0  -0.437314  -0.658438  0  2.331307  0
O  O154  1  0.04940185  0.60727226  0.02157476  1  -1.226194  0  -0.4373  -0.658376  0  2.331391  0
O  O155  1  0.45060394  0.89273214  0.52156920  1  -1.226167  0  -0.437271  -0.658351  0  2.33137  0
O  O156  1  0.94081685  0.24852043  0.05517072  1  -1.180326  0  -0.307417  -0.550051  0  2.11686  0
O  O157  1  0.55919625  0.25147759  0.55517508  1  -1.180188  0  -0.30756  -0.55036  0  2.116543  0
O  O158  1  0.05919571  0.75148136  0.94482536  1  -1.18032  0  -0.307598  -0.550362  0  2.116645  0
O  O159  1  0.44079324  0.74851877  0.44481968  1  -1.180253  0  -0.307559  -0.55025  0  2.116702  0
O  O160  1  0.04135432  0.53612738  0.82512975  1  -1.219094  0  -0.384653  -0.621418  0  2.308967  0
O  O161  1  0.45863636  0.96387331  0.32513002  1  -1.218902  0  -0.384638  -0.621452  0  2.309055  0
O  O162  1  0.95863971  0.46387132  0.17486962  1  -1.21894  0  -0.384686  -0.621434  0  2.309054  0
O  O163  1  0.54136372  0.03612850  0.67487067  1  -1.219107  0  -0.384646  -0.621502  0  2.309049  0
O  O164  1  0.17697509  0.53304514  0.69958745  1  -1.191229  0  -0.336183  -0.553505  0  2.096301  0
O  O165  1  0.32302602  0.96695762  0.19958785  1  -1.19116  0  -0.336224  -0.553556  0  2.096186  0
O  O166  1  0.82302007  0.46695356  0.30041060  1  -1.191208  0  -0.336193  -0.553487  0  2.096295  0
O  O167  1  0.67697520  0.03304185  0.80041678  1  -1.191192  0  -0.336225  -0.553609  0  2.096113  0
O  O168  1  0.70499716  0.44275406  0.07585157  1  -1.298945  0  -0.63022  -0.80178  0  2.096451  0
O  O169  1  0.79501294  0.05725197  0.57585387  1  -1.298903  0  -0.630158  -0.801744  0  2.096423  0
O  O170  1  0.29501162  0.55725400  0.92414582  1  -1.298847  0  -0.630136  -0.801699  0  2.096447  0
O  O171  1  0.20498638  0.94274594  0.42414615  1  -1.298954  0  -0.63017  -0.801782  0  2.096481  0
