# generated using pymatgen
data_AlH6C24(BrO)6
_symmetry_space_group_name_H-M   'P 1'
_cell_length_a   3.99194411
_cell_length_b   29.03209694
_cell_length_c   29.03396121
_cell_angle_alpha   120.00053302
_cell_angle_beta   89.99638078
_cell_angle_gamma   90.00112455
_symmetry_Int_Tables_number   1
_chemical_formula_structural   AlH6C24(BrO)6
_chemical_formula_sum   'Al2 H12 C48 Br12 O12'
_cell_volume   2914.05300961
_cell_formula_units_Z   2
loop_
 _symmetry_equiv_pos_site_id
 _symmetry_equiv_pos_as_xyz
  1  'x, y, z'
loop_
 _atom_site_type_symbol
 _atom_site_label
 _atom_site_symmetry_multiplicity
 _atom_site_fract_x
 _atom_site_fract_y
 _atom_site_fract_z
 _atom_site_occupancy
 _atom_site_pbe_bader_charge
 _atom_site_pbe_bader_spin_density
 _atom_site_pbe_cm5_charge
 _atom_site_pbe_ddec_charge
 _atom_site_pbe_ddec_spin_density
 _atom_site_pbe_ddec_sum_bond_order
 _atom_site_pbe_magmom
Al  Al0  1  0.00072319  0.49999644  0.49999121  1  2.505383  0  0.429746  1.598917  0  2.57239  0
Al  Al1  1  0.00016751  0.16667439  0.83335557  1  2.505055  0  0.42984  1.599432  0  2.571802  0
H  H2  1  0.27588118  0.17236661  0.69257453  1  0.122912  0  0.114082  0.136234  0  0.978415  0
H  H3  1  0.72422645  0.30739805  0.82759304  1  0.121423  0  0.114053  0.136086  0  0.978282  0
H  H4  1  0.72484835  0.35929736  0.50577093  1  0.120829  0  0.114043  0.135954  0  0.978269  0
H  H5  1  0.27572114  0.49428124  0.64074844  1  0.122029  0  0.114024  0.13618  0  0.978367  0
H  H6  1  0.27546453  0.02021091  0.82764900  1  0.113919  0  0.114  0.135869  0  0.978406  0
H  H7  1  0.72401541  0.02018088  0.69261071  1  0.120402  0  0.114082  0.136214  0  0.977781  0
H  H8  1  0.72473876  0.64649520  0.64070018  1  0.120111  0  0.114072  0.136006  0  0.978061  0
H  H9  1  0.27547394  0.64645219  0.50570906  1  0.115219  0  0.11397  0.135935  0  0.978579  0
H  H10  1  0.27546849  0.30743784  0.97979792  1  0.11805  0  0.11405  0.136009  0  0.978508  0
H  H11  1  0.72397945  0.17243056  0.97983907  1  0.11728  0  0.113986  0.136093  0  0.97827  0
H  H12  1  0.72481980  0.49419537  0.35348494  1  0.11724  0  0.114109  0.136049  0  0.978168  0
H  H13  1  0.27537731  0.35925864  0.35355214  1  0.118314  0  0.114  0.136027  0  0.978509  0
C  C14  1  0.50061843  0.45914242  0.41838981  1  1.547116  0  0.278909  0.656072  0  4.055401  0
C  C15  1  0.50057826  0.45924462  0.54084402  1  1.550971  0  0.278749  0.656124  0  4.055557  0
C  C16  1  0.50060560  0.58159980  0.54074666  1  1.54515  0  0.278761  0.656124  0  4.055032  0
C  C17  1  0.50016612  0.20744140  0.79251779  1  1.552254  0  0.278864  0.655722  0  4.056181  0
C  C18  1  0.50012375  0.08506988  0.79258254  1  1.542356  0  0.278712  0.655902  0  4.055567  0
C  C19  1  0.50005580  0.20751111  0.91495148  1  1.554423  0  0.279144  0.656166  0  4.055467  0
C  C20  1  0.50006841  0.23702996  0.76293332  1  0.177768  0  -0.004721  -0.000893  0  3.959677  0
C  C21  1  0.37419016  0.21267720  0.71100402  1  -0.00548  0  -0.089046  -0.155157  0  3.968715  0
C  C22  1  0.38189202  0.24007080  0.68320891  1  -0.131211  0  -0.007278  0.081625  0  3.927195  0
C  C23  1  0.50000649  0.29321104  0.70676592  1  0.189971  0  -0.007357  0.041073  0  4.075351  0
C  C24  1  0.61814352  0.31677000  0.75990078  1  -0.131091  0  -0.007293  0.081465  0  3.927191  0
C  C25  1  0.62590288  0.28896650  0.78728595  1  -0.004179  0  -0.088844  -0.154635  0  3.968617  0
C  C26  1  0.49999050  0.32119690  0.67878435  1  -0.042208  0  -0.041868  -0.06372  0  4.10697  0
C  C27  1  0.49999485  0.34545885  0.65454366  1  -0.257333  0  -0.041218  -0.063133  0  4.107124  0
C  C28  1  0.50004649  0.37344865  0.62656642  1  0.18885  0  -0.007712  0.040859  0  4.075889  0
C  C29  1  0.61846588  0.34990642  0.57344466  1  -0.130293  0  -0.007169  0.081345  0  3.927021  0
C  C30  1  0.62631797  0.37771515  0.54606590  1  -0.003622  0  -0.088975  -0.154681  0  3.968025  0
C  C31  1  0.50031774  0.42964292  0.57041339  1  0.176668  0  -0.004907  -0.000586  0  3.958474  0
C  C32  1  0.37414587  0.45397771  0.62232677  1  -0.002505  0  -0.088889  -0.155202  0  3.96874  0
C  C33  1  0.38172228  0.42657683  0.65011461  1  -0.131832  0  -0.007292  0.081494  0  3.927827  0
C  C34  1  0.49976006  0.02589709  0.76298422  1  0.064757  0  -0.004785  -0.000985  0  3.959295  0
C  C35  1  0.37363582  0.99832783  0.78733211  1  -0.04415  0  -0.088837  -0.154264  0  3.967813  0
C  C36  1  0.38098260  0.94313299  0.75992824  1  -0.041207  0  -0.007041  0.080798  0  3.928194  0
C  C37  1  0.49897993  0.91355700  0.70678507  1  0.117828  0  -0.008085  0.041315  0  4.075139  0
C  C38  1  0.61739355  0.94312433  0.68323184  1  -0.139945  0  -0.006595  0.081862  0  3.926299  0
C  C39  1  0.62549522  0.99831514  0.71104374  1  0.067936  0  -0.089207  -0.155113  0  3.967966  0
C  C40  1  0.49891435  0.85758298  0.67879696  1  0.055265  0  -0.041593  -0.063532  0  4.104734  0
C  C41  1  0.49899163  0.80908922  0.65453980  1  -0.172784  0  -0.041529  -0.063058  0  4.104735  0
C  C42  1  0.49915652  0.75311514  0.62655244  1  0.123325  0  -0.007747  0.04134  0  4.074985  0
C  C43  1  0.61778780  0.72354901  0.65009570  1  -0.138779  0  -0.007072  0.081382  0  3.926587  0
C  C44  1  0.62600400  0.66835911  0.62228074  1  0.068316  0  -0.088927  -0.154746  0  3.967939  0
C  C45  1  0.50014514  0.64077223  0.57035018  1  0.06413  0  -0.00465  -0.000546  0  3.958377  0
C  C46  1  0.37377567  0.66833796  0.54601578  1  -0.044467  0  -0.088994  -0.154637  0  3.968369  0
C  C47  1  0.38104081  0.72353352  0.57341679  1  -0.04747  0  -0.007153  0.080609  0  3.928146  0
C  C48  1  0.49976820  0.23708739  0.97411879  1  0.045397  0  -0.004788  -0.000948  0  3.959635  0
C  C49  1  0.37364032  0.28900686  0.00168253  1  0.07473  0  -0.088962  -0.15449  0  3.968237  0
C  C50  1  0.38104439  0.31679457  0.05687357  1  -0.141908  0  -0.007034  0.080773  0  3.928468  0
C  C51  1  0.49902573  0.29323148  0.08645131  1  0.216965  0  -0.007924  0.041411  0  4.074971  0
C  C52  1  0.61743746  0.24010596  0.05688787  1  -0.044889  0  -0.006426  0.082173  0  3.926326  0
C  C53  1  0.62548960  0.21273165  0.00170179  1  -0.042997  0  -0.08933  -0.155339  0  3.96885  0
C  C54  1  0.49896952  0.32120982  0.14241911  1  0.149293  0  -0.041679  -0.063551  0  4.104713  0
C  C55  1  0.49899812  0.34545696  0.19091398  1  -0.458211  0  -0.04156  -0.063302  0  4.104741  0
C  C56  1  0.49911726  0.37343633  0.24688282  1  0.21791  0  -0.007645  0.041726  0  4.074772  0
C  C57  1  0.61780805  0.42654544  0.27644295  1  -0.047272  0  -0.006897  0.081538  0  3.92672  0
C  C58  1  0.62604121  0.45391274  0.33162839  1  -0.041825  0  -0.089219  -0.155028  0  3.96846  0
C  C59  1  0.50016204  0.42957400  0.35922082  1  0.044191  0  -0.004617  -0.000604  0  3.958495  0
C  C60  1  0.37370257  0.37767462  0.33166051  1  0.07528  0  -0.089037  -0.154708  0  3.968123  0
C  C61  1  0.38097556  0.34988787  0.27646843  1  -0.142661  0  -0.007255  0.080572  0  3.928361  0
Br  Br62  1  0.77636060  0.38773876  0.79443841  1  -0.034855  0  0.035013  -0.050174  0  1.522911  0
Br  Br63  1  0.22367398  0.20553442  0.61224470  1  -0.034302  0  0.034951  -0.050261  0  1.522869  0
Br  Br64  1  0.22313479  0.46109556  0.72106084  1  -0.034759  0  0.035053  -0.050159  0  1.523126  0
Br  Br65  1  0.77690655  0.27894918  0.53891531  1  -0.034361  0  0.035073  -0.050109  0  1.522886  0
Br  Br66  1  0.77546212  0.90669198  0.61225540  1  -0.034429  0  0.034916  -0.050441  0  1.522474  0
Br  Br67  1  0.22259031  0.90670757  0.79445885  1  -0.032159  0  0.035014  -0.050081  0  1.523556  0
Br  Br68  1  0.22238959  0.75994590  0.53888910  1  -0.03247  0  0.03505  -0.049971  0  1.523333  0
Br  Br69  1  0.77607386  0.75997710  0.72105554  1  -0.034596  0  0.035026  -0.050248  0  1.522775  0
Br  Br70  1  0.77548460  0.20556270  0.09332296  1  -0.033662  0  0.034937  -0.050377  0  1.522544  0
Br  Br71  1  0.22268566  0.38775131  0.09328905  1  -0.034544  0  0.034999  -0.050074  0  1.523657  0
Br  Br72  1  0.22225320  0.27895211  0.24006519  1  -0.034346  0  0.034976  -0.050127  0  1.52371  0
Br  Br73  1  0.77618317  0.46107326  0.24000870  1  -0.03192  0  0.035009  -0.050294  0  1.52283  0
O  O74  1  0.73551248  0.55827617  0.55104111  1  -1.256597  0  -0.236772  -0.595415  0  2.358329  0
O  O75  1  0.73555432  0.49276014  0.44170488  1  -1.250214  0  -0.236912  -0.595461  0  2.358371  0
O  O76  1  0.73546230  0.44895290  0.50721969  1  -1.25427  0  -0.236787  -0.595499  0  2.358585  0
O  O77  1  0.26608164  0.55820635  0.50706886  1  -1.258714  0  -0.237211  -0.595548  0  2.357494  0
O  O78  1  0.26599613  0.49291557  0.55113026  1  -1.252921  0  -0.236976  -0.595339  0  2.35777  0
O  O79  1  0.26608241  0.44886229  0.44178678  1  -1.251914  0  -0.237037  -0.595312  0  2.357857  0
O  O80  1  0.73488100  0.17387423  0.89161883  1  -1.258432  0  -0.236877  -0.59545  0  2.357758  0
O  O81  1  0.73493293  0.21773951  0.82615757  1  -1.254733  0  -0.236996  -0.595483  0  2.358645  0
O  O82  1  0.73499049  0.10840384  0.78228921  1  -1.255201  0  -0.236635  -0.595257  0  2.357916  0
O  O83  1  0.26543445  0.21779417  0.89157459  1  -1.251089  0  -0.237287  -0.595494  0  2.35801  0
O  O84  1  0.26549535  0.10845021  0.82624890  1  -1.256589  0  -0.237312  -0.595658  0  2.357992  0
O  O85  1  0.26548567  0.17378556  0.78223318  1  -1.253624  0  -0.237258  -0.595384  0  2.358041  0
