# generated using pymatgen
data_CuH14C13IN4
_symmetry_space_group_name_H-M   'P 1'
_cell_length_a   4.11567380
_cell_length_b   11.35118134
_cell_length_c   14.70123428
_cell_angle_alpha   101.15146666
_cell_angle_beta   93.88094533
_cell_angle_gamma   96.60869054
_symmetry_Int_Tables_number   1
_chemical_formula_structural   CuH14C13IN4
_chemical_formula_sum   'Cu2 H28 C26 I2 N8'
_cell_volume   666.50738562
_cell_formula_units_Z   2
loop_
 _symmetry_equiv_pos_site_id
 _symmetry_equiv_pos_as_xyz
  1  'x, y, z'
loop_
 _atom_site_type_symbol
 _atom_site_label
 _atom_site_symmetry_multiplicity
 _atom_site_fract_x
 _atom_site_fract_y
 _atom_site_fract_z
 _atom_site_occupancy
 _atom_site_hle17_bader_spin_density
 _atom_site_hle17_ddec_charge
 _atom_site_hle17_ddec_spin_density
 _atom_site_hle17_ddec_sum_bond_order
 _atom_site_hle17_magmom
 _atom_site_hse06_10hf_bader_charge
 _atom_site_hse06_10hf_bader_spin_density
 _atom_site_hse06_10hf_ddec_charge
 _atom_site_hse06_10hf_ddec_spin_density
 _atom_site_hse06_10hf_ddec_sum_bond_order
 _atom_site_hse06_10hf_magmom
 _atom_site_hse06_bader_spin_density
 _atom_site_hse06_ddec_charge
 _atom_site_hse06_ddec_spin_density
 _atom_site_hse06_ddec_sum_bond_order
 _atom_site_hse06_magmom
 _atom_site_pbe_bader_spin_density
 _atom_site_pbe_cm5_charge
 _atom_site_pbe_ddec_charge
 _atom_site_pbe_ddec_spin_density
 _atom_site_pbe_ddec_sum_bond_order
 _atom_site_pbe_magmom
Cu  Cu0  1  0.21546298  0.98739717  0.56443340  1  0  0.246139  0  2.184442  0  0.416994  0  0.16689  0  2.66613  0  0  0.177543  0  2.612528  0  0  0.248663  0.162254  0  2.701578  0
Cu  Cu1  1  0.78452876  0.01260251  0.43556694  1  0  0.246162  0  2.184323  0  0.417205  0  0.166893  0  2.666021  0  0  0.177473  0  2.612414  0  0  0.248638  0.162258  0  2.701426  0
H  H2  1  0.66007043  0.19348341  0.66258254  1  0  0.065123  0  0.979326  0  0.108492  0  0.07295  0  1.052028  0  0  0.076927  0  1.047332  0  0  0.096141  0.06989  0  1.055649  0
H  H3  1  0.33991312  0.80651992  0.33741542  1  0  0.065089  0  0.979225  0  0.108497  0  0.072941  0  1.051888  0  0  0.076885  0  1.047225  0  0  0.096131  0.069866  0  1.055527  0
H  H4  1  0.92817302  0.27610440  0.82503493  1  0  0.106406  0  0.978397  0  0.112918  0  0.111533  0  1.050267  0  0  0.115795  0  1.047613  0  0  0.104624  0.108544  0  1.052185  0
H  H5  1  0.07180456  0.72389625  0.17496387  1  0  0.106432  0  0.978191  0  0.113108  0  0.111516  0  1.050112  0  0  0.115797  0  1.047444  0  0  0.104668  0.108532  0  1.052023  0
H  H6  1  0.34986250  0.98442311  0.91351496  1  0  0.118207  0  0.961856  0  0.131147  0  0.118313  0  1.040832  0  0  0.123403  0  1.036495  0  0  0.107735  0.114696  0  1.044038  0
H  H7  1  0.65013554  0.01558016  0.08648537  1  0  0.118171  0  0.961908  0  0.131071  0  0.118271  0  1.0409  0  0  0.12336  0  1.036561  0  0  0.107683  0.114654  0  1.044106  0
H  H8  1  0.09149169  0.91861687  0.74920175  1  0  0.069817  0  0.950128  0  0.054814  0  0.078413  0  1.018966  0  0  0.081506  0  1.015981  0  0  0.105265  0.076103  0  1.021207  0
H  H9  1  0.90849417  0.08138647  0.25079899  1  0  0.069878  0  0.950112  0  0.054725  0  0.078468  0  1.018937  0  0  0.081563  0  1.015952  0  0  0.105285  0.076155  0  1.021177  0
H  H10  1  0.12386237  0.15181886  0.12138707  1  0  0.09877  0  0.965893  0  0.076002  0  0.107321  0  1.033367  0  0  0.10932  0  1.031657  0  0  0.105858  0.105838  0  1.03462  0
H  H11  1  0.87614460  0.84818257  0.87861523  1  0  0.098772  0  0.965532  0  0.076095  0  0.107281  0  1.03311  0  0  0.109288  0  1.031393  0  0  0.105832  0.1058  0  1.034364  0
H  H12  1  0.48125455  0.23464896  0.26549868  1  0  0.090215  0  0.993539  0  0.054413  0  0.097853  0  1.063501  0  0  0.101317  0  1.062663  0  0  0.092653  0.095257  0  1.064356  0
H  H13  1  0.51874577  0.76534797  0.73450349  1  0  0.090176  0  0.993534  0  0.054549  0  0.097822  0  1.06349  0  0  0.10129  0  1.06265  0  0  0.092689  0.095229  0  1.064345  0
H  H14  1  0.61326701  0.58448457  0.18369722  1  0  0.094714  0  0.982374  0  0.065698  0  0.106247  0  1.045979  0  0  0.108591  0  1.046252  0  0  0.099271  0.104545  0  1.045986  0
H  H15  1  0.38674933  0.41551591  0.81630516  1  0  0.094728  0  0.982336  0  0.06572  0  0.106233  0  1.045972  0  0  0.108575  0  1.046248  0  0  0.09928  0.104533  0  1.045978  0
H  H16  1  0.23916524  0.50066365  0.04425881  1  0  0.100073  0  0.963508  0  0.108402  0  0.104535  0  1.038028  0  0  0.10745  0  1.034794  0  0  0.104423  0.10236  0  1.040387  0
H  H17  1  0.76085488  0.49933952  0.95573792  1  0  0.100126  0  0.963704  0  0.10846  0  0.10456  0  1.038207  0  0  0.107473  0  1.034974  0  0  0.104409  0.102384  0  1.040565  0
H  H18  1  0.73784902  0.39146973  0.43642295  1  0  0.081274  0  0.95967  0  0.047909  0  0.10127  0  1.027871  0  0  0.101737  0  1.02745  0  0  0.08366  0.100616  0  1.028481  0
H  H19  1  0.26214892  0.60853355  0.56357942  1  0  0.081238  0  0.959632  0  0.04799  0  0.101252  0  1.02783  0  0  0.10172  0  1.027406  0  0  0.08368  0.100598  0  1.028442  0
H  H20  1  0.14877686  0.42603241  0.40823122  1  0  0.094959  0  0.946038  0  0.045067  0  0.117328  0  1.006627  0  0  0.117997  0  1.006725  0  0  0.099226  0.11676  0  1.006581  0
H  H21  1  0.85121984  0.57396817  0.59177481  1  0  0.094979  0  0.946158  0  0.045086  0  0.117327  0  1.006768  0  0  0.117996  0  1.006867  0  0  0.099239  0.11676  0  1.006721  0
H  H22  1  0.89648566  0.29655838  0.34410877  1  0  0.091953  0  0.982711  0  0.103723  0  0.110055  0  1.053498  0  0  0.109694  0  1.054671  0  0  0.093798  0.110064  0  1.05291  0
H  H23  1  0.10351312  0.70344128  0.65589716  1  0  0.09188  0  0.982777  0  0.103623  0  0.109979  0  1.053591  0  0  0.109619  0  1.054764  0  0  0.093787  0.109989  0  1.053002  0
H  H24  1  0.10084649  0.60611432  0.27860179  1  0  0.082619  0  0.981031  0  0.048767  0  0.102143  0  1.051784  0  0  0.100532  0  1.054494  0  0  0.095822  0.103279  0  1.049826  0
H  H25  1  0.89915539  0.39387986  0.72139593  1  0  0.082562  0  0.981123  0  0.048532  0  0.102109  0  1.051842  0  0  0.100498  0  1.054551  0  0  0.095845  0.103243  0  1.049884  0
H  H26  1  0.08088487  0.61224625  0.40005623  1  0  0.096834  0  0.957087  0  0.075222  0  0.116182  0  1.022798  0  0  0.117583  0  1.02195  0  0  0.096593  0.114827  0  1.023829  0
H  H27  1  0.91911509  0.38775519  0.59993979  1  0  0.096887  0  0.956981  0  0.075191  0  0.116219  0  1.02273  0  0  0.11762  0  1.021883  0  0  0.096578  0.114862  0  1.02376  0
H  H28  1  0.74902365  0.65167853  0.33460401  1  0  0.088435  0  0.966237  0  0.047379  0  0.106619  0  1.036896  0  0  0.105917  0  1.038321  0  0  0.092573  0.106985  0  1.035867  0
H  H29  1  0.25098188  0.34831835  0.66539079  1  0  0.088508  0  0.966265  0  0.047315  0  0.106665  0  1.036933  0  0  0.105977  0  1.038348  0  0  0.092568  0.10703  0  1.035903  0
C  C30  1  0.59311771  0.15229449  0.72101085  1  0  0.115867  0  3.729268  0  0.451853  0  0.087986  0  3.977936  0  0  0.09632  0  3.992068  0  0  0.024629  0.081695  0  3.970308  0
C  C31  1  0.40688027  0.84771422  0.27898483  1  0  0.115889  0  3.729876  0  0.452234  0  0.087983  0  3.978531  0  0  0.096334  0  3.992655  0  0  0.024658  0.081701  0  3.970905  0
C  C32  1  0.74068881  0.19752555  0.81003452  1  0  -0.195598  0  3.725517  0  -0.067105  0  -0.212265  0  3.969579  0  0  -0.22095  0  3.990347  0  0  -0.091529  -0.206594  0  3.95579  0
C  C33  1  0.25930705  0.80248500  0.18996954  1  0  -0.195665  0  3.725729  0  -0.067656  0  -0.212298  0  3.969839  0  0  -0.221005  0  3.990596  0  0  -0.091623  -0.206629  0  3.956044  0
C  C34  1  0.65710831  0.13794385  0.88249187  1  0  0.22215  0  3.806104  0  0.424741  0  0.223131  0  4.052496  0  0  0.231672  0  4.073427  0  0  0.103495  0.217573  0  4.038216  0
C  C35  1  0.34288001  0.86205947  0.11750824  1  0  0.222154  0  3.806154  0  0.424771  0  0.223143  0  4.052528  0  0  0.231687  0  4.073458  0  0  0.103536  0.217584  0  4.038244  0
C  C36  1  0.42176647  0.03422439  0.85996168  1  0  -0.183005  0  3.676481  0  -0.058758  0  -0.198103  0  3.92217  0  0  -0.207369  0  3.942173  0  0  -0.08422  -0.192147  0  3.908856  0
C  C37  1  0.57824063  0.96577703  0.14003790  1  0  -0.183042  0  3.676512  0  -0.058741  0  -0.198134  0  3.922147  0  0  -0.207413  0  3.942186  0  0  -0.084169  -0.192177  0  3.908825  0
C  C38  1  0.28038153  0.99702212  0.76883051  1  0  0.120371  0  3.706011  0  0.501039  0  0.092558  0  3.954715  0  0  0.100534  0  3.971762  0  0  0.031863  0.087395  0  3.943395  0
C  C39  1  0.71961725  0.00298297  0.23116942  1  0  0.12029  0  3.705969  0  0.501052  0  0.092473  0  3.954667  0  0  0.100427  0  3.971705  0  0  0.031804  0.087311  0  3.943337  0
C  C40  1  0.15333788  0.32045284  0.07304991  1  0  0.131551  0  3.848398  0  0.418005  0  0.133551  0  4.102867  0  0  0.124298  0  4.131587  0  0  0.077361  0.139165  0  4.083815  0
C  C41  1  0.84667830  0.67955850  0.92694385  1  0  0.131528  0  3.847949  0  0.41841  0  0.133506  0  4.10244  0  0  0.124252  0  4.13116  0  0  0.077345  0.13912  0  4.083382  0
C  C42  1  0.22812456  0.24687465  0.13717331  1  0  -0.085279  0  3.720891  0  0.003404  0  -0.10932  0  3.971355  0  0  -0.10495  0  3.992368  0  0  -0.07933  -0.111865  0  3.957209  0
C  C43  1  0.77185242  0.75311147  0.86281995  1  0  -0.085164  0  3.721252  0  0.003097  0  -0.109163  0  3.971677  0  0  -0.104804  0  3.992695  0  0  -0.079236  -0.111717  0  3.957559  0
C  C44  1  0.43346186  0.29342826  0.21702520  1  0  -0.169456  0  3.729072  0  -0.038494  0  -0.183956  0  3.981621  0  0  -0.194185  0  4.002727  0  0  -0.101409  -0.177496  0  3.967804  0
C  C45  1  0.56654760  0.70656772  0.78298180  1  0  -0.16939  0  3.729422  0  -0.038164  0  -0.183891  0  3.981964  0  0  -0.194123  0  4.003072  0  0  -0.101447  -0.177433  0  3.968144  0
C  C46  1  0.58191912  0.41681029  0.23668335  1  0  0.22638  0  3.759941  0  0.474495  0  0.214137  0  3.996589  0  0  0.230611  0  4.0141  0  0  0.116488  0.203213  0  3.984715  0
C  C47  1  0.41807452  0.58318213  0.76331937  1  0  0.226273  0  3.759961  0  0.474226  0  0.214019  0  3.996632  0  0  0.230494  0  4.014143  0  0  0.116425  0.203095  0  3.984757  0
C  C48  1  0.50478297  0.49026734  0.17206092  1  0  -0.185226  0  3.750441  0  -0.035527  0  -0.203077  0  4.003377  0  0  -0.213312  0  4.025527  0  0  -0.107553  -0.1965  0  3.988547  0
C  C49  1  0.49523191  0.50972952  0.82794226  1  0  -0.185133  0  3.75046  0  -0.039134  0  -0.20296  0  4.003407  0  0  -0.213193  0  4.025551  0  0  -0.107528  -0.196384  0  3.988576  0
C  C50  1  0.29617500  0.44289509  0.09279856  1  0  -0.078401  0  3.725319  0  -0.023568  0  -0.101956  0  3.979373  0  0  -0.098259  0  4.000482  0  0  -0.073934  -0.103993  0  3.965035  0
C  C51  1  0.70384701  0.55709447  0.90719895  1  0  -0.07861  0  3.72495  0  -0.020309  0  -0.10213  0  3.979027  0  0  -0.098432  0  4.00013  0  0  -0.074008  -0.104166  0  3.96469  0
C  C52  1  0.89643985  0.39085891  0.37881859  1  0  -0.173559  0  3.700846  0  0.260025  0  -0.276389  0  3.948862  0  0  -0.272531  0  3.960623  0  0  -0.144782  -0.278592  0  3.940924  0
C  C53  1  0.10355455  0.60914167  0.62118467  1  0  -0.17345  0  3.700808  0  0.260093  0  -0.276287  0  3.948822  0  0  -0.272426  0  3.960578  0  0  -0.144778  -0.278488  0  3.940885  0
C  C54  1  0.93681503  0.58995061  0.33223636  1  0  -0.174347  0  3.680335  0  0.277954  0  -0.275191  0  3.923471  0  0  -0.270617  0  3.934984  0  0  -0.142112  -0.277875  0  3.915562  0
C  C55  1  0.06319479  0.41004536  0.66776317  1  0  -0.174425  0  3.680395  0  0.278229  0  -0.275261  0  3.923535  0  0  -0.270704  0  3.935043  0  0  -0.1421  -0.277945  0  3.915619  0
I  I56  1  0.67888870  0.83561477  0.52753313  1  0  -0.37034  0  1.788694  0  -0.440535  0  -0.31583  0  2.262261  0  0  -0.329161  0  2.217127  0  0  -0.167928  -0.305855  0  2.293599  0
I  I57  1  0.32112723  0.16438480  0.47247047  1  0  -0.370318  0  1.788692  0  -0.440626  0  -0.315787  0  2.262234  0  0  -0.329104  0  2.2171  0  0  -0.167902  -0.305813  0  2.293554  0
N  N58  1  0.36316973  0.05354530  0.69912387  1  0  -0.283115  0  3.376412  0  -1.240193  0  -0.208887  0  3.660199  0  0  -0.222616  0  3.670037  0  0  -0.373374  -0.200558  0  3.653717  0
N  N59  1  0.63680784  0.94645535  0.30087493  1  0  -0.283004  0  3.376605  0  -1.240248  0  -0.208747  0  3.660343  0  0  -0.222412  0  3.6701  0  0  -0.373313  -0.200415  0  3.653824  0
N  N60  1  0.81248134  0.17261985  0.97310053  1  0  -0.209566  0  2.963966  0  -0.5494  0  -0.184903  0  3.249001  0  0  -0.192125  0  3.257744  0  0  -0.176543  -0.179926  0  3.242867  0
N  N61  1  0.18752336  0.82738158  0.02689832  1  0  -0.209554  0  2.963847  0  -0.549321  0  -0.184897  0  3.24887  0  0  -0.192121  0  3.257616  0  0  -0.176626  -0.179915  0  3.24273  0
N  N62  1  0.95879784  0.28204532  0.99025519  1  0  -0.147221  0  3.063121  0  -0.60371  0  -0.120957  0  3.347306  0  0  -0.112522  0  3.355879  0  0  -0.156292  -0.126059  0  3.341199  0
N  N63  1  0.04120923  0.71794975  0.00974346  1  0  -0.147231  0  3.062843  0  -0.603805  0  -0.120951  0  3.34702  0  0  -0.112513  0  3.355593  0  0  -0.15623  -0.12605  0  3.340908  0
N  N64  1  0.79221821  0.46379361  0.31415237  1  0  -0.086767  0  3.449143  0  -1.251242  0  0.021797  0  3.664637  0  0  -0.000149  0  3.692496  0  0  -0.281143  0.036378  0  3.645301  0
N  N65  1  0.20778259  0.53620421  0.68584722  1  0  -0.086716  0  3.449044  0  -1.251206  0  0.021868  0  3.664508  0  0  -7.7e-05  0  3.692369  0  0  -0.281114  0.03645  0  3.645168  0
