# generated using pymatgen
data_AgPH19C19BrN
_symmetry_space_group_name_H-M   'P 1'
_cell_length_a   9.17984390
_cell_length_b   9.79501789
_cell_length_c   11.36451964
_cell_angle_alpha   76.70344353
_cell_angle_beta   67.55240087
_cell_angle_gamma   72.87162171
_symmetry_Int_Tables_number   1
_chemical_formula_structural   AgPH19C19BrN
_chemical_formula_sum   'Ag2 P2 H38 C38 Br2 N2'
_cell_volume   894.51807919
_cell_formula_units_Z   2
loop_
 _symmetry_equiv_pos_site_id
 _symmetry_equiv_pos_as_xyz
  1  'x, y, z'
loop_
 _atom_site_type_symbol
 _atom_site_label
 _atom_site_symmetry_multiplicity
 _atom_site_fract_x
 _atom_site_fract_y
 _atom_site_fract_z
 _atom_site_occupancy
 _atom_site_hle17_bader_spin_density
 _atom_site_hle17_ddec_charge
 _atom_site_hle17_ddec_spin_density
 _atom_site_hle17_ddec_sum_bond_order
 _atom_site_hle17_magmom
 _atom_site_hse06_10hf_bader_spin_density
 _atom_site_hse06_10hf_ddec_charge
 _atom_site_hse06_10hf_ddec_spin_density
 _atom_site_hse06_10hf_ddec_sum_bond_order
 _atom_site_hse06_10hf_magmom
 _atom_site_hse06_bader_spin_density
 _atom_site_hse06_ddec_charge
 _atom_site_hse06_ddec_spin_density
 _atom_site_hse06_ddec_sum_bond_order
 _atom_site_hse06_magmom
 _atom_site_pbe_bader_spin_density
 _atom_site_pbe_cm5_charge
 _atom_site_pbe_ddec_charge
 _atom_site_pbe_ddec_spin_density
 _atom_site_pbe_ddec_sum_bond_order
 _atom_site_pbe_magmom
Ag  Ag0  1  0.66509774  0.84624464  0.50214457  1  0  0.26195  0  1.893349  0  0  0.143291  0  2.395352  0  0  0.161367  0  2.353977  0  0  0.33729  0.131337  0  2.422942  0
Ag  Ag1  1  0.33491541  0.15375171  0.49785327  1  0  0.261987  0  1.893316  0  0  0.143305  0  2.395357  0  0  0.161383  0  2.353979  0  0  0.337292  0.13136  0  2.422946  0
P  P2  1  0.75979348  0.65859721  0.37319449  1  0  0.335611  0  3.694798  0  0  0.299405  0  4.163366  0  0  0.309251  0  4.158529  0  0  -0.023202  0.292834  0  4.163127  0
P  P3  1  0.24020940  0.34140236  0.62680414  1  0  0.335571  0  3.694846  0  0  0.299374  0  4.163422  0  0  0.309217  0  4.158589  0  0  -0.023228  0.292802  0  4.163186  0
H  H4  1  0.95516777  0.87374123  0.58159906  1  0  0.077714  0  0.926111  0  0  0.088293  0  0.98722  0  0  0.091085  0  0.984683  0  0  0.113848  0.085491  0  0.990519  0
H  H5  1  0.04483685  0.12625619  0.41839945  1  0  0.077724  0  0.926161  0  0  0.088301  0  0.987269  0  0  0.091093  0  0.984732  0  0  0.113866  0.0855  0  0.990566  0
H  H6  1  0.02959786  0.84842380  0.77497172  1  0  0.104076  0  0.992819  0  0  0.111191  0  1.059402  0  0  0.113877  0  1.059692  0  0  0.091353  0.108408  0  1.060449  0
H  H7  1  0.97039857  0.15157793  0.22502848  1  0  0.104084  0  0.992836  0  0  0.111199  0  1.059416  0  0  0.113885  0  1.059706  0  0  0.091352  0.108417  0  1.060464  0
H  H8  1  0.81855360  0.81147105  0.99484232  1  0  0.093973  0  0.956264  0  0  0.104074  0  1.017811  0  0  0.105728  0  1.018383  0  0  0.104699  0.103216  0  1.016893  0
H  H9  1  0.18144609  0.18853175  0.00515842  1  0  0.094018  0  0.956224  0  0  0.104117  0  1.017769  0  0  0.105772  0  1.018342  0  0  0.104729  0.103258  0  1.016852  0
H  H10  1  0.53994791  0.80964835  0.00617417  1  0  0.098413  0  0.983443  0  0  0.107956  0  1.044094  0  0  0.110218  0  1.045392  0  0  0.10128  0.106573  0  1.042745  0
H  H11  1  0.46004914  0.19035553  0.99382629  1  0  0.098365  0  0.983452  0  0  0.107913  0  1.044094  0  0  0.110184  0  1.045384  0  0  0.101243  0.10653  0  1.042744  0
H  H12  1  0.48546051  0.84094067  0.79962005  1  0  0.065415  0  0.981936  0  0  0.071785  0  1.052298  0  0  0.07455  0  1.049665  0  0  0.099473  0.069784  0  1.054142  0
H  H13  1  0.51453862  0.15906429  0.20037955  1  0  0.065428  0  0.981921  0  0  0.071803  0  1.052274  0  0  0.074568  0  1.049643  0  0  0.099481  0.069802  0  1.054118  0
H  H14  1  0.71472939  0.43906114  0.50970159  1  0  0.114399  0  0.952406  0  0  0.132559  0  1.008951  0  0  0.133011  0  1.011972  0  0  0.100805  0.132063  0  1.00699  0
H  H15  1  0.28527343  0.56093412  0.49029703  1  0  0.114396  0  0.952431  0  0  0.132569  0  1.008963  0  0  0.133022  0  1.011984  0  0  0.100811  0.132073  0  1.007003  0
H  H16  1  0.89712714  0.40220059  0.37911482  1  0  0.093466  0  0.964722  0  0  0.109875  0  1.028298  0  0  0.111025  0  1.02887  0  0  0.09294  0.11007  0  1.025572  0
H  H17  1  0.10287422  0.59779574  0.62088668  1  0  0.093454  0  0.964708  0  0  0.109873  0  1.028278  0  0  0.111022  0  1.028851  0  0  0.092952  0.110067  0  1.025552  0
H  H18  1  0.84403677  0.54296582  0.61244536  1  0  0.060986  0  0.944866  0  0  0.076909  0  1.014206  0  0  0.07769  0  1.014738  0  0  0.082691  0.076414  0  1.01378  0
H  H19  1  0.15596050  0.45703267  0.38755610  1  0  0.060995  0  0.944875  0  0  0.076934  0  1.014192  0  0  0.077711  0  1.014721  0  0  0.082705  0.076439  0  1.013767  0
H  H20  1  0.94757208  0.36440171  0.58552291  1  0  0.060792  0  0.949764  0  0  0.078712  0  1.014995  0  0  0.078994  0  1.015868  0  0  0.084595  0.078539  0  1.013835  0
H  H21  1  0.05242845  0.63559786  0.41447732  1  0  0.060788  0  0.949781  0  0  0.078702  0  1.015021  0  0  0.07898  0  1.01589  0  0  0.084594  0.07853  0  1.013862  0
H  H22  1  0.90721984  0.90116083  0.23748959  1  0  0.08185  0  1.004903  0  0  0.085511  0  1.083156  0  0  0.08899  0  1.080936  0  0  0.082628  0.082631  0  1.085188  0
H  H23  1  0.09278308  0.09884307  0.76250377  1  0  0.081783  0  1.00495  0  0  0.085482  0  1.083175  0  0  0.088966  0  1.080951  0  0  0.082611  0.082601  0  1.085207  0
H  H24  1  0.12572218  0.93846461  0.02754796  1  0  0.083805  0  0.964129  0  0  0.096571  0  1.022488  0  0  0.098552  0  1.022942  0  0  0.09739  0.094555  0  1.023544  0
H  H25  1  0.87427775  0.06153712  0.97244411  1  0  0.083838  0  0.964123  0  0  0.09657  0  1.022508  0  0  0.098545  0  1.022967  0  0  0.097418  0.094554  0  1.023564  0
H  H26  1  0.26495432  0.74092684  0.89152630  1  0  0.082313  0  0.989029  0  0  0.090881  0  1.057043  0  0  0.093605  0  1.055675  0  0  0.090326  0.088515  0  1.05889  0
H  H27  1  0.73504411  0.25907166  0.10846952  1  0  0.082338  0  0.989015  0  0  0.090928  0  1.057023  0  0  0.093658  0  1.055643  0  0  0.090319  0.088558  0  1.058864  0
H  H28  1  0.19539317  0.50113287  0.97030405  1  0  0.086187  0  0.971484  0  0  0.096023  0  1.034652  0  0  0.098025  0  1.035568  0  0  0.096413  0.094415  0  1.034678  0
H  H29  1  0.80460729  0.49886239  0.02969794  1  0  0.086175  0  0.971414  0  0  0.095986  0  1.034622  0  0  0.097978  0  1.035571  0  0  0.096401  0.094376  0  1.034654  0
H  H30  1  0.97881003  0.46306054  0.17740329  1  0  0.082438  0  0.975336  0  0  0.092923  0  1.041298  0  0  0.094923  0  1.041542  0  0  0.096582  0.090962  0  1.042252  0
H  H31  1  0.02119489  0.53693579  0.82260150  1  0  0.082471  0  0.975456  0  0  0.09298  0  1.041391  0  0  0.094979  0  1.041635  0  0  0.096611  0.091019  0  1.042346  0
H  H32  1  0.68333360  0.40892272  0.31220724  1  0  0.089656  0  0.987199  0  0  0.098361  0  1.056052  0  0  0.101072  0  1.054987  0  0  0.089586  0.097031  0  1.055458  0
H  H33  1  0.31666692  0.59107685  0.68779211  1  0  0.089678  0  0.987195  0  0  0.098324  0  1.056108  0  0  0.101036  0  1.055042  0  0  0.089578  0.096993  0  1.055512  0
H  H34  1  0.47966548  0.40030007  0.22556596  1  0  0.077819  0  0.979194  0  0  0.086311  0  1.04752  0  0  0.088777  0  1.046708  0  0  0.092844  0.084896  0  1.04776  0
H  H35  1  0.52033304  0.59970273  0.77443602  1  0  0.077841  0  0.979186  0  0  0.086333  0  1.04751  0  0  0.0888  0  1.046699  0  0  0.092866  0.084918  0  1.04775  0
H  H36  1  0.28510296  0.62440779  0.17730394  1  0  0.078965  0  1.00369  0  0  0.088932  0  1.067067  0  0  0.090001  0  1.069358  0  0  0.093835  0.090017  0  1.061955  0
H  H37  1  0.71489113  0.37559393  0.82270227  1  0  0.078987  0  1.003655  0  0  0.088952  0  1.067039  0  0  0.09002  0  1.069332  0  0  0.093836  0.090036  0  1.061929  0
H  H38  1  0.29066714  0.85864220  0.22395751  1  0  0.080053  0  0.974142  0  0  0.089766  0  1.037683  0  0  0.091216  0  1.039517  0  0  0.093374  0.08851  0  1.037106  0
H  H39  1  0.70933042  0.14135521  0.77604848  1  0  0.080121  0  0.974144  0  0  0.089841  0  1.037681  0  0  0.091292  0  1.039512  0  0  0.093428  0.088584  0  1.0371  0
H  H40  1  0.49508725  0.86879514  0.31409444  1  0  0.083754  0  0.986146  0  0  0.0864  0  1.06546  0  0  0.089553  0  1.063387  0  0  0.088563  0.083791  0  1.067708  0
H  H41  1  0.50491473  0.13120336  0.68590643  1  0  0.083775  0  0.986106  0  0  0.08643  0  1.065395  0  0  0.089584  0  1.06332  0  0  0.088577  0.083821  0  1.067643  0
C  C42  1  0.86618467  0.85909654  0.67750867  1  0  0.110562  0  3.70336  0  0  0.082671  0  3.950264  0  0  0.088438  0  3.968324  0  0  0.043694  0.07867  0  3.939221  0
C  C43  1  0.13380733  0.14090410  0.32249488  1  0  0.110631  0  3.703307  0  0  0.08275  0  3.950187  0  0  0.088513  0  3.96824  0  0  0.04374  0.078747  0  3.939146  0
C  C44  1  0.90701485  0.84474018  0.78675120  1  0  -0.133964  0  3.745874  0  0  -0.14438  0  3.99259  0  0  -0.151486  0  4.014766  0  0  -0.089769  -0.139126  0  3.977852  0
C  C45  1  0.09298338  0.15526370  0.21324889  1  0  -0.134011  0  3.746013  0  0  -0.14442  0  3.992714  0  0  -0.151526  0  4.01489  0  0  -0.089759  -0.139169  0  3.977979  0
C  C46  1  0.78987001  0.82535423  0.90748192  1  0  -0.014178  0  3.724034  0  0  -0.029898  0  3.966485  0  0  -0.026602  0  3.985185  0  0  -0.068715  -0.031706  0  3.953626  0
C  C47  1  0.21012532  0.17465180  0.09252305  1  0  -0.014161  0  3.724188  0  0  -0.029885  0  3.966639  0  0  -0.026593  0  3.985348  0  0  -0.068741  -0.031691  0  3.953779  0
C  C48  1  0.63539731  0.82386874  0.91409482  1  0  -0.119014  0  3.738538  0  0  -0.125446  0  3.973673  0  0  -0.132177  0  3.995996  0  0  -0.085094  -0.121221  0  3.958456  0
C  C49  1  0.36459621  0.17613513  0.08590850  1  0  -0.118974  0  3.738585  0  0  -0.125405  0  3.973717  0  0  -0.132145  0  3.996039  0  0  -0.085054  -0.121181  0  3.9585  0
C  C50  1  0.60470131  0.83963492  0.80014070  1  0  0.107259  0  3.712132  0  0  0.083217  0  3.950796  0  0  0.088304  0  3.96993  0  0  0.039358  0.080637  0  3.937432  0
C  C51  1  0.39529985  0.16036680  0.19986067  1  0  0.107177  0  3.712146  0  0  0.083137  0  3.950809  0  0  0.08822  0  3.969942  0  0  0.039313  0.080557  0  3.937448  0
C  C52  1  0.82606561  0.47626929  0.45116846  1  0  -0.279017  0  3.649667  0  0  -0.298582  0  3.893317  0  0  -0.303023  0  3.905983  0  0  -0.169624  -0.295411  0  3.883218  0
C  C53  1  0.17393547  0.52372813  0.54883203  1  0  -0.278994  0  3.649633  0  0  -0.298603  0  3.893346  0  0  -0.303049  0  3.906008  0  0  -0.169638  -0.295431  0  3.883247  0
C  C54  1  0.92139539  0.47497284  0.53631608  1  0  -0.086385  0  3.710124  0  0  -0.124894  0  3.966273  0  0  -0.125824  0  3.982026  0  0  -0.169207  -0.124167  0  3.956  0
C  C55  1  0.07860160  0.52502673  0.46368526  1  0  -0.086361  0  3.710069  0  0  -0.124857  0  3.966194  0  0  -0.125762  0  3.981921  0  0  -0.1692  -0.124127  0  3.95591  0
C  C56  1  0.92750447  0.68015554  0.22149277  1  0  -0.100324  0  3.75185  0  0  -0.05904  0  3.984627  0  0  -0.064618  0  4.011423  0  0  -0.026628  -0.055264  0  3.964615  0
C  C57  1  0.07249632  0.31984295  0.77850408  1  0  -0.10029  0  3.751661  0  0  -0.059006  0  3.984487  0  0  -0.064584  0  4.011284  0  0  -0.026625  -0.055231  0  3.964474  0
C  C58  1  0.97075243  0.81363699  0.17843482  1  0  -0.090927  0  3.756906  0  0  -0.107625  0  3.99701  0  0  -0.109361  0  4.018499  0  0  -0.09096  -0.105497  0  3.982133  0
C  C59  1  0.02924433  0.18636798  0.82156288  1  0  -0.090859  0  3.756906  0  0  -0.107599  0  3.997006  0  0  -0.109338  0  4.018488  0  0  -0.090937  -0.10547  0  3.98213  0
C  C60  1  0.09278590  0.83453032  0.06046782  1  0  -0.07314  0  3.763842  0  0  -0.082143  0  4.005287  0  0  -0.084632  0  4.027123  0  0  -0.092923  -0.080511  0  3.991785  0
C  C61  1  0.90721493  0.16547250  0.93952288  1  0  -0.07313  0  3.763665  0  0  -0.082101  0  4.00513  0  0  -0.084586  0  4.026964  0  0  -0.092938  -0.080469  0  3.991625  0
C  C62  1  0.17253674  0.72306312  0.98474198  1  0  -0.067763  0  3.757606  0  0  -0.080536  0  4.001233  0  0  -0.081612  0  4.021512  0  0  -0.091334  -0.080966  0  3.988702  0
C  C63  1  0.82746170  0.27693538  0.01525647  1  0  -0.067828  0  3.757541  0  0  -0.08062  0  4.001126  0  0  -0.081696  0  4.0214  0  0  -0.091318  -0.081041  0  3.988587  0
C  C64  1  0.13188680  0.58912685  0.02823176  1  0  -0.075532  0  3.766747  0  0  -0.085001  0  4.010259  0  0  -0.087485  0  4.031765  0  0  -0.092249  -0.083295  0  3.997206  0
C  C65  1  0.86811748  0.41086733  0.97177014  1  0  -0.075481  0  3.766777  0  0  -0.084922  0  4.0103  0  0  -0.087412  0  4.031806  0  0  -0.092253  -0.083216  0  3.997246  0
C  C66  1  0.00986924  0.56790400  0.14564703  1  0  -0.075667  0  3.746276  0  0  -0.09533  0  3.988011  0  0  -0.096189  0  4.009915  0  0  -0.087406  -0.095074  0  3.974244  0
C  C67  1  0.99013107  0.43210096  0.85435309  1  0  -0.075747  0  3.7462  0  0  -0.095451  0  3.987967  0  0  -0.09631  0  4.00987  0  0  -0.087442  -0.095196  0  3.9742  0
C  C68  1  0.60717523  0.64129795  0.31474782  1  0  -0.096815  0  3.751114  0  0  -0.059228  0  3.989019  0  0  -0.065085  0  4.015869  0  0  -0.028206  -0.054993  0  3.969596  0
C  C69  1  0.39282764  0.35870163  0.68524905  1  0  -0.096874  0  3.751256  0  0  -0.059262  0  3.989119  0  0  -0.065119  0  4.015967  0  0  -0.02824  -0.055029  0  3.969697  0
C  C70  1  0.60089478  0.50923596  0.29084108  1  0  -0.077617  0  3.738334  0  0  -0.096386  0  3.978759  0  0  -0.097278  0  4.000749  0  0  -0.090336  -0.096214  0  3.964142  0
C  C71  1  0.39910838  0.49076254  0.70915679  1  0  -0.077589  0  3.738376  0  0  -0.096313  0  3.978789  0  0  -0.097209  0  4.000787  0  0  -0.090308  -0.096141  0  3.96417  0
C  C72  1  0.48501674  0.50391599  0.24164704  1  0  -0.073609  0  3.768389  0  0  -0.081799  0  4.011791  0  0  -0.084706  0  4.032633  0  0  -0.093936  -0.080742  0  3.999081  0
C  C73  1  0.51498468  0.49608466  0.75835358  1  0  -0.073613  0  3.768303  0  0  -0.081796  0  4.011685  0  0  -0.084707  0  4.032533  0  0  -0.093939  -0.080739  0  3.998973  0
C  C74  1  0.37504662  0.62938373  0.21569358  1  0  -0.065412  0  3.77033  0  0  -0.075808  0  4.007354  0  0  -0.075943  0  4.027978  0  0  -0.090377  -0.076376  0  3.991592  0
C  C75  1  0.62495093  0.37061368  0.78431065  1  0  -0.065414  0  3.770123  0  0  -0.075801  0  4.007153  0  0  -0.075935  0  4.027778  0  0  -0.090361  -0.076371  0  3.99139  0
C  C76  1  0.37863413  0.76081901  0.24168754  1  0  -0.079942  0  3.771794  0  0  -0.08676  0  4.010812  0  0  -0.089488  0  4.032057  0  0  -0.096274  -0.084843  0  3.996596  0
C  C77  1  0.62136599  0.23917301  0.75831520  1  0  -0.07997  0  3.771727  0  0  -0.086811  0  4.01078  0  0  -0.089541  0  4.032027  0  0  -0.096323  -0.084891  0  3.996557  0
C  C78  1  0.49390569  0.76686572  0.29131589  1  0  -0.077367  0  3.753921  0  0  -0.096432  0  3.996493  0  0  -0.097404  0  4.018321  0  0  -0.090752  -0.095525  0  3.981612  0
C  C79  1  0.50609393  0.23313277  0.70868572  1  0  -0.07747  0  3.753975  0  0  -0.096547  0  3.996571  0  0  -0.097518  0  4.018396  0  0  -0.090816  -0.095639  0  3.981688  0
Br  Br80  1  0.67332930  0.11976733  0.37818612  1  0  -0.553508  0  1.087365  0  0  -0.476946  0  1.430842  0  0  -0.495052  0  1.40324  0  0  -0.299315  -0.463881  0  1.451035  0
Br  Br81  1  0.32668249  0.88023440  0.62181900  1  0  -0.553537  0  1.087384  0  0  -0.476975  0  1.430856  0  0  -0.495082  0  1.403255  0  0  -0.299332  -0.46391  0  1.45105  0
N  N82  1  0.71802092  0.85540252  0.68333021  1  0  -0.271269  0  3.272755  0  0  -0.195375  0  3.545827  0  0  -0.210274  0  3.561499  0  0  -0.337239  -0.184541  0  3.535731  0
N  N83  1  0.28197580  0.14459812  0.31667275  1  0  -0.271321  0  3.272674  0  0  -0.195437  0  3.545753  0  0  -0.210327  0  3.56141  0  0  -0.33729  -0.184607  0  3.535663  0
