# generated using pymatgen
data_CdH28C32S2(NO)6
_symmetry_space_group_name_H-M   'P 1'
_cell_length_a   8.71541866
_cell_length_b   8.90723096
_cell_length_c   11.15814005
_cell_angle_alpha   64.96223037
_cell_angle_beta   85.01509524
_cell_angle_gamma   74.54210166
_symmetry_Int_Tables_number   1
_chemical_formula_structural   CdH28C32S2(NO)6
_chemical_formula_sum   'Cd1 H28 C32 S2 N6 O6'
_cell_volume   756.08838792
_cell_formula_units_Z   1
loop_
 _symmetry_equiv_pos_site_id
 _symmetry_equiv_pos_as_xyz
  1  'x, y, z'
loop_
 _atom_site_type_symbol
 _atom_site_label
 _atom_site_symmetry_multiplicity
 _atom_site_fract_x
 _atom_site_fract_y
 _atom_site_fract_z
 _atom_site_occupancy
 _atom_site_hle17_bader_spin_density
 _atom_site_hle17_ddec_charge
 _atom_site_hle17_ddec_spin_density
 _atom_site_hle17_ddec_sum_bond_order
 _atom_site_hle17_magmom
 _atom_site_hse06_10hf_bader_spin_density
 _atom_site_hse06_10hf_ddec_charge
 _atom_site_hse06_10hf_ddec_spin_density
 _atom_site_hse06_10hf_ddec_sum_bond_order
 _atom_site_hse06_10hf_magmom
 _atom_site_hse06_bader_spin_density
 _atom_site_hse06_ddec_charge
 _atom_site_hse06_ddec_spin_density
 _atom_site_hse06_ddec_sum_bond_order
 _atom_site_hse06_magmom
 _atom_site_pbe_bader_spin_density
 _atom_site_pbe_cm5_charge
 _atom_site_pbe_ddec_charge
 _atom_site_pbe_ddec_spin_density
 _atom_site_pbe_ddec_sum_bond_order
 _atom_site_pbe_magmom
Cd  Cd0  1  0.49999916  0.00000240  0.99999848  1  0  1.082224  0  1.750036  0  0  0.873891  0  2.197899  0  0  0.926248  0  2.154148  0  0  0.804284  0.837285  0  2.227285  0
H  H1  1  0.44828062  0.24192535  0.68866498  1  0  0.082284  0  0.960122  0  0  0.089362  0  1.025756  0  0  0.09233  0  1.022766  0  0  0.112946  0.087121  0  1.028049  0
H  H2  1  0.55171437  0.75807970  0.31132886  1  0  0.082396  0  0.960088  0  0  0.089441  0  1.025737  0  0  0.092434  0  1.022717  0  0  0.112985  0.087202  0  1.028022  0
H  H3  1  0.25356101  0.50332422  0.52717692  1  0  0.122586  0  0.964772  0  0  0.131093  0  1.023133  0  0  0.135026  0  1.021318  0  0  0.107348  0.128251  0  1.024592  0
H  H4  1  0.74643203  0.49667951  0.47281932  1  0  0.122573  0  0.964854  0  0  0.131103  0  1.023185  0  0  0.135035  0  1.021372  0  0  0.10733  0.128264  0  1.024643  0
H  H5  1  0.99447594  0.61682999  0.61125838  1  0  0.096334  0  0.971341  0  0  0.107693  0  1.03302  0  0  0.109406  0  1.033182  0  0  0.104378  0.106443  0  1.032936  0
H  H6  1  0.00552093  0.38317252  0.38874335  1  0  0.096236  0  0.97142  0  0  0.107616  0  1.033091  0  0  0.10933  0  1.033252  0  0  0.104347  0.106361  0  1.03302  0
H  H7  1  0.12442334  0.18767068  0.98915804  1  0  0.088277  0  0.978649  0  0  0.092342  0  1.051634  0  0  0.095637  0  1.048078  0  0  0.112486  0.089902  0  1.054273  0
H  H8  1  0.87557852  0.81232549  0.01084099  1  0  0.088336  0  0.978666  0  0  0.092415  0  1.051615  0  0  0.095709  0  1.04806  0  0  0.112539  0.089977  0  1.05425  0
H  H9  1  0.89880855  0.40291683  0.97718509  1  0  0.051514  0  0.934672  0  0  0.067725  0  1.00183  0  0  0.067205  0  1.002487  0  0  0.09896  0.068025  0  1.001461  0
H  H10  1  0.10119009  0.59708315  0.02281558  1  0  0.051522  0  0.93459  0  0  0.067733  0  1.001759  0  0  0.067214  0  1.002414  0  0  0.09896  0.068032  0  1.001391  0
H  H11  1  0.90571407  0.61190066  0.86167249  1  0  0.058344  0  0.929174  0  0  0.076822  0  0.993238  0  0  0.075816  0  0.99421  0  0  0.105276  0.077448  0  0.992653  0
H  H12  1  0.09428519  0.38809675  0.13832721  1  0  0.058338  0  0.929169  0  0  0.076818  0  0.993242  0  0  0.075815  0  0.994216  0  0  0.105273  0.077443  0  0.992656  0
H  H13  1  0.45848863  0.54807289  0.71742749  1  0  0.102776  0  0.950973  0  0  0.115934  0  1.007201  0  0  0.118878  0  1.005813  0  0  0.104686  0.113829  0  1.008219  0
H  H14  1  0.54151085  0.45192839  0.28257357  1  0  0.102774  0  0.950962  0  0  0.115922  0  1.007204  0  0  0.118868  0  1.005815  0  0  0.104681  0.113816  0  1.008223  0
H  H15  1  0.20784516  0.72624022  0.76469128  1  0  0.094  0  0.959035  0  0  0.104867  0  1.019484  0  0  0.107027  0  1.019868  0  0  0.100599  0.103312  0  1.019308  0
H  H16  1  0.79215248  0.27376360  0.23530547  1  0  0.094013  0  0.959086  0  0  0.104825  0  1.019589  0  0  0.10699  0  1.019963  0  0  0.100577  0.10327  0  1.019413  0
H  H17  1  0.21999336  0.88642128  0.90028073  1  0  0.0969  0  0.955522  0  0  0.104554  0  1.021804  0  0  0.107654  0  1.018942  0  0  0.112025  0.10232  0  1.02383  0
H  H18  1  0.78000250  0.11358508  0.09971619  1  0  0.096899  0  0.955526  0  0  0.104568  0  1.021791  0  0  0.107669  0  1.018929  0  0  0.112031  0.102334  0  1.023817  0
H  H19  1  0.70872335  0.68637994  0.95712864  1  0  0.060897  0  1.013591  0  0  0.065812  0  1.09143  0  0  0.067977  0  1.090399  0  0  0.103556  0.064294  0  1.092212  0
H  H20  1  0.29127513  0.31362518  0.04286940  1  0  0.06092  0  1.01366  0  0  0.065827  0  1.091509  0  0  0.067991  0  1.09048  0  0  0.103585  0.064307  0  1.092293  0
H  H21  1  0.62890549  0.95124984  0.66260995  1  0  0.105101  0  0.96452  0  0  0.114536  0  1.026145  0  0  0.117343  0  1.025252  0  0  0.104752  0.112431  0  1.02702  0
H  H22  1  0.37110249  0.04873616  0.33739924  1  0  0.105096  0  0.964629  0  0  0.114571  0  1.026196  0  0  0.117377  0  1.025303  0  0  0.104763  0.112468  0  1.027067  0
H  H23  1  0.09835836  0.14219576  0.65079842  1  0  0.10398  0  0.979124  0  0  0.11024  0  1.046294  0  0  0.113369  0  1.045127  0  0  0.104093  0.107889  0  1.047358  0
H  H24  1  0.90164342  0.85780557  0.34920334  1  0  0.103936  0  0.979085  0  0  0.110174  0  1.046321  0  0  0.113299  0  1.045159  0  0  0.104065  0.107876  0  1.047305  0
H  H25  1  0.33821000  0.15390594  0.51519535  1  0  0.089795  0  0.945776  0  0  0.102338  0  1.002791  0  0  0.104967  0  1.00214  0  0  0.101673  0.100337  0  1.003529  0
H  H26  1  0.66179356  0.84609284  0.48480625  1  0  0.089816  0  0.945771  0  0  0.102364  0  1.002776  0  0  0.104994  0  1.002122  0  0  0.101689  0.100362  0  1.003514  0
H  H27  1  0.74822090  0.42912058  0.76347677  1  0  0.287527  0  0.956192  0  0  0.272342  0  1.017559  0  0  0.279092  0  1.012881  0  0  0.295183  0.267533  0  1.020896  0
H  H28  1  0.25177658  0.57087938  0.23652310  1  0  0.287494  0  0.956238  0  0  0.272311  0  1.017616  0  0  0.279061  0  1.012938  0  0  0.29517  0.267502  0  1.020953  0
C  C29  1  0.32995294  0.29216315  0.71783773  1  0  0.112961  0  3.716837  0  0  0.08124  0  3.970566  0  0  0.087583  0  3.989597  0  0  0.041894  0.077264  0  3.957567  0
C  C30  1  0.67004335  0.70783678  0.28215866  1  0  0.112702  0  3.716875  0  0  0.081021  0  3.970592  0  0  0.087342  0  3.989623  0  0  0.041822  0.077048  0  3.957584  0
C  C31  1  0.22319214  0.43717408  0.62986673  1  0  -0.123184  0  3.728445  0  0  -0.131081  0  3.976362  0  0  -0.13885  0  3.997608  0  0  -0.083059  -0.126031  0  3.962014  0
C  C32  1  0.77680451  0.56282457  0.37013276  1  0  -0.123144  0  3.728518  0  0  -0.131062  0  3.976416  0  0  -0.138834  0  3.997671  0  0  -0.083055  -0.126017  0  3.962071  0
C  C33  1  0.07826882  0.50058801  0.67671483  1  0  -0.033165  0  3.66561  0  0  -0.059973  0  3.909083  0  0  -0.056234  0  3.926876  0  0  -0.062019  -0.062128  0  3.896922  0
C  C34  1  0.92172688  0.49941448  0.32328432  1  0  -0.033013  0  3.665602  0  0  -0.059846  0  3.90905  0  0  -0.056106  0  3.926841  0  0  -0.061992  -0.062001  0  3.896886  0
C  C35  1  0.04203461  0.41512807  0.80897148  1  0  0.02785  0  3.72085  0  0  0.051777  0  3.96092  0  0  0.047381  0  3.983623  0  0  -0.000548  0.054395  0  3.94579  0
C  C36  1  0.95796515  0.58487192  0.19102730  1  0  0.027831  0  3.720863  0  0  0.05181  0  3.960873  0  0  0.047416  0  3.983574  0  0  -0.000495  0.054433  0  3.945734  0
C  C37  1  0.15195691  0.26505182  0.88778482  1  0  0.076507  0  3.678997  0  0  0.040692  0  3.92626  0  0  0.046829  0  3.943876  0  0  0.044331  0.036475  0  3.914941  0
C  C38  1  0.84803970  0.73494683  0.11221197  1  0  0.076438  0  3.679073  0  0  0.040597  0  3.926316  0  0  0.046735  0  3.94393  0  0  0.044236  0.036354  0  3.915043  0
C  C39  1  0.89644009  0.48645927  0.87008544  1  0  0.023092  0  3.730287  0  0  -0.042324  0  3.987215  0  0  -0.036125  0  4.000572  0  0  -0.051434  -0.046379  0  3.977908  0
C  C40  1  0.10356151  0.51353818  0.12991765  1  0  0.023083  0  3.730243  0  0  -0.042355  0  3.987204  0  0  -0.03616  0  4.000563  0  0  -0.05146  -0.046406  0  3.97789  0
C  C41  1  0.60767984  0.60192625  0.83241888  1  0  0.213888  0  3.852025  0  0  0.210245  0  4.09777  0  0  0.217718  0  4.119702  0  0  0.103652  0.204898  0  4.082929  0
C  C42  1  0.39231960  0.39807503  0.16757950  1  0  0.21383  0  3.851984  0  0  0.210206  0  4.097741  0  0  0.217678  0  4.119672  0  0  0.103655  0.204861  0  4.082895  0
C  C43  1  0.46089504  0.61515192  0.77912450  1  0  -0.13057  0  3.698886  0  0  -0.15084  0  3.944071  0  0  -0.152651  0  3.96238  0  0  -0.085881  -0.149358  0  3.9316  0
C  C44  1  0.53910655  0.38484553  0.22087770  1  0  -0.130565  0  3.698925  0  0  -0.150823  0  3.944081  0  0  -0.152634  0  3.96239  0  0  -0.085879  -0.149343  0  3.93161  0
C  C45  1  0.32179529  0.71443879  0.80544608  1  0  -0.102013  0  3.797583  0  0  -0.114154  0  4.05403  0  0  -0.117557  0  4.075584  0  0  -0.093335  -0.111968  0  4.039496  0
C  C46  1  0.67820482  0.28555993  0.19455490  1  0  -0.102009  0  3.797704  0  0  -0.1141  0  4.054131  0  0  -0.117505  0  4.07569  0  0  -0.093318  -0.111916  0  4.039595  0
C  C47  1  0.32714123  0.80373115  0.88166143  1  0  0.074132  0  3.724021  0  0  0.034219  0  3.9929  0  0  0.039875  0  4.009566  0  0  0.016371  0.030511  0  3.981537  0
C  C48  1  0.67285592  0.19627909  0.11833139  1  0  0.074195  0  3.723835  0  0  0.034276  0  3.992696  0  0  0.039933  0  4.009363  0  0  0.016403  0.030568  0  3.98133  0
C  C49  1  0.60097865  0.69219761  0.91145511  1  0  -0.003457  0  3.711552  0  0  -0.039559  0  3.97083  0  0  -0.03791  0  3.990489  0  0  0.01799  -0.040687  0  3.957642  0
C  C50  1  0.39901655  0.30780230  0.08854495  1  0  -0.003425  0  3.711533  0  0  -0.03954  0  3.970841  0  0  -0.037891  0  3.990501  0  0  0.017948  -0.040669  0  3.957652  0
C  C51  1  0.73405309  0.95737861  0.60230645  1  0  -0.064587  0  3.766305  0  0  -0.093761  0  4.020009  0  0  -0.091772  0  4.03847  0  0  -0.090157  -0.094971  0  4.007632  0
C  C52  1  0.26595158  0.04262019  0.39769237  1  0  -0.064581  0  3.766411  0  0  -0.093796  0  4.020117  0  0  -0.091806  0  4.038574  0  0  -0.090135  -0.095005  0  4.007735  0
C  C53  1  0.84922439  0.02259809  0.62633892  1  0  -0.161027  0  3.696017  0  0  -0.137452  0  3.94154  0  0  -0.144914  0  3.963082  0  0  -0.019333  -0.132664  0  3.927234  0
C  C54  1  0.15078552  0.97739823  0.37366034  1  0  -0.16089  0  3.695932  0  0  -0.137288  0  3.941396  0  0  -0.144749  0  3.962936  0  0  -0.019275  -0.132499  0  3.927086  0
C  C55  1  0.99082057  0.03070576  0.55119342  1  0  0.052043  0  3.741916  0  0  0.060714  0  3.970378  0  0  0.061031  0  3.994503  0  0  -0.002435  0.060575  0  3.954023  0
C  C56  1  0.00918775  0.96927895  0.44881708  1  0  0.051896  0  3.742018  0  0  0.060582  0  3.970466  0  0  0.060901  0  3.994588  0  0  -0.002455  0.060439  0  3.954122  0
C  C57  1  0.11224654  0.09663799  0.57317154  1  0  -0.106716  0  3.734789  0  0  -0.131483  0  3.992338  0  0  -0.131677  0  4.010064  0  0  -0.086205  -0.131327  0  3.980434  0
C  C58  1  0.88776017  0.90336214  0.42683115  1  0  -0.106566  0  3.734695  0  0  -0.131342  0  3.992272  0  0  -0.131534  0  4.009997  0  0  -0.086148  -0.131219  0  3.980352  0
C  C59  1  0.24621203  0.10249005  0.49783085  1  0  -0.057967  0  3.771307  0  0  -0.073415  0  4.03172  0  0  -0.07545  0  4.050489  0  0  -0.089547  -0.072012  0  4.019077  0
C  C60  1  0.75379008  0.89751000  0.50217133  1  0  -0.057997  0  3.771253  0  0  -0.073439  0  4.031664  0  0  -0.075474  0  4.050432  0  0  -0.089548  -0.072039  0  4.019034  0
S  S61  1  0.81369368  0.10233646  0.75189015  1  0  1.299831  0  5.669817  0  0  1.198702  0  6.196263  0  0  1.247606  0  6.17058  0  0  0.507571  1.164869  0  6.21305  0
S  S62  1  0.18631279  0.89765980  0.24811029  1  0  1.299839  0  5.670043  0  0  1.198715  0  6.196455  0  0  1.247614  0  6.170776  0  0  0.507588  1.164875  0  6.213242  0
N  N63  1  0.29473483  0.20676523  0.84464783  1  0  -0.328594  0  3.249539  0  0  -0.250335  0  3.515798  0  0  -0.27025  0  3.536208  0  0  -0.328568  -0.23673  0  3.50155  0
N  N64  1  0.70526282  0.79323858  0.15534982  1  0  -0.328512  0  3.249513  0  0  -0.250257  0  3.515753  0  0  -0.270173  0  3.536173  0  0  -0.328527  -0.236647  0  3.501497  0
N  N65  1  0.74902036  0.51173381  0.80551828  1  0  -0.40905  0  3.339136  0  0  -0.349691  0  3.581177  0  0  -0.371793  0  3.597402  0  0  -0.438802  -0.334174  0  3.569581  0
N  N66  1  0.25097863  0.48826489  0.19448459  1  0  -0.40896  0  3.339083  0  0  -0.349621  0  3.581145  0  0  -0.371727  0  3.597384  0  0  -0.438747  -0.334099  0  3.569528  0
N  N67  1  0.46629352  0.79212647  0.93247512  1  0  -0.322703  0  3.325842  0  0  -0.242847  0  3.592582  0  0  -0.260156  0  3.612926  0  0  -0.338349  -0.230894  0  3.578406  0
N  N68  1  0.53370330  0.20787605  0.06752303  1  0  -0.322804  0  3.325662  0  0  -0.242948  0  3.592434  0  0  -0.260255  0  3.612773  0  0  -0.338383  -0.230992  0  3.578257  0
O  O69  1  0.66970988  0.05032414  0.81720119  1  0  -0.710873  0  2.099623  0  0  -0.644201  0  2.386993  0  0  -0.667216  0  2.369019  0  0  -0.355824  -0.627855  0  2.398626  0
O  O70  1  0.33029025  0.94967458  0.18280069  1  0  -0.710869  0  2.099749  0  0  -0.644193  0  2.387116  0  0  -0.6672  0  2.369132  0  0  -0.355787  -0.627874  0  2.398815  0
O  O71  1  0.78341032  0.28964166  0.67905031  1  0  -0.666457  0  1.968612  0  0  -0.615331  0  2.211803  0  0  -0.6358  0  2.198067  0  0  -0.341016  -0.600742  0  2.220658  0
O  O72  1  0.21659774  0.71035721  0.32094464  1  0  -0.666494  0  1.968735  0  0  -0.61534  0  2.211892  0  0  -0.635819  0  2.198178  0  0  -0.341054  -0.600748  0  2.220744  0
O  O73  1  0.95375179  0.02240882  0.84088438  1  0  -0.641415  0  1.943436  0  0  -0.593807  0  2.189591  0  0  -0.614578  0  2.176509  0  0  -0.33545  -0.578889  0  2.197729  0
O  O74  1  0.04624942  0.97759506  0.15912194  1  0  -0.641398  0  1.943451  0  0  -0.59383  0  2.189624  0  0  -0.614603  0  2.176548  0  0  -0.335485  -0.578917  0  2.197772  0
