# generated using pymatgen
data_CsH3C7N2O7
_symmetry_space_group_name_H-M   'P 1'
_cell_length_a   7.41434832
_cell_length_b   7.83150048
_cell_length_c   17.59616688
_cell_angle_alpha   96.75796968
_cell_angle_beta   90.00041716
_cell_angle_gamma   90.00076398
_symmetry_Int_Tables_number   1
_chemical_formula_structural   CsH3C7N2O7
_chemical_formula_sum   'Cs4 H12 C28 N8 O28'
_cell_volume   1014.63086382
_cell_formula_units_Z   4
loop_
 _symmetry_equiv_pos_site_id
 _symmetry_equiv_pos_as_xyz
  1  'x, y, z'
loop_
 _atom_site_type_symbol
 _atom_site_label
 _atom_site_symmetry_multiplicity
 _atom_site_fract_x
 _atom_site_fract_y
 _atom_site_fract_z
 _atom_site_occupancy
 _atom_site_hle17_bader_spin_density
 _atom_site_hle17_ddec_charge
 _atom_site_hle17_ddec_spin_density
 _atom_site_hle17_ddec_sum_bond_order
 _atom_site_hle17_magmom
 _atom_site_hse06_10hf_bader_spin_density
 _atom_site_hse06_10hf_ddec_charge
 _atom_site_hse06_10hf_ddec_spin_density
 _atom_site_hse06_10hf_ddec_sum_bond_order
 _atom_site_hse06_10hf_magmom
 _atom_site_hse06_bader_spin_density
 _atom_site_hse06_ddec_charge
 _atom_site_hse06_ddec_spin_density
 _atom_site_hse06_ddec_sum_bond_order
 _atom_site_hse06_magmom
 _atom_site_pbe_bader_spin_density
 _atom_site_pbe_cm5_charge
 _atom_site_pbe_ddec_charge
 _atom_site_pbe_ddec_spin_density
 _atom_site_pbe_ddec_sum_bond_order
 _atom_site_pbe_magmom
Cs  Cs0  1  0.83079864  0.38673607  0.79798420  1  0  0.952657  0  0.568974  0  0  0.894198  0  0.813893  0  0  0.911452  0  0.787767  0  0  0.912081  0.881468  0  0.832671  0
Cs  Cs1  1  0.33080267  0.61325918  0.70201521  1  0  0.952644  0  0.568948  0  0  0.894159  0  0.813914  0  0  0.911415  0  0.787786  0  0  0.912049  0.881455  0  0.832653  0
Cs  Cs2  1  0.16919959  0.61326211  0.20201732  1  0  0.952638  0  0.569004  0  0  0.894179  0  0.813947  0  0  0.911436  0  0.787823  0  0  0.912117  0.881461  0  0.832718  0
Cs  Cs3  1  0.66919691  0.38673894  0.29798346  1  0  0.952653  0  0.569  0  0  0.894195  0  0.813954  0  0  0.91145  0  0.78783  0  0  0.912128  0.881496  0  0.832701  0
H  H4  1  0.41676740  0.31540118  0.03541363  1  0  0.149125  0  0.94877  0  0  0.151949  0  1.01652  0  0  0.156737  0  1.010474  0  0  0.130253  0.148459  0  1.020951  0
H  H5  1  0.91676769  0.68459685  0.46458892  1  0  0.14915  0  0.948742  0  0  0.151974  0  1.016483  0  0  0.156762  0  1.010437  0  0  0.130284  0.148484  0  1.020909  0
H  H6  1  0.58322004  0.68460857  0.96458845  1  0  0.149159  0  0.948779  0  0  0.152006  0  1.016514  0  0  0.156793  0  1.010467  0  0  0.130275  0.148516  0  1.02094  0
H  H7  1  0.08322514  0.31539234  0.53541273  1  0  0.149109  0  0.948756  0  0  0.151942  0  1.016496  0  0  0.156729  0  1.01045  0  0  0.130245  0.148451  0  1.020919  0
H  H8  1  0.19090061  0.01775251  0.83594601  1  0  0.134345  0  0.928322  0  0  0.137063  0  0.997517  0  0  0.142355  0  0.99066  0  0  0.130646  0.133232  0  1.002347  0
H  H9  1  0.69090133  0.98225624  0.66405248  1  0  0.134382  0  0.928327  0  0  0.137084  0  0.997521  0  0  0.142375  0  0.990666  0  0  0.130652  0.133257  0  1.002355  0
H  H10  1  0.80910167  0.98224055  0.16405697  1  0  0.134284  0  0.928354  0  0  0.137029  0  0.997545  0  0  0.14232  0  0.990687  0  0  0.130626  0.133193  0  1.002381  0
H  H11  1  0.30910230  0.01775470  0.33594454  1  0  0.134335  0  0.928359  0  0  0.137057  0  0.997545  0  0  0.142349  0  0.990688  0  0  0.130641  0.133224  0  1.00238  0
H  H12  1  0.09291550  0.66833409  0.99989063  1  0  0.386306  0  0.906928  0  0  0.357638  0  0.982615  0  0  0.371125  0  0.968978  0  0  0.300211  0.348219  0  0.991998  0
H  H13  1  0.59292316  0.33166417  0.50009908  1  0  0.386243  0  0.907016  0  0  0.357653  0  0.982565  0  0  0.37114  0  0.968931  0  0  0.300167  0.348233  0  0.991945  0
H  H14  1  0.90708273  0.33166418  0.00011601  1  0  0.386357  0  0.906919  0  0  0.357644  0  0.982663  0  0  0.371129  0  0.969033  0  0  0.300203  0.348226  0  0.992043  0
H  H15  1  0.40707507  0.66832862  0.49988910  1  0  0.386353  0  0.906852  0  0  0.357637  0  0.982617  0  0  0.371121  0  0.968997  0  0  0.300224  0.348217  0  0.991992  0
C  C16  1  0.09790548  0.74007220  0.89997103  1  0  0.663233  0  3.847481  0  0  0.614089  0  4.147755  0  0  0.64823  0  4.140881  0  0  0.208859  0.590982  0  4.151952  0
C  C17  1  0.59791383  0.25993134  0.60002237  1  0  0.663395  0  3.847716  0  0  0.614347  0  4.147844  0  0  0.648493  0  4.140961  0  0  0.209044  0.591233  0  4.152044  0
C  C18  1  0.90210759  0.25992476  0.10003384  1  0  0.663151  0  3.847368  0  0  0.614049  0  4.147613  0  0  0.648193  0  4.140732  0  0  0.208843  0.59095  0  4.151818  0
C  C19  1  0.40209789  0.74007565  0.39996935  1  0  0.663196  0  3.847309  0  0  0.614079  0  4.147535  0  0  0.648224  0  4.140659  0  0  0.208958  0.590973  0  4.151735  0
C  C20  1  0.18278560  0.89872159  0.93965837  1  0  -0.224766  0  3.723053  0  0  -0.204067  0  3.967248  0  0  -0.224134  0  3.992072  0  0  -0.036306  -0.191274  0  3.950655  0
C  C21  1  0.68280183  0.10128058  0.56033751  1  0  -0.224629  0  3.723167  0  0  -0.203903  0  3.967299  0  0  -0.223969  0  3.992124  0  0  -0.036208  -0.191101  0  3.950696  0
C  C22  1  0.81721937  0.10127793  0.06034606  1  0  -0.224752  0  3.722776  0  0  -0.204126  0  3.967086  0  0  -0.224194  0  3.991906  0  0  -0.036307  -0.191348  0  3.950518  0
C  C23  1  0.31721258  0.89871873  0.43965554  1  0  -0.2247  0  3.722901  0  0  -0.204065  0  3.967089  0  0  -0.224132  0  3.991912  0  0  -0.036332  -0.191273  0  3.950505  0
C  C24  1  0.21745794  0.91241839  0.02156058  1  0  0.360522  0  3.817882  0  0  0.336248  0  4.086211  0  0  0.358688  0  4.099349  0  0  0.120562  0.321567  0  4.076808  0
C  C25  1  0.71747570  0.08757553  0.47843603  1  0  0.360527  0  3.817833  0  0  0.336083  0  4.086422  0  0  0.358526  0  4.099558  0  0  0.120487  0.321402  0  4.077016  0
C  C26  1  0.78254433  0.08759011  0.97844315  1  0  0.360769  0  3.817541  0  0  0.336494  0  4.085879  0  0  0.358937  0  4.099007  0  0  0.12053  0.321812  0  4.076486  0
C  C27  1  0.28253737  0.91241736  0.52155728  1  0  0.360518  0  3.81798  0  0  0.336307  0  4.086231  0  0  0.358745  0  4.099368  0  0  0.120577  0.321626  0  4.076832  0
C  C28  1  0.30473441  0.07038589  0.05398229  1  0  -0.049388  0  3.614634  0  0  -0.065233  0  3.867237  0  0  -0.079364  0  3.889832  0  0  0.064698  -0.056427  0  3.852171  0
C  C29  1  0.80474458  0.92960799  0.44601743  1  0  -0.049191  0  3.614448  0  0  -0.064995  0  3.867138  0  0  -0.079128  0  3.889739  0  0  0.064667  -0.056191  0  3.852069  0
C  C30  1  0.69524764  0.92962130  0.94602024  1  0  -0.049421  0  3.614806  0  0  -0.065232  0  3.867372  0  0  -0.079356  0  3.889952  0  0  0.064726  -0.05642  0  3.852294  0
C  C31  1  0.19526175  0.07038629  0.55398162  1  0  -0.049316  0  3.614632  0  0  -0.065141  0  3.867219  0  0  -0.079259  0  3.889796  0  0  0.064741  -0.056331  0  3.852144  0
C  C32  1  0.34927426  0.19961434  0.00940345  1  0  -0.080728  0  3.688467  0  0  -0.123435  0  3.962849  0  0  -0.111492  0  3.9744  0  0  -0.057433  -0.130432  0  3.95401  0
C  C33  1  0.84927392  0.80038271  0.49059657  1  0  -0.080783  0  3.688526  0  0  -0.123418  0  3.962913  0  0  -0.111471  0  3.974456  0  0  -0.057418  -0.130407  0  3.954063  0
C  C34  1  0.65071184  0.80039542  0.99059920  1  0  -0.080693  0  3.688706  0  0  -0.123498  0  3.963105  0  0  -0.111556  0  3.97466  0  0  -0.057464  -0.130489  0  3.954254  0
C  C35  1  0.15072026  0.19961029  0.50940300  1  0  -0.080674  0  3.688591  0  0  -0.123372  0  3.962963  0  0  -0.111431  0  3.974517  0  0  -0.057392  -0.13036  0  3.954106  0
C  C36  1  0.30645285  0.18000983  0.93188631  1  0  0.050956  0  3.720431  0  0  0.031077  0  3.986297  0  0  0.024339  0  4.012062  0  0  0.068959  0.038243  0  3.971004  0
C  C37  1  0.80644560  0.81999150  0.56811219  1  0  0.051072  0  3.720631  0  0  0.031064  0  3.986686  0  0  0.024396  0  4.012488  0  0  0.068946  0.038231  0  3.971389  0
C  C38  1  0.69353729  0.81999482  0.06811780  1  0  0.050842  0  3.720576  0  0  0.031068  0  3.986319  0  0  0.024342  0  4.012097  0  0  0.069001  0.038233  0  3.971022  0
C  C39  1  0.19354858  0.18000791  0.43188655  1  0  0.050857  0  3.720569  0  0  0.030957  0  3.986448  0  0  0.024248  0  4.012236  0  0  0.068919  0.038122  0  3.971148  0
C  C40  1  0.22255471  0.03077760  0.89689727  1  0  -0.020929  0  3.679919  0  0  -0.065818  0  3.947494  0  0  -0.053152  0  3.958661  0  0  -0.051713  -0.073286  0  3.938873  0
C  C41  1  0.72255825  0.96922644  0.60310110  1  0  -0.021184  0  3.680279  0  0  -0.065984  0  3.947829  0  0  -0.053317  0  3.958988  0  0  -0.051746  -0.073459  0  3.939212  0
C  C42  1  0.77744622  0.96922061  0.10310596  1  0  -0.020858  0  3.679819  0  0  -0.065798  0  3.947411  0  0  -0.053129  0  3.958572  0  0  -0.051729  -0.073263  0  3.938799  0
C  C43  1  0.27744672  0.03078065  0.39689631  1  0  -0.020983  0  3.679934  0  0  -0.065841  0  3.947495  0  0  -0.053172  0  3.958657  0  0  -0.051729  -0.073308  0  3.938882  0
N  N44  1  0.35182644  0.10096677  0.13448582  1  0  0.497643  0  3.94313  0  0  0.564681  0  4.184585  0  0  0.587426  0  4.193587  0  0  0.04848  0.549521  0  4.178532  0
N  N45  1  0.85182941  0.89902389  0.36551390  1  0  0.497357  0  3.94283  0  0  0.564329  0  4.184362  0  0  0.587073  0  4.193364  0  0  0.048389  0.549172  0  4.178308  0
N  N46  1  0.64816370  0.89904299  0.86551683  1  0  0.497307  0  3.943439  0  0  0.564429  0  4.184773  0  0  0.587173  0  4.193782  0  0  0.048417  0.549266  0  4.178716  0
N  N47  1  0.14817557  0.10096140  0.63448529  1  0  0.497561  0  3.943153  0  0  0.564501  0  4.184764  0  0  0.587244  0  4.193774  0  0  0.048376  0.54934  0  4.178706  0
N  N48  1  0.35041817  0.31602856  0.88627472  1  0  0.475343  0  3.970373  0  0  0.540198  0  4.219482  0  0  0.5455  0  4.255943  0  0  0.039427  0.525049  0  4.213501  0
N  N49  1  0.85041248  0.68398240  0.61372609  1  0  0.475285  0  3.970442  0  0  0.540055  0  4.219701  0  0  0.545112  0  4.256493  0  0  0.039334  0.524908  0  4.213716  0
N  N50  1  0.64957736  0.68396575  0.11372604  1  0  0.47523  0  3.970335  0  0  0.540113  0  4.219335  0  0  0.545365  0  4.255876  0  0  0.039409  0.524964  0  4.213363  0
N  N51  1  0.14957900  0.31602863  0.38627606  1  0  0.47539  0  3.970271  0  0  0.540261  0  4.219342  0  0  0.545453  0  4.255951  0  0  0.03943  0.525112  0  4.213365  0
O  O52  1  0.05436105  0.61885440  0.94392664  1  0  -0.557038  0  2.061839  0  0  -0.507786  0  2.280459  0  0  -0.530524  0  2.267406  0  0  -0.35583  -0.491955  0  2.288945  0
O  O53  1  0.55436631  0.38114724  0.55606539  1  0  -0.557079  0  2.061842  0  0  -0.507921  0  2.280383  0  0  -0.530663  0  2.267331  0  0  -0.35581  -0.492111  0  2.288916  0
O  O54  1  0.94565066  0.38114515  0.05607949  1  0  -0.557018  0  2.062048  0  0  -0.507732  0  2.280681  0  0  -0.530488  0  2.26766  0  0  -0.355762  -0.491866  0  2.289094  0
O  O55  1  0.44563327  0.61885071  0.44392361  1  0  -0.557104  0  2.061909  0  0  -0.507821  0  2.280591  0  0  -0.530563  0  2.26754  0  0  -0.355835  -0.491981  0  2.289066  0
O  O56  1  0.06778478  0.72104979  0.83036993  1  0  -0.620665  0  1.974802  0  0  -0.583719  0  2.208698  0  0  -0.606351  0  2.201274  0  0  -0.429557  -0.568042  0  2.213453  0
O  O57  1  0.56779053  0.27894042  0.66961988  1  0  -0.620652  0  1.975059  0  0  -0.583743  0  2.208901  0  0  -0.606375  0  2.201474  0  0  -0.429635  -0.568056  0  2.213643  0
O  O58  1  0.93222424  0.27894210  0.16963867  1  0  -0.620646  0  1.974692  0  0  -0.583692  0  2.208547  0  0  -0.606325  0  2.201126  0  0  -0.429562  -0.568006  0  2.213276  0
O  O59  1  0.43223468  0.72106260  0.33036596  1  0  -0.620627  0  1.974654  0  0  -0.583676  0  2.208516  0  0  -0.606311  0  2.201097  0  0  -0.429614  -0.567993  0  2.213259  0
O  O60  1  0.16880446  0.79172773  0.06007683  1  0  -0.557392  0  2.07404  0  0  -0.518186  0  2.307914  0  0  -0.54464  0  2.30675  0  0  -0.382143  -0.499748  0  2.308115  0
O  O61  1  0.66881247  0.20826556  0.43992129  1  0  -0.557529  0  2.074121  0  0  -0.518312  0  2.308089  0  0  -0.544769  0  2.306927  0  0  -0.382213  -0.499871  0  2.308288  0
O  O62  1  0.83118838  0.20828341  0.93993100  1  0  -0.557615  0  2.073919  0  0  -0.51839  0  2.307826  0  0  -0.544839  0  2.306655  0  0  -0.382191  -0.499952  0  2.308026  0
O  O63  1  0.33118576  0.79173116  0.56007049  1  0  -0.557418  0  2.074078  0  0  -0.518196  0  2.307951  0  0  -0.544645  0  2.306789  0  0  -0.38215  -0.499757  0  2.308148  0
O  O64  1  0.34855283  0.97969869  0.17421744  1  0  -0.36211  0  1.764563  0  0  -0.361581  0  1.962403  0  0  -0.372025  0  1.957231  0  0  -0.162072  -0.35453  0  1.966054  0
O  O65  1  0.84854681  0.02029323  0.32578346  1  0  -0.362091  0  1.764486  0  0  -0.3615  0  1.962297  0  0  -0.371942  0  1.957123  0  0  -0.162041  -0.35445  0  1.965949  0
O  O66  1  0.65145080  0.02031626  0.82578831  1  0  -0.36203  0  1.764588  0  0  -0.361532  0  1.962398  0  0  -0.371981  0  1.957232  0  0  -0.162073  -0.354473  0  1.966038  0
O  O67  1  0.15145547  0.97969204  0.67421515  1  0  -0.362052  0  1.764558  0  0  -0.361512  0  1.962479  0  0  -0.371959  0  1.957311  0  0  -0.161991  -0.354459  0  1.966124  0
O  O68  1  0.39898896  0.24989402  0.16044234  1  0  -0.425148  0  1.815743  0  0  -0.425836  0  2.033192  0  0  -0.440556  0  2.029769  0  0  -0.21396  -0.415832  0  2.035633  0
O  O69  1  0.89898805  0.75009603  0.33955920  1  0  -0.424979  0  1.815593  0  0  -0.425658  0  2.033088  0  0  -0.440379  0  2.029668  0  0  -0.213864  -0.415651  0  2.035525  0
O  O70  1  0.60100657  0.75011567  0.83955634  1  0  -0.424937  0  1.815762  0  0  -0.425663  0  2.033185  0  0  -0.440384  0  2.029765  0  0  -0.21389  -0.415658  0  2.035619  0
O  O71  1  0.10100883  0.24988545  0.66044264  1  0  -0.425145  0  1.815768  0  0  -0.425786  0  2.033218  0  0  -0.440507  0  2.029798  0  0  -0.213951  -0.415779  0  2.035651  0
O  O72  1  0.46185985  0.42706300  0.91203082  1  0  -0.373443  0  1.794988  0  0  -0.370328  0  2.001789  0  0  -0.376334  0  2.004959  0  0  -0.154623  -0.362325  0  2.005556  0
O  O73  1  0.96185081  0.57295201  0.58796827  1  0  -0.373446  0  1.794938  0  0  -0.370263  0  2.001749  0  0  -0.376186  0  2.005027  0  0  -0.154567  -0.362258  0  2.005512  0
O  O74  1  0.53813704  0.57293512  0.08796786  1  0  -0.373327  0  1.794822  0  0  -0.37026  0  2.001645  0  0  -0.376245  0  2.004836  0  0  -0.154587  -0.362258  0  2.005418  0
O  O75  1  0.03813663  0.42705647  0.41203432  1  0  -0.373416  0  1.794815  0  0  -0.370347  0  2.001667  0  0  -0.376312  0  2.004879  0  0  -0.154628  -0.362344  0  2.005434  0
O  O76  1  0.27509610  0.31521640  0.82275256  1  0  -0.398515  0  1.795159  0  0  -0.401127  0  2.008563  0  0  -0.407254  0  2.011901  0  0  -0.180563  -0.392901  0  2.012147  0
O  O77  1  0.77509825  0.68479483  0.67724860  1  0  -0.398507  0  1.795193  0  0  -0.401087  0  2.008648  0  0  -0.407128  0  2.012091  0  0  -0.180543  -0.39286  0  2.012232  0
O  O78  1  0.72490483  0.68476634  0.17724764  1  0  -0.398446  0  1.795193  0  0  -0.401109  0  2.008662  0  0  -0.407221  0  2.012025  0  0  -0.180594  -0.392887  0  2.012255  0
O  O79  1  0.22490133  0.31522135  0.32275380  1  0  -0.39852  0  1.795161  0  0  -0.401146  0  2.008589  0  0  -0.407235  0  2.011974  0  0  -0.180559  -0.392924  0  2.01218  0
