# generated using pymatgen
data_CdH18C22(SN6)2
_symmetry_space_group_name_H-M   'P 1'
_cell_length_a   9.66187812
_cell_length_b   9.66187873
_cell_length_c   13.92422499
_cell_angle_alpha   94.61879078
_cell_angle_beta   94.61872499
_cell_angle_gamma   99.32516363
_symmetry_Int_Tables_number   1
_chemical_formula_structural   CdH18C22(SN6)2
_chemical_formula_sum   'Cd2 H36 C44 S4 N24'
_cell_volume   1272.71048583
_cell_formula_units_Z   2
loop_
 _symmetry_equiv_pos_site_id
 _symmetry_equiv_pos_as_xyz
  1  'x, y, z'
loop_
 _atom_site_type_symbol
 _atom_site_label
 _atom_site_symmetry_multiplicity
 _atom_site_fract_x
 _atom_site_fract_y
 _atom_site_fract_z
 _atom_site_occupancy
 _atom_site_pbe_bader_spin_density
 _atom_site_pbe_cm5_charge
 _atom_site_pbe_ddec_charge
 _atom_site_pbe_ddec_spin_density
 _atom_site_pbe_ddec_sum_bond_order
 _atom_site_pbe_magmom
Cd  Cd0  1  0.49999367  0.99999713  0.99999704  1  0  0.818472  0.801817  0  2.434035  0
Cd  Cd1  1  0.00000309  0.50000285  0.50000289  1  0  0.818472  0.801866  0  2.434054  0
H  H2  1  0.73016135  0.27991313  0.59657654  1  0  0.107967  0.122959  0  1.012929  0
H  H3  1  0.72008582  0.26983553  0.90342381  1  0  0.107956  0.122952  0  1.013003  0
H  H4  1  0.26983233  0.72008788  0.40342338  1  0  0.107927  0.122917  0  1.013036  0
H  H5  1  0.27991427  0.73016656  0.09657650  1  0  0.107952  0.122941  0  1.013007  0
H  H6  1  0.48928898  0.18466403  0.64157395  1  0  0.091221  0.099861  0  1.028803  0
H  H7  1  0.81533467  0.51070780  0.85842429  1  0  0.091196  0.099844  0  1.028808  0
H  H8  1  0.51070746  0.81533488  0.35842457  1  0  0.091216  0.099846  0  1.028788  0
H  H9  1  0.18466591  0.48929112  0.14157301  1  0  0.091225  0.099868  0  1.028815  0
H  H10  1  0.31037474  0.33709768  0.65788171  1  0  0.097821  0.097795  0  1.035388  0
H  H11  1  0.66289967  0.68962230  0.84211517  1  0  0.097826  0.097821  0  1.035338  0
H  H12  1  0.68962083  0.66290227  0.34211610  1  0  0.097831  0.097838  0  1.03533  0
H  H13  1  0.33710092  0.31037662  0.15788213  1  0  0.097831  0.097841  0  1.035326  0
H  H14  1  0.36253491  0.59364147  0.63806589  1  0  0.104107  0.121463  0  1.029372  0
H  H15  1  0.40635613  0.63746490  0.86193194  1  0  0.104097  0.121475  0  1.029352  0
H  H16  1  0.63746811  0.40635957  0.36193236  1  0  0.104101  0.121442  0  1.029357  0
H  H17  1  0.59364376  0.36253612  0.13806544  1  0  0.104116  0.121485  0  1.029346  0
H  H18  1  0.49357614  0.84086477  0.59112565  1  0  0.127227  0.099473  0  1.006179  0
H  H19  1  0.15913355  0.50642248  0.90887436  1  0  0.127243  0.099503  0  1.006132  0
H  H20  1  0.50642586  0.15913628  0.40887471  1  0  0.127271  0.099526  0  1.006172  0
H  H21  1  0.84086705  0.49357646  0.09112510  1  0  0.127246  0.099506  0  1.006113  0
H  H22  1  0.66443923  0.91726078  0.56066238  1  0  0.119827  0.091773  0  1.030385  0
H  H23  1  0.08273562  0.33556035  0.93933754  1  0  0.119847  0.091825  0  1.030283  0
H  H24  1  0.33556347  0.08273819  0.43933934  1  0  0.119831  0.091814  0  1.030331  0
H  H25  1  0.91726603  0.66443860  0.06066198  1  0  0.119866  0.091845  0  1.030248  0
H  H26  1  0.86955892  0.91953181  0.71956497  1  0  0.12591  0.131858  0  1.010155  0
H  H27  1  0.08046899  0.13043905  0.78043573  1  0  0.125892  0.131823  0  1.010164  0
H  H28  1  0.13044379  0.08046717  0.28043747  1  0  0.125922  0.131842  0  1.010197  0
H  H29  1  0.91953214  0.86955674  0.21956503  1  0  0.125877  0.131761  0  1.010221  0
H  H30  1  0.84070858  0.00053135  0.91294002  1  0  0.11391  0.11046  0  1.02413  0
H  H31  1  0.99946928  0.15928852  0.58705949  1  0  0.11392  0.110485  0  1.024129  0
H  H32  1  0.15928904  0.99946863  0.08706318  1  0  0.113913  0.110488  0  1.024103  0
H  H33  1  0.00052975  0.84070552  0.41294028  1  0  0.113921  0.110465  0  1.024162  0
H  H34  1  0.43682601  0.90845373  0.75857999  1  0  0.127355  0.10001  0  1.041  0
H  H35  1  0.09154422  0.56317022  0.74141993  1  0  0.127359  0.100019  0  1.041015  0
H  H36  1  0.56317512  0.09154838  0.24142038  1  0  0.127351  0.099988  0  1.040966  0
H  H37  1  0.90845345  0.43682344  0.25857982  1  0  0.127347  0.099985  0  1.040969  0
C  C38  1  0.68132276  0.49189008  0.59543117  1  0  0.094177  0.112163  0  4.064156  0
C  C39  1  0.50810978  0.31867521  0.90456795  1  0  0.094194  0.112243  0  4.064079  0
C  C40  1  0.31867698  0.50810991  0.40456830  1  0  0.094176  0.112204  0  4.064065  0
C  C41  1  0.49189186  0.68132372  0.09543084  1  0  0.094176  0.112235  0  4.06399  0
C  C42  1  0.65160646  0.34732639  0.60683323  1  0  -0.085213  -0.13667  0  3.950411  0
C  C43  1  0.65267616  0.34838997  0.89316662  1  0  -0.085165  -0.136669  0  3.950245  0
C  C44  1  0.34838878  0.65267779  0.39316693  1  0  -0.085124  -0.136641  0  3.950229  0
C  C45  1  0.34732583  0.65161108  0.10683302  1  0  -0.085179  -0.13667  0  3.950211  0
C  C46  1  0.51787269  0.29606785  0.63125367  1  0  -0.094908  -0.084224  0  3.985137  0
C  C47  1  0.70393168  0.48212744  0.86874625  1  0  -0.094912  -0.084204  0  3.984945  0
C  C48  1  0.48212620  0.70393320  0.36874724  1  0  -0.094962  -0.084206  0  3.984998  0
C  C49  1  0.29606822  0.51787359  0.13125256  1  0  -0.094939  -0.084232  0  3.984964  0
C  C50  1  0.41529216  0.38420412  0.64188337  1  0  -0.088355  -0.062679  0  3.973739  0
C  C51  1  0.61579333  0.58470767  0.85811794  1  0  -0.08839  -0.062766  0  3.973709  0
C  C52  1  0.58470448  0.61579586  0.35811737  1  0  -0.08835  -0.062784  0  3.97379  0
C  C53  1  0.38420659  0.41529337  0.14188159  1  0  -0.088385  -0.062778  0  3.973679  0
C  C54  1  0.44324958  0.52747431  0.63128611  1  0  -0.090801  -0.154702  0  3.981477  0
C  C55  1  0.47252508  0.55674924  0.86871386  1  0  -0.090818  -0.154731  0  3.981567  0
C  C56  1  0.55674929  0.47252672  0.36871337  1  0  -0.090809  -0.154643  0  3.981464  0
C  C57  1  0.52747586  0.44325179  0.13128428  1  0  -0.090812  -0.154706  0  3.981527  0
C  C58  1  0.57966009  0.57978951  0.60922353  1  0  0.103879  0.078011  0  4.021827  0
C  C59  1  0.42020973  0.42033943  0.89077572  1  0  0.103908  0.078021  0  4.02193  0
C  C60  1  0.42034000  0.42021258  0.39077606  1  0  0.103887  0.077955  0  4.021962  0
C  C61  1  0.57979139  0.57966266  0.10922393  1  0  0.103912  0.078008  0  4.021964  0
C  C62  1  0.60744284  0.84786540  0.60871068  1  0  0.065222  0.001882  0  3.857558  0
C  C63  1  0.15213499  0.39255600  0.89129012  1  0  0.065199  0.001762  0  3.857536  0
C  C64  1  0.39255917  0.15213567  0.39129112  1  0  0.065155  0.001686  0  3.857711  0
C  C65  1  0.84786666  0.60744294  0.10871011  1  0  0.065157  0.001744  0  3.857466  0
C  C66  1  0.77792336  0.93333177  0.75691654  1  0  -0.00319  -0.116851  0  3.929857  0
C  C67  1  0.06666575  0.22207460  0.74308332  1  0  -0.003183  -0.116864  0  3.929881  0
C  C68  1  0.22207917  0.06666614  0.24308512  1  0  -0.003226  -0.116881  0  3.930119  0
C  C69  1  0.93333227  0.77792118  0.25691727  1  0  -0.003141  -0.116727  0  3.929845  0
C  C70  1  0.76124520  0.97193171  0.85186008  1  0  -0.002511  -0.03009  0  4.018605  0
C  C71  1  0.02806644  0.23874996  0.64814040  1  0  -0.002441  -0.029985  0  4.018475  0
C  C72  1  0.23875456  0.02806830  0.14814226  1  0  -0.002494  -0.030041  0  4.018605  0
C  C73  1  0.97193123  0.76124371  0.35186007  1  0  -0.002516  -0.030104  0  4.018676  0
C  C74  1  0.55028406  0.92381461  0.77598360  1  0  0.138961  0.093074  0  3.913202  0
C  C75  1  0.07618185  0.44971397  0.72401629  1  0  0.139011  0.093071  0  3.913181  0
C  C76  1  0.44971777  0.07618540  0.22401742  1  0  0.138952  0.093093  0  3.913091  0
C  C77  1  0.92381737  0.55028285  0.27598298  1  0  0.138988  0.0931  0  3.913074  0
C  C78  1  0.18699811  0.80760541  0.91020319  1  0  0.127735  0.257514  0  4.379243  0
C  C79  1  0.19239162  0.81300188  0.58979693  1  0  0.12766  0.2574  0  4.37932  0
C  C80  1  0.81299198  0.19239246  0.08980068  1  0  0.127719  0.257501  0  4.379573  0
C  C81  1  0.80760934  0.18699918  0.41020409  1  0  0.127715  0.257481  0  4.379278  0
S  S82  1  0.01967405  0.74619728  0.90070461  1  0  -0.181293  -0.365589  0  2.32684  0
S  S83  1  0.25380380  0.98032823  0.59929086  1  0  -0.18131  -0.36558  0  2.326771  0
S  S84  1  0.98032720  0.25380581  0.09928936  1  0  -0.18139  -0.36572  0  2.326534  0
S  S85  1  0.74619928  0.01967287  0.40071458  1  0  -0.181325  -0.36561  0  2.326804  0
N  N86  1  0.61939475  0.96590429  0.86241602  1  0  -0.354882  -0.287633  0  3.514305  0
N  N87  1  0.03409301  0.38060181  0.63758454  1  0  -0.354941  -0.287764  0  3.514304  0
N  N88  1  0.38060621  0.03409676  0.13758428  1  0  -0.354891  -0.287722  0  3.514322  0
N  N89  1  0.96590484  0.61939291  0.36241599  1  0  -0.354952  -0.287767  0  3.51438  0
N  N90  1  0.64317339  0.90364336  0.70956387  1  0  -0.244417  0.017098  0  3.766288  0
N  N91  1  0.09635349  0.35682367  0.79043667  1  0  -0.244501  0.017146  0  3.76627  0
N  N92  1  0.35682758  0.09635769  0.29043715  1  0  -0.244389  0.017172  0  3.766321  0
N  N93  1  0.90364470  0.64317316  0.20956399  1  0  -0.244431  0.017177  0  3.766142  0
N  N94  1  0.64773456  0.71062710  0.59230487  1  0  -0.129841  0.058169  0  3.734225  0
N  N95  1  0.28937196  0.35226600  0.90769517  1  0  -0.129853  0.058198  0  3.734396  0
N  N96  1  0.35226762  0.28937501  0.40769555  1  0  -0.129867  0.058295  0  3.734329  0
N  N97  1  0.71062918  0.64773610  0.09230520  1  0  -0.129864  0.058151  0  3.734198  0
N  N98  1  0.78093110  0.70460028  0.56972712  1  0  -0.07048  -0.065608  0  3.139862  0
N  N99  1  0.29540100  0.21907058  0.93027447  1  0  -0.070469  -0.065625  0  3.140171  0
N  N100  1  0.21907109  0.29540185  0.43027618  1  0  -0.070447  -0.065675  0  3.139913  0
N  N101  1  0.70460116  0.78093152  0.06972524  1  0  -0.070444  -0.065601  0  3.139936  0
N  N102  1  0.80097935  0.57465947  0.57076462  1  0  -0.195045  -0.185366  0  3.426615  0
N  N103  1  0.42533909  0.19902179  0.92923602  1  0  -0.19505  -0.185376  0  3.426889  0
N  N104  1  0.19902162  0.42534159  0.42923712  1  0  -0.195043  -0.18533  0  3.426659  0
N  N105  1  0.57466203  0.80098031  0.07076363  1  0  -0.195039  -0.185351  0  3.426677  0
N  N106  1  0.31020120  0.85060402  0.91631886  1  0  -0.413599  -0.505037  0  3.154739  0
N  N107  1  0.14939284  0.68980493  0.58368010  1  0  -0.413501  -0.504917  0  3.154854  0
N  N108  1  0.68980733  0.14939912  0.08367620  1  0  -0.413508  -0.504931  0  3.155264  0
N  N109  1  0.85060241  0.31019926  0.41632150  1  0  -0.413549  -0.504984  0  3.154709  0
