# generated using pymatgen
data_SrH30C20(NO4)4
_symmetry_space_group_name_H-M   'P 1'
_cell_length_a   5.94505280
_cell_length_b   10.34067819
_cell_length_c   22.00807748
_cell_angle_alpha   98.34964267
_cell_angle_beta   97.74963440
_cell_angle_gamma   90.00309851
_symmetry_Int_Tables_number   1
_chemical_formula_structural   SrH30C20(NO4)4
_chemical_formula_sum   'Sr2 H60 C40 N8 O32'
_cell_volume   1326.13285638
_cell_formula_units_Z   2
loop_
 _symmetry_equiv_pos_site_id
 _symmetry_equiv_pos_as_xyz
  1  'x, y, z'
loop_
 _atom_site_type_symbol
 _atom_site_label
 _atom_site_symmetry_multiplicity
 _atom_site_fract_x
 _atom_site_fract_y
 _atom_site_fract_z
 _atom_site_occupancy
 _atom_site_hle17_bader_spin_density
 _atom_site_hle17_ddec_charge
 _atom_site_hle17_ddec_spin_density
 _atom_site_hle17_ddec_sum_bond_order
 _atom_site_hle17_magmom
 _atom_site_hse06_10hf_bader_spin_density
 _atom_site_hse06_10hf_ddec_charge
 _atom_site_hse06_10hf_ddec_spin_density
 _atom_site_hse06_10hf_ddec_sum_bond_order
 _atom_site_hse06_10hf_magmom
 _atom_site_hse06_bader_spin_density
 _atom_site_hse06_ddec_charge
 _atom_site_hse06_ddec_spin_density
 _atom_site_hse06_ddec_sum_bond_order
 _atom_site_hse06_magmom
 _atom_site_pbe_bader_spin_density
 _atom_site_pbe_cm5_charge
 _atom_site_pbe_ddec_charge
 _atom_site_pbe_ddec_spin_density
 _atom_site_pbe_ddec_sum_bond_order
 _atom_site_pbe_magmom
Sr  Sr0  1  0.94137122  0.24998831  0.00001182  1  0  1.641682  0  1.113141  0  0  1.500528  0  1.498072  0  0  1.536898  0  1.45116  0  0  0.9374  1.473401  0  1.532379  0
Sr  Sr1  1  0.05862747  0.75001142  0.99998806  1  0  1.641705  0  1.113098  0  0  1.500536  0  1.498048  0  0  1.53691  0  1.451123  0  0  0.9374  1.473408  0  1.532358  0
H  H2  1  0.39886544  0.36108287  0.08575956  1  0  0.425115  0  0.857354  0  0  0.393847  0  0.930669  0  0  0.402981  0  0.917127  0  0  0.311119  0.387293  0  0.940436  0
H  H3  1  0.68664617  0.86102795  0.08573682  1  0  0.424972  0  0.857891  0  0  0.393659  0  0.930936  0  0  0.402781  0  0.917414  0  0  0.311206  0.387109  0  0.940697  0
H  H4  1  0.60113495  0.63891685  0.91424083  1  0  0.425082  0  0.85746  0  0  0.393824  0  0.93071  0  0  0.402963  0  0.917161  0  0  0.311093  0.387263  0  0.940493  0
H  H5  1  0.31335425  0.13897275  0.91426319  1  0  0.424942  0  0.857857  0  0  0.393635  0  0.930951  0  0  0.402756  0  0.91743  0  0  0.3112  0.387086  0  0.940712  0
H  H6  1  0.34208598  0.48486077  0.05190928  1  0  0.434888  0  0.864468  0  0  0.404242  0  0.926894  0  0  0.414903  0  0.911441  0  0  0.303699  0.396494  0  0.9381  0
H  H7  1  0.70969293  0.98485966  0.05192647  1  0  0.435667  0  0.863448  0  0  0.404854  0  0.926135  0  0  0.415515  0  0.910674  0  0  0.30405  0.397097  0  0.937368  0
H  H8  1  0.65791271  0.51513894  0.94809150  1  0  0.434867  0  0.864496  0  0  0.404221  0  0.926921  0  0  0.414881  0  0.911469  0  0  0.3037  0.396474  0  0.938126  0
H  H9  1  0.29030749  0.01514104  0.94807353  1  0  0.435654  0  0.863465  0  0  0.404844  0  0.926148  0  0  0.415504  0  0.910688  0  0  0.304058  0.397088  0  0.937378  0
H  H10  1  0.48689529  0.31921971  0.91427003  1  0  0.419202  0  0.87962  0  0  0.387394  0  0.947653  0  0  0.397256  0  0.933214  0  0  0.304224  0.380339  0  0.958015  0
H  H11  1  0.42746040  0.81913226  0.91425606  1  0  0.419311  0  0.880177  0  0  0.387596  0  0.947515  0  0  0.397464  0  0.93307  0  0  0.304171  0.380499  0  0.957952  0
H  H12  1  0.51310506  0.68077903  0.08573029  1  0  0.419182  0  0.879648  0  0  0.38737  0  0.947684  0  0  0.397234  0  0.933244  0  0  0.304214  0.380317  0  0.958045  0
H  H13  1  0.57254168  0.18086746  0.08574393  1  0  0.419338  0  0.880178  0  0  0.387609  0  0.947501  0  0  0.39747  0  0.933066  0  0  0.304191  0.380522  0  0.957924  0
H  H14  1  0.46697220  0.36615841  0.98552656  1  0  0.421261  0  0.883848  0  0  0.391539  0  0.948037  0  0  0.402193  0  0.932557  0  0  0.306321  0.38393  0  0.959132  0
H  H15  1  0.51851643  0.86616959  0.98550372  1  0  0.42254  0  0.880699  0  0  0.391963  0  0.9471  0  0  0.402666  0  0.931564  0  0  0.306336  0.38435  0  0.958191  0
H  H16  1  0.53302652  0.63384228  0.01447384  1  0  0.421272  0  0.883856  0  0  0.391553  0  0.948018  0  0  0.402206  0  0.93254  0  0  0.306335  0.383945  0  0.959111  0
H  H17  1  0.48148396  0.13383014  0.01449621  1  0  0.422524  0  0.880744  0  0  0.39193  0  0.947158  0  0  0.402636  0  0.931618  0  0  0.306325  0.384318  0  0.958249  0
H  H18  1  0.57361102  0.30825394  0.27929401  1  0  0.320874  0  0.92861  0  0  0.295609  0  1.003612  0  0  0.305746  0  0.994922  0  0  0.303929  0.288179  0  1.010163  0
H  H19  1  0.70585892  0.80821814  0.27931107  1  0  0.321915  0  0.927909  0  0  0.296385  0  1.003455  0  0  0.30661  0  0.994567  0  0  0.304193  0.288877  0  1.010159  0
H  H20  1  0.42639106  0.69174578  0.72070598  1  0  0.32089  0  0.928621  0  0  0.295626  0  1.003607  0  0  0.305768  0  0.994914  0  0  0.303935  0.288194  0  1.010161  0
H  H21  1  0.29414147  0.19178157  0.72068931  1  0  0.321939  0  0.927888  0  0  0.296403  0  1.003444  0  0  0.306629  0  0.994555  0  0  0.3042  0.288894  0  1.010149  0
H  H22  1  0.44038254  0.89919017  0.18494998  1  0  0.322459  0  0.906398  0  0  0.294983  0  0.986558  0  0  0.305208  0  0.976927  0  0  0.309308  0.287537  0  0.993772  0
H  H23  1  0.74472995  0.39927909  0.18496445  1  0  0.321036  0  0.907383  0  0  0.294099  0  0.987094  0  0  0.304305  0  0.977418  0  0  0.308934  0.286665  0  0.994293  0
H  H24  1  0.55961446  0.10080956  0.81504937  1  0  0.322452  0  0.906415  0  0  0.294981  0  0.986566  0  0  0.305205  0  0.976938  0  0  0.309308  0.287535  0  0.993778  0
H  H25  1  0.25526874  0.60072063  0.81503587  1  0  0.321006  0  0.907419  0  0  0.29409  0  0.987101  0  0  0.304299  0  0.977422  0  0  0.308928  0.286646  0  0.994311  0
H  H26  1  0.92756798  0.02334825  0.19396962  1  0  0.097164  0  0.916092  0  0  0.114776  0  0.971536  0  0  0.116535  0  0.971501  0  0  0.100496  0.113441  0  0.971706  0
H  H27  1  0.26665742  0.52350377  0.19387477  1  0  0.097739  0  0.91679  0  0  0.115193  0  0.972261  0  0  0.116882  0  0.972339  0  0  0.100449  0.113889  0  0.972391  0
H  H28  1  0.07243075  0.97665245  0.80602986  1  0  0.097152  0  0.916105  0  0  0.114756  0  0.971557  0  0  0.116514  0  0.971527  0  0  0.100497  0.113424  0  0.971725  0
H  H29  1  0.73334297  0.47649594  0.80612562  1  0  0.097745  0  0.916808  0  0  0.115209  0  0.97224  0  0  0.116898  0  0.972321  0  0  0.100455  0.113912  0  0.972364  0
H  H30  1  0.95585279  0.19063466  0.18623344  1  0  0.102747  0  0.931023  0  0  0.115565  0  0.994118  0  0  0.117579  0  0.993549  0  0  0.103787  0.114016  0  0.994775  0
H  H31  1  0.23051542  0.69077302  0.18615011  1  0  0.102126  0  0.931178  0  0  0.115414  0  0.993894  0  0  0.117422  0  0.993315  0  0  0.103402  0.113811  0  0.994628  0
H  H32  1  0.04414424  0.80936605  0.81376554  1  0  0.10274  0  0.931056  0  0  0.115573  0  0.994118  0  0  0.117588  0  0.993552  0  0  0.103786  0.114027  0  0.994773  0
H  H33  1  0.76948500  0.30922767  0.81385080  1  0  0.102086  0  0.931124  0  0  0.115343  0  0.993864  0  0  0.117376  0  0.993256  0  0  0.103372  0.113742  0  0.994598  0
H  H34  1  0.02293082  0.07130145  0.30255508  1  0  0.101731  0  0.915876  0  0  0.116483  0  0.974345  0  0  0.118595  0  0.973354  0  0  0.101534  0.114893  0  0.975218  0
H  H35  1  0.28003137  0.57140361  0.30247461  1  0  0.102077  0  0.915372  0  0  0.116842  0  0.97378  0  0  0.118985  0  0.972734  0  0  0.101836  0.115233  0  0.974684  0
H  H36  1  0.97706625  0.92870024  0.69744396  1  0  0.101724  0  0.915952  0  0  0.116484  0  0.97441  0  0  0.118597  0  0.973415  0  0  0.101525  0.114892  0  0.975282  0
H  H37  1  0.71997068  0.42859513  0.69752577  1  0  0.102081  0  0.915416  0  0  0.116858  0  0.973817  0  0  0.118987  0  0.972786  0  0  0.101834  0.115246  0  0.974725  0
H  H38  1  0.02954575  0.23911162  0.29598140  1  0  0.105911  0  0.930347  0  0  0.119224  0  0.992798  0  0  0.121627  0  0.991836  0  0  0.100738  0.11745  0  0.993608  0
H  H39  1  0.26675563  0.73920380  0.29590745  1  0  0.106429  0  0.930056  0  0  0.119112  0  0.993157  0  0  0.121441  0  0.992286  0  0  0.10072  0.117394  0  0.9939  0
H  H40  1  0.97045305  0.76089104  0.70401778  1  0  0.105916  0  0.930379  0  0  0.119241  0  0.99282  0  0  0.121618  0  0.991887  0  0  0.100722  0.117465  0  0.993629  0
H  H41  1  0.73324638  0.26079396  0.70409331  1  0  0.106399  0  0.930108  0  0  0.119107  0  0.993183  0  0  0.121435  0  0.992309  0  0  0.10071  0.117388  0  0.993925  0
H  H42  1  0.68814502  0.20159035  0.46839264  1  0  0.057343  0  0.936957  0  0  0.070832  0  1.002332  0  0  0.071108  0  1.001894  0  0  0.10652  0.070237  0  1.003496  0
H  H43  1  0.77979742  0.70178347  0.46831430  1  0  0.057652  0  0.937543  0  0  0.070871  0  1.002938  0  0  0.071058  0  1.002584  0  0  0.106812  0.07034  0  1.004032  0
H  H44  1  0.31185205  0.79841134  0.53160594  1  0  0.057395  0  0.936909  0  0  0.070861  0  1.002285  0  0  0.071139  0  1.001847  0  0  0.106534  0.070266  0  1.003449  0
H  H45  1  0.22020123  0.29821527  0.53168596  1  0  0.057634  0  0.937541  0  0  0.070854  0  1.00294  0  0  0.071042  0  1.002586  0  0  0.106793  0.070322  0  1.004036  0
H  H46  1  0.93784535  0.24265893  0.43725617  1  0  0.074936  0  0.923544  0  0  0.090653  0  0.982242  0  0  0.091042  0  0.981593  0  0  0.11084  0.090296  0  0.982897  0
H  H47  1  0.49909753  0.74279780  0.43711273  1  0  0.074026  0  0.925298  0  0  0.089685  0  0.983803  0  0  0.090047  0  0.983167  0  0  0.110611  0.089345  0  0.984433  0
H  H48  1  0.06215338  0.75734178  0.56274241  1  0  0.074949  0  0.923596  0  0  0.090658  0  0.98228  0  0  0.09105  0  0.981628  0  0  0.11085  0.090301  0  0.982935  0
H  H49  1  0.50090116  0.25720192  0.56288759  1  0  0.074015  0  0.925277  0  0  0.089675  0  0.983782  0  0  0.090037  0  0.983146  0  0  0.110611  0.089335  0  0.984412  0
H  H50  1  0.79721892  0.43766102  0.50407136  1  0  0.116602  0  0.957852  0  0  0.138058  0  1.018424  0  0  0.139198  0  1.018803  0  0  0.094063  0.137244  0  1.018226  0
H  H51  1  0.70630702  0.93771883  0.50408600  1  0  0.116908  0  0.956947  0  0  0.1384  0  1.017579  0  0  0.139568  0  1.017935  0  0  0.094427  0.13757  0  1.017402  0
H  H52  1  0.20277981  0.56233969  0.49592722  1  0  0.116581  0  0.957772  0  0  0.138058  0  1.018335  0  0  0.139196  0  1.018714  0  0  0.094055  0.137235  0  1.018148  0
H  H53  1  0.29369673  0.06227992  0.49591354  1  0  0.116926  0  0.956943  0  0  0.138451  0  1.017531  0  0  0.139619  0  1.017889  0  0  0.094442  0.137622  0  1.017354  0
H  H54  1  0.53151544  0.42399263  0.45536150  1  0  0.106086  0  0.955103  0  0  0.126641  0  1.016024  0  0  0.127648  0  1.01688  0  0  0.089798  0.125938  0  1.015505  0
H  H55  1  0.92345499  0.92425750  0.45540373  1  0  0.105878  0  0.954331  0  0  0.126764  0  1.015027  0  0  0.127735  0  1.01594  0  0  0.090131  0.12608  0  1.01449  0
H  H56  1  0.46848159  0.57600808  0.54463747  1  0  0.106031  0  0.955159  0  0  0.12661  0  1.016055  0  0  0.127616  0  1.016911  0  0  0.089786  0.125907  0  1.015535  0
H  H57  1  0.07654533  0.07574028  0.54459561  1  0  0.105885  0  0.954337  0  0  0.126756  0  1.01505  0  0  0.127727  0  1.01596  0  0  0.090128  0.126072  0  1.014512  0
H  H58  1  0.78145601  0.46437643  0.42493184  1  0  0.111642  0  0.971768  0  0  0.127372  0  1.039829  0  0  0.129252  0  1.039441  0  0  0.08672  0.12586  0  1.040754  0
H  H59  1  0.64313886  0.96466259  0.42497184  1  0  0.111659  0  0.970303  0  0  0.127279  0  1.038774  0  0  0.129164  0  1.038376  0  0  0.086656  0.125782  0  1.039681  0
H  H60  1  0.21854102  0.53562429  0.57506713  1  0  0.111634  0  0.97172  0  0  0.127358  0  1.039799  0  0  0.129238  0  1.03941  0  0  0.086684  0.125848  0  1.04072  0
H  H61  1  0.35686150  0.03533616  0.57502757  1  0  0.111688  0  0.970349  0  0  0.127304  0  1.038815  0  0  0.129189  0  1.038418  0  0  0.086661  0.125807  0  1.039723  0
C  C62  1  0.26279880  0.07991255  0.17899656  1  0  0.012149  0  3.585794  0  0  0.01662  0  3.822766  0  0  0.013924  0  3.834708  0  0  0.087145  0.018357  0  3.814544  0
C  C63  1  0.91641320  0.57996553  0.17897204  1  0  0.010267  0  3.591218  0  0  0.015555  0  3.826536  0  0  0.01287  0  3.838469  0  0  0.087569  0.01731  0  3.818298  0
C  C64  1  0.73719993  0.92008815  0.82100293  1  0  0.012214  0  3.585736  0  0  0.016637  0  3.822797  0  0  0.013961  0  3.834676  0  0  0.087114  0.018353  0  3.814632  0
C  C65  1  0.08358892  0.42003516  0.82102893  1  0  0.010383  0  3.59116  0  0  0.015393  0  3.826828  0  0  0.012705  0  3.838772  0  0  0.08758  0.017145  0  3.818594  0
C  C66  1  0.41596338  0.20375215  0.19664175  1  0  0.554604  0  3.728759  0  0  0.502972  0  4.022305  0  0  0.532576  0  4.020602  0  0  0.257795  0.482915  0  4.02291  0
C  C67  1  0.78074906  0.70371204  0.19664614  1  0  0.555291  0  3.729977  0  0  0.503607  0  4.023015  0  0  0.533179  0  4.021278  0  0  0.257941  0.483573  0  4.023638  0
C  C68  1  0.58403535  0.79624856  0.80335774  1  0  0.554591  0  3.72877  0  0  0.503001  0  4.022325  0  0  0.532622  0  4.020605  0  0  0.257828  0.482914  0  4.022941  0
C  C69  1  0.21925307  0.29628866  0.80335438  1  0  0.555152  0  3.730118  0  0  0.503593  0  4.023072  0  0  0.533163  0  4.021336  0  0  0.25791  0.483558  0  4.023694  0
C  C70  1  0.35624955  0.14704903  0.29512740  1  0  0.030362  0  3.599724  0  0  0.029884  0  3.84108  0  0  0.027372  0  3.853632  0  0  0.093727  0.031511  0  3.832599  0
C  C71  1  0.93918859  0.64710434  0.29511762  1  0  0.029283  0  3.600855  0  0  0.03177  0  3.836588  0  0  0.029191  0  3.84924  0  0  0.093201  0.033438  0  3.828005  0
C  C72  1  0.64374744  0.85295070  0.70487196  1  0  0.030453  0  3.599624  0  0  0.029951  0  3.841069  0  0  0.027444  0  3.853614  0  0  0.093736  0.031575  0  3.832583  0
C  C73  1  0.06081180  0.35289537  0.70488322  1  0  0.029383  0  3.600778  0  0  0.031893  0  3.836524  0  0  0.029316  0  3.849171  0  0  0.093264  0.033555  0  3.827943  0
C  C74  1  0.43947987  0.00845394  0.27251707  1  0  0.528688  0  3.785235  0  0  0.480838  0  4.079365  0  0  0.509209  0  4.079307  0  0  0.248076  0.461464  0  4.079005  0
C  C75  1  0.83334806  0.50848436  0.27252871  1  0  0.528051  0  3.786396  0  0  0.480352  0  4.079044  0  0  0.508649  0  4.079108  0  0  0.248229  0.46105  0  4.078603  0
C  C76  1  0.56051709  0.99154481  0.72748267  1  0  0.528607  0  3.78532  0  0  0.480752  0  4.079457  0  0  0.509122  0  4.079404  0  0  0.24803  0.461378  0  4.079091  0
C  C77  1  0.16665406  0.49151633  0.72747181  1  0  0.528103  0  3.786547  0  0  0.480435  0  4.079138  0  0  0.508733  0  4.079201  0  0  0.248279  0.461134  0  4.078697  0
C  C78  1  0.03924658  0.11036363  0.20734296  1  0  -0.145614  0  3.580776  0  0  -0.192769  0  3.84105  0  0  -0.194016  0  3.85214  0  0  -0.15349  -0.191654  0  3.833203  0
C  C79  1  0.16830345  0.61048072  0.20725914  1  0  -0.145688  0  3.584447  0  0  -0.193481  0  3.844797  0  0  -0.194668  0  3.855868  0  0  -0.15318  -0.192375  0  3.836956  0
C  C80  1  0.96075384  0.88963707  0.79265659  1  0  -0.145567  0  3.580744  0  0  -0.192718  0  3.841058  0  0  -0.193968  0  3.852144  0  0  -0.153473  -0.191609  0  3.833209  0
C  C81  1  0.83169867  0.38951997  0.79274138  1  0  -0.145731  0  3.584403  0  0  -0.193417  0  3.844742  0  0  -0.19462  0  3.85581  0  0  -0.153181  -0.192315  0  3.836901  0
C  C82  1  0.09515299  0.14371279  0.27845373  1  0  -0.15688  0  3.608344  0  0  -0.207861  0  3.874299  0  0  -0.208923  0  3.885079  0  0  -0.157788  -0.206819  0  3.866625  0
C  C83  1  0.18364555  0.64380194  0.27839421  1  0  -0.157038  0  3.607389  0  0  -0.208385  0  3.872757  0  0  -0.209446  0  3.883545  0  0  -0.157956  -0.207356  0  3.865067  0
C  C84  1  0.90484408  0.85628889  0.72154577  1  0  -0.156949  0  3.608502  0  0  -0.207943  0  3.874466  0  0  -0.208991  0  3.88526  0  0  -0.157785  -0.206892  0  3.866778  0
C  C85  1  0.81635487  0.35619875  0.72160625  1  0  -0.157022  0  3.607504  0  0  -0.208412  0  3.872845  0  0  -0.209466  0  3.883641  0  0  -0.157936  -0.207381  0  3.865154  0
C  C86  1  0.21184942  0.03232928  0.10880316  1  0  0.659225  0  3.927957  0  0  0.60752  0  4.230771  0  0  0.64148  0  4.221  0  0  0.221695  0.584452  0  4.236553  0
C  C87  1  0.89680946  0.53236092  0.10877900  1  0  0.659269  0  3.928106  0  0  0.607061  0  4.231237  0  0  0.640986  0  4.221572  0  0  0.221178  0.584023  0  4.236944  0
C  C88  1  0.78815100  0.96767142  0.89119639  1  0  0.659192  0  3.928023  0  0  0.607503  0  4.230827  0  0  0.641464  0  4.221056  0  0  0.221725  0.584437  0  4.236605  0
C  C89  1  0.10319270  0.46764075  0.89122205  1  0  0.659186  0  3.928214  0  0  0.607056  0  4.231303  0  0  0.64098  0  4.221642  0  0  0.221154  0.584021  0  4.237006  0
C  C90  1  0.43496525  0.18447997  0.36444318  1  0  0.581404  0  3.774154  0  0  0.527259  0  4.079415  0  0  0.559983  0  4.07093  0  0  0.246907  0.504994  0  4.084704  0
C  C91  1  0.92956427  0.68458185  0.36442180  1  0  0.578731  0  3.777835  0  0  0.52557  0  4.079764  0  0  0.55828  0  4.071312  0  0  0.246989  0.503339  0  4.085023  0
C  C92  1  0.56502824  0.81551681  0.63555766  1  0  0.581413  0  3.774048  0  0  0.527283  0  4.079332  0  0  0.56001  0  4.070846  0  0  0.2469  0.505014  0  4.084623  0
C  C93  1  0.07043611  0.31541787  0.63557859  1  0  0.57874  0  3.777723  0  0  0.525472  0  4.079822  0  0  0.558183  0  4.07137  0  0  0.246951  0.503244  0  4.085077  0
C  C94  1  0.75741175  0.26276155  0.43835155  1  0  0.155463  0  3.555115  0  0  0.094739  0  3.83273  0  0  0.10473  0  3.83701  0  0  -0.061921  0.088085  0  3.830137  0
C  C95  1  0.68063100  0.76298604  0.43826552  1  0  0.154791  0  3.557401  0  0  0.094732  0  3.834079  0  0  0.104797  0  3.838338  0  0  -0.062331  0.088068  0  3.831484  0
C  C96  1  0.24258532  0.73724014  0.56164750  1  0  0.155338  0  3.555176  0  0  0.094691  0  3.832725  0  0  0.104684  0  3.836994  0  0  -0.061962  0.088036  0  3.83013  0
C  C97  1  0.31936939  0.23701368  0.56173486  1  0  0.154874  0  3.557288  0  0  0.094808  0  3.833977  0  0  0.104875  0  3.838233  0  0  -0.06229  0.088144  0  3.831383  0
C  C98  1  0.71397622  0.40641183  0.45655464  1  0  -0.339806  0  3.707829  0  0  -0.418726  0  3.955601  0  0  -0.422659  0  3.96532  0  0  -0.252445  -0.415762  0  3.949188  0
C  C99  1  0.74217062  0.90662305  0.45656438  1  0  -0.33929  0  3.704727  0  0  -0.418729  0  3.952737  0  0  -0.422669  0  3.96244  0  0  -0.252824  -0.41576  0  3.946285  0
C  C100  1  0.28602082  0.59358889  0.54344387  1  0  -0.33971  0  3.707687  0  0  -0.418665  0  3.955415  0  0  -0.422603  0  3.965153  0  0  -0.252379  -0.415696  0  3.949002  0
C  C101  1  0.25782974  0.09337568  0.54343639  1  0  -0.33938  0  3.704759  0  0  -0.418829  0  3.952766  0  0  -0.42277  0  3.962473  0  0  -0.252849  -0.415856  0  3.946301  0
N  N102  1  0.45293527  0.23601102  0.25850887  1  0  -0.442233  0  3.23252  0  0  -0.389989  0  3.475313  0  0  -0.411558  0  3.482138  0  0  -0.399447  -0.375192  0  3.470754  0
N  N103  1  0.80580687  0.73602865  0.25850645  1  0  -0.442107  0  3.232315  0  0  -0.390948  0  3.474049  0  0  -0.412405  0  3.480534  0  0  -0.399776  -0.376205  0  3.469741  0
N  N104  1  0.54706339  0.76398773  0.74149093  1  0  -0.442337  0  3.232547  0  0  -0.390045  0  3.475287  0  0  -0.41162  0  3.482103  0  0  -0.399461  -0.375246  0  3.470736  0
N  N105  1  0.19419355  0.26397204  0.74149446  1  0  -0.442088  0  3.232381  0  0  -0.390945  0  3.474069  0  0  -0.412403  0  3.480554  0  0  -0.399765  -0.3762  0  3.469761  0
N  N106  1  0.38127067  0.97981648  0.21107862  1  0  -0.443929  0  3.295101  0  0  -0.392181  0  3.539316  0  0  -0.413421  0  3.546163  0  0  -0.408173  -0.377638  0  3.534648  0
N  N107  1  0.83016330  0.47983881  0.21108835  1  0  -0.441254  0  3.297117  0  0  -0.390324  0  3.540156  0  0  -0.411508  0  3.547197  0  0  -0.407597  -0.375874  0  3.535518  0
N  N108  1  0.61872636  0.02018422  0.78892126  1  0  -0.443934  0  3.295139  0  0  -0.392162  0  3.539354  0  0  -0.413409  0  3.546203  0  0  -0.408162  -0.377618  0  3.534688  0
N  N109  1  0.16983883  0.52016189  0.78891217  1  0  -0.441248  0  3.297132  0  0  -0.390266  0  3.540202  0  0  -0.411451  0  3.54724  0  0  -0.407586  -0.375818  0  3.535573  0
O  O110  1  0.31385553  0.38825022  0.04865282  1  0  -0.872399  0  1.892671  0  0  -0.814662  0  2.083494  0  0  -0.834837  0  2.053703  0  0  -0.596633  -0.800261  0  2.105026  0
O  O111  1  0.73462064  0.88823802  0.04864283  1  0  -0.873159  0  1.892414  0  0  -0.815146  0  2.083451  0  0  -0.835348  0  2.053713  0  0  -0.597027  -0.800732  0  2.104952  0
O  O112  1  0.68614486  0.61174949  0.95134757  1  0  -0.872355  0  1.892803  0  0  -0.814622  0  2.083591  0  0  -0.834799  0  2.053796  0  0  -0.596616  -0.800229  0  2.105127  0
O  O113  1  0.26538144  0.11176169  0.95135762  1  0  -0.873115  0  1.892416  0  0  -0.815096  0  2.083488  0  0  -0.835298  0  2.053751  0  0  -0.597029  -0.800683  0  2.104988  0
O  O114  1  0.57248626  0.36190433  0.95363397  1  0  -0.860288  0  1.914823  0  0  -0.798698  0  2.096056  0  0  -0.819081  0  2.065388  0  0  -0.59959  -0.783937  0  2.117999  0
O  O115  1  0.38118415  0.86191608  0.95360456  1  0  -0.861896  0  1.912975  0  0  -0.79939  0  2.095379  0  0  -0.819824  0  2.064589  0  0  -0.599384  -0.784606  0  2.1174  0
O  O116  1  0.42751416  0.63809637  0.04636649  1  0  -0.860271  0  1.914861  0  0  -0.798677  0  2.096088  0  0  -0.819062  0  2.065417  0  0  -0.599589  -0.783918  0  2.118029  0
O  O117  1  0.61881964  0.13808364  0.04639595  1  0  -0.861882  0  1.912994  0  0  -0.799381  0  2.095406  0  0  -0.819814  0  2.064623  0  0  -0.599388  -0.784593  0  2.11741  0
O  O118  1  0.50187773  0.26471855  0.15976990  1  0  -0.58259  0  2.013727  0  0  -0.525065  0  2.238308  0  0  -0.546886  0  2.228878  0  0  -0.28066  -0.509982  0  2.244864  0
O  O119  1  0.65774341  0.76457046  0.15977995  1  0  -0.583517  0  2.01373  0  0  -0.525534  0  2.237855  0  0  -0.547296  0  2.228348  0  0  -0.280987  -0.510458  0  2.244397  0
O  O120  1  0.49812602  0.73528019  0.84023054  1  0  -0.582502  0  2.013671  0  0  -0.525117  0  2.238359  0  0  -0.546962  0  2.228945  0  0  -0.280643  -0.50995  0  2.244858  0
O  O121  1  0.34225697  0.23542925  0.84022089  1  0  -0.583487  0  2.013738  0  0  -0.525544  0  2.237817  0  0  -0.547307  0  2.228316  0  0  -0.281009  -0.510468  0  2.244363  0
O  O122  1  0.54299335  0.93688740  0.30733712  1  0  -0.535649  0  1.984019  0  0  -0.495263  0  2.208231  0  0  -0.514893  0  2.20099  0  0  -0.286448  -0.481345  0  2.212893  0
O  O123  1  0.76456973  0.43694441  0.30735953  1  0  -0.534477  0  1.982783  0  0  -0.495004  0  2.207096  0  0  -0.514534  0  2.199856  0  0  -0.286266  -0.481135  0  2.211697  0
O  O124  1  0.45699852  0.06311135  0.69266244  1  0  -0.535622  0  1.984088  0  0  -0.495221  0  2.20828  0  0  -0.514852  0  2.201046  0  0  -0.286413  -0.481304  0  2.212945  0
O  O125  1  0.23543239  0.56305627  0.69264189  1  0  -0.534534  0  1.982911  0  0  -0.495087  0  2.207226  0  0  -0.514613  0  2.199976  0  0  -0.286332  -0.481217  0  2.21183  0
O  O126  1  0.11866145  0.11477750  0.07737165  1  0  -0.686568  0  1.994901  0  0  -0.632671  0  2.246896  0  0  -0.657498  0  2.236073  0  0  -0.377921  -0.615058  0  2.254147  0
O  O127  1  0.95865537  0.61474876  0.07732059  1  0  -0.686699  0  1.994727  0  0  -0.63227  0  2.246629  0  0  -0.657154  0  2.235964  0  0  -0.377768  -0.614618  0  2.253758  0
O  O128  1  0.88134241  0.88522418  0.92262810  1  0  -0.686571  0  1.994982  0  0  -0.632658  0  2.246948  0  0  -0.657487  0  2.236126  0  0  -0.377923  -0.615046  0  2.254201  0
O  O129  1  0.04135180  0.38525094  0.92268095  1  0  -0.686682  0  1.994705  0  0  -0.632246  0  2.246537  0  0  -0.657129  0  2.235876  0  0  -0.377751  -0.614595  0  2.253665  0
O  O130  1  0.26304094  0.91595493  0.09046447  1  0  -0.677724  0  1.962482  0  0  -0.623706  0  2.206231  0  0  -0.647267  0  2.194723  0  0  -0.361497  -0.607026  0  2.21402  0
O  O131  1  0.82706154  0.41601931  0.09045221  1  0  -0.677052  0  1.960894  0  0  -0.623291  0  2.205262  0  0  -0.646838  0  2.193756  0  0  -0.361302  -0.60662  0  2.213036  0
O  O132  1  0.73695948  0.08404577  0.90953554  1  0  -0.677684  0  1.962482  0  0  -0.623686  0  2.206247  0  0  -0.647248  0  2.194742  0  0  -0.361507  -0.607005  0  2.214032  0
O  O133  1  0.17293719  0.58398139  0.90954773  1  0  -0.677014  0  1.961007  0  0  -0.623252  0  2.205327  0  0  -0.646797  0  2.193821  0  0  -0.36129  -0.606582  0  2.213103  0
O  O134  1  0.31133229  0.17964979  0.40416787  1  0  -0.506444  0  1.944854  0  0  -0.468006  0  2.158491  0  0  -0.486961  0  2.151547  0  0  -0.264849  -0.454932  0  2.163043  0
O  O135  1  0.09271026  0.67965105  0.40418221  1  0  -0.505052  0  1.946064  0  0  -0.467301  0  2.158804  0  0  -0.486223  0  2.151844  0  0  -0.264703  -0.454231  0  2.163335  0
O  O136  1  0.68867132  0.82034505  0.59583138  1  0  -0.506584  0  1.944702  0  0  -0.468152  0  2.158346  0  0  -0.487109  0  2.1514  0  0  -0.264937  -0.455072  0  2.162895  0
O  O137  1  0.90729013  0.32034866  0.59581818  1  0  -0.505086  0  1.946028  0  0  -0.467295  0  2.158818  0  0  -0.486216  0  2.151856  0  0  -0.264711  -0.454228  0  2.163351  0
O  O138  1  0.65480667  0.21880856  0.37418251  1  0  -0.310708  0  2.281402  0  0  -0.237936  0  2.518381  0  0  -0.260839  0  2.517913  0  0  -0.156542  -0.222211  0  2.518426  0
O  O139  1  0.71948248  0.71909428  0.37411916  1  0  -0.309117  0  2.281425  0  0  -0.237002  0  2.518017  0  0  -0.259881  0  2.51753  0  0  -0.156374  -0.221392  0  2.518175  0
O  O140  1  0.34518870  0.78119312  0.62581692  1  0  -0.310552  0  2.281369  0  0  -0.237839  0  2.518353  0  0  -0.260743  0  2.517886  0  0  -0.156472  -0.222116  0  2.518401  0
O  O141  1  0.28051444  0.28090348  0.62588142  1  0  -0.30913  0  2.281402  0  0  -0.236973  0  2.518017  0  0  -0.259854  0  2.51753  0  0  -0.156366  -0.221362  0  2.51817  0
