# generated using pymatgen
data_SnH16C18O
_symmetry_space_group_name_H-M   'P 1'
_cell_length_a   8.31058730
_cell_length_b   10.15312074
_cell_length_c   17.51510012
_cell_angle_alpha   89.99996379
_cell_angle_beta   90.00023634
_cell_angle_gamma   89.99994910
_symmetry_Int_Tables_number   1
_chemical_formula_structural   SnH16C18O
_chemical_formula_sum   'Sn4 H64 C72 O4'
_cell_volume   1477.89605735
_cell_formula_units_Z   4
loop_
 _symmetry_equiv_pos_site_id
 _symmetry_equiv_pos_as_xyz
  1  'x, y, z'
loop_
 _atom_site_type_symbol
 _atom_site_label
 _atom_site_symmetry_multiplicity
 _atom_site_fract_x
 _atom_site_fract_y
 _atom_site_fract_z
 _atom_site_occupancy
 _atom_site_hle17_bader_spin_density
 _atom_site_hle17_ddec_charge
 _atom_site_hle17_ddec_spin_density
 _atom_site_hle17_ddec_sum_bond_order
 _atom_site_hle17_magmom
 _atom_site_hse06_10hf_bader_spin_density
 _atom_site_hse06_10hf_ddec_charge
 _atom_site_hse06_10hf_ddec_spin_density
 _atom_site_hse06_10hf_ddec_sum_bond_order
 _atom_site_hse06_10hf_magmom
 _atom_site_hse06_bader_spin_density
 _atom_site_hse06_ddec_charge
 _atom_site_hse06_ddec_spin_density
 _atom_site_hse06_ddec_sum_bond_order
 _atom_site_hse06_magmom
 _atom_site_pbe_bader_spin_density
 _atom_site_pbe_cm5_charge
 _atom_site_pbe_ddec_charge
 _atom_site_pbe_ddec_spin_density
 _atom_site_pbe_ddec_sum_bond_order
 _atom_site_pbe_magmom
Sn  Sn0  1  0.56672517  0.24763597  0.00348151  1  0  1.271831  0  2.964049  0  0  1.086578  0  3.434274  0  0  1.129235  0  3.419893  0  0  0.528871  1.057201  0  3.444072  0
Sn  Sn1  1  0.93327276  0.75236314  0.50348120  1  0  1.271796  0  2.964087  0  0  1.086532  0  3.434349  0  0  1.129216  0  3.419926  0  0  0.528885  1.057154  0  3.444147  0
Sn  Sn2  1  0.43327317  0.74764261  0.49651758  1  0  1.271868  0  2.963901  0  0  1.086606  0  3.434158  0  0  1.129287  0  3.419753  0  0  0.528891  1.057223  0  3.443959  0
Sn  Sn3  1  0.06672510  0.25236224  0.99652073  1  0  1.271814  0  2.964047  0  0  1.086539  0  3.434317  0  0  1.129247  0  3.419849  0  0  0.528872  1.057157  0  3.444115  0
H  H4  1  0.77064495  0.00006666  0.05888994  1  0  0.071161  0  0.979649  0  0  0.081783  0  1.046862  0  0  0.084304  0  1.045691  0  0  0.093072  0.079971  0  1.047951  0
H  H5  1  0.72935827  0.99992943  0.55889029  1  0  0.071184  0  0.979617  0  0  0.0818  0  1.046838  0  0  0.084317  0  1.045666  0  0  0.093098  0.079986  0  1.047925  0
H  H6  1  0.22935727  0.50007253  0.44111037  1  0  0.071158  0  0.979581  0  0  0.081775  0  1.046805  0  0  0.084292  0  1.045635  0  0  0.093074  0.079964  0  1.047894  0
H  H7  1  0.27064172  0.49992943  0.94111041  1  0  0.071183  0  0.979647  0  0  0.081801  0  1.046867  0  0  0.084318  0  1.045697  0  0  0.09309  0.079986  0  1.047958  0
H  H8  1  0.81831310  0.88126264  0.17977295  1  0  0.08171  0  0.966318  0  0  0.094718  0  1.024504  0  0  0.097179  0  1.023967  0  0  0.096835  0.092941  0  1.025017  0
H  H9  1  0.68169117  0.11873332  0.67977238  1  0  0.081634  0  0.966346  0  0  0.094646  0  1.024539  0  0  0.097105  0  1.024  0  0  0.096829  0.09287  0  1.025052  0
H  H10  1  0.18169111  0.38126677  0.32022837  1  0  0.081635  0  0.966344  0  0  0.094646  0  1.024538  0  0  0.097106  0  1.023999  0  0  0.096833  0.09287  0  1.025051  0
H  H11  1  0.31830924  0.61873334  0.82022845  1  0  0.081607  0  0.966284  0  0  0.094615  0  1.024496  0  0  0.097075  0  1.023957  0  0  0.096818  0.092838  0  1.025008  0
H  H12  1  0.69493602  0.95988574  0.30021004  1  0  0.075302  0  0.967648  0  0  0.087908  0  1.029439  0  0  0.090595  0  1.028151  0  0  0.094082  0.085958  0  1.030513  0
H  H13  1  0.80506328  0.04011009  0.80020917  1  0  0.075294  0  0.967588  0  0  0.087883  0  1.029399  0  0  0.090572  0  1.028109  0  0  0.094072  0.085936  0  1.030475  0
H  H14  1  0.30506329  0.45988991  0.19979125  1  0  0.075306  0  0.96758  0  0  0.087897  0  1.029387  0  0  0.090586  0  1.028097  0  0  0.094081  0.08595  0  1.030465  0
H  H15  1  0.19493722  0.54010935  0.69979112  1  0  0.075313  0  0.967578  0  0  0.087903  0  1.029385  0  0  0.090592  0  1.028096  0  0  0.094077  0.085954  0  1.030461  0
H  H16  1  0.50781851  0.15370806  0.29774470  1  0  0.079109  0  0.964854  0  0  0.09244  0  1.023801  0  0  0.094867  0  1.023078  0  0  0.096072  0.090744  0  1.024291  0
H  H17  1  0.99218197  0.84628876  0.79774676  1  0  0.079177  0  0.964858  0  0  0.092491  0  1.023814  0  0  0.094918  0  1.02309  0  0  0.096077  0.090791  0  1.024304  0
H  H18  1  0.49218114  0.65371104  0.20225327  1  0  0.079109  0  0.96484  0  0  0.092434  0  1.023799  0  0  0.094862  0  1.023074  0  0  0.096043  0.090736  0  1.024291  0
H  H19  1  0.00781939  0.34628822  0.70225457  1  0  0.079138  0  0.964929  0  0  0.092469  0  1.023873  0  0  0.094897  0  1.023149  0  0  0.09607  0.090772  0  1.024364  0
H  H20  1  0.45297583  0.26844528  0.17653835  1  0  0.070549  0  0.978862  0  0  0.080835  0  1.046196  0  0  0.083528  0  1.044459  0  0  0.092355  0.078811  0  1.047688  0
H  H21  1  0.04702689  0.73155203  0.67654072  1  0  0.070527  0  0.978832  0  0  0.080825  0  1.04615  0  0  0.083519  0  1.044414  0  0  0.092349  0.078802  0  1.047641  0
H  H22  1  0.54702731  0.76844907  0.32346015  1  0  0.070523  0  0.978847  0  0  0.080815  0  1.046175  0  0  0.083511  0  1.044438  0  0  0.092346  0.078789  0  1.047667  0
H  H23  1  0.95297219  0.23155166  0.82346064  1  0  0.070527  0  0.978883  0  0  0.080819  0  1.046209  0  0  0.083514  0  1.044476  0  0  0.092345  0.078793  0  1.047701  0
H  H24  1  0.52001507  0.94672200  0.96836420  1  0  0.07161  0  0.983129  0  0  0.081772  0  1.05192  0  0  0.083118  0  1.052983  0  0  0.092006  0.080487  0  1.052022  0
H  H25  1  0.97998328  0.05327759  0.46836425  1  0  0.071571  0  0.983152  0  0  0.081746  0  1.05193  0  0  0.083098  0  1.052988  0  0  0.092011  0.080461  0  1.052031  0
H  H26  1  0.47998017  0.44672623  0.53163423  1  0  0.07163  0  0.98313  0  0  0.081791  0  1.051911  0  0  0.083167  0  1.052941  0  0  0.092034  0.080507  0  1.052013  0
H  H27  1  0.02001647  0.55327617  0.03163776  1  0  0.071649  0  0.9831  0  0  0.081756  0  1.051942  0  0  0.083097  0  1.053013  0  0  0.091996  0.080487  0  1.052028  0
H  H28  1  0.43919623  0.29624033  0.83261965  1  0  0.077415  0  0.977798  0  0  0.088721  0  1.042404  0  0  0.090142  0  1.043607  0  0  0.094381  0.087513  0  1.04198  0
H  H29  1  0.06080302  0.70375682  0.33261921  1  0  0.077407  0  0.977794  0  0  0.088711  0  1.042398  0  0  0.090134  0  1.043602  0  0  0.094376  0.087503  0  1.041975  0
H  H30  1  0.56080278  0.79623935  0.66738169  1  0  0.077444  0  0.977799  0  0  0.088746  0  1.042409  0  0  0.090169  0  1.043611  0  0  0.09439  0.087536  0  1.041985  0
H  H31  1  0.93919537  0.20375761  0.16738217  1  0  0.077402  0  0.977829  0  0  0.088705  0  1.042434  0  0  0.090126  0  1.04364  0  0  0.094372  0.087494  0  1.042011  0
H  H32  1  0.35885013  0.15690493  0.72393681  1  0  0.074443  0  0.984002  0  0  0.083637  0  1.050754  0  0  0.085756  0  1.050806  0  0  0.092709  0.082123  0  1.050766  0
H  H33  1  0.14115058  0.84309529  0.22393761  1  0  0.074444  0  0.984045  0  0  0.083646  0  1.050773  0  0  0.085765  0  1.050824  0  0  0.092711  0.08213  0  1.050783  0
H  H34  1  0.64115023  0.65689984  0.77606116  1  0  0.074469  0  0.984039  0  0  0.083668  0  1.050765  0  0  0.085789  0  1.050813  0  0  0.092719  0.082152  0  1.050776  0
H  H35  1  0.85884886  0.34309504  0.27606486  1  0  0.074394  0  0.983994  0  0  0.083639  0  1.050679  0  0  0.085759  0  1.050728  0  0  0.092712  0.082123  0  1.050691  0
H  H36  1  0.35998327  0.91256717  0.73590349  1  0  0.077584  0  0.97157  0  0  0.089295  0  1.033786  0  0  0.091676  0  1.033009  0  0  0.095043  0.08749  0  1.034646  0
H  H37  1  0.14001635  0.08743304  0.23590343  1  0  0.077557  0  0.971578  0  0  0.089274  0  1.033795  0  0  0.091654  0  1.033019  0  0  0.095036  0.087471  0  1.034654  0
H  H38  1  0.64001321  0.41256216  0.76409382  1  0  0.077496  0  0.971591  0  0  0.089212  0  1.033827  0  0  0.091598  0  1.033034  0  0  0.09501  0.087406  0  1.034688  0
H  H39  1  0.85998337  0.58743272  0.26409686  1  0  0.077576  0  0.971576  0  0  0.089285  0  1.033797  0  0  0.091667  0  1.033016  0  0  0.095038  0.08748  0  1.034658  0
H  H40  1  0.44493092  0.80833409  0.85867537  1  0  0.077094  0  0.96712  0  0  0.089059  0  1.028148  0  0  0.091365  0  1.027738  0  0  0.094124  0.087294  0  1.028696  0
H  H41  1  0.05506856  0.19166499  0.35867510  1  0  0.077156  0  0.967093  0  0  0.089097  0  1.028144  0  0  0.091403  0  1.027733  0  0  0.094148  0.087333  0  1.028693  0
H  H42  1  0.55506206  0.30833519  0.64132140  1  0  0.077128  0  0.967089  0  0  0.089079  0  1.028132  0  0  0.091385  0  1.027721  0  0  0.094148  0.087315  0  1.028679  0
H  H43  1  0.94493225  0.69166475  0.14132514  1  0  0.077112  0  0.967143  0  0  0.089077  0  1.028167  0  0  0.091383  0  1.027756  0  0  0.094137  0.087313  0  1.028715  0
H  H44  1  0.51211074  0.52091940  0.09287741  1  0  0.064513  0  0.974587  0  0  0.079658  0  1.036013  0  0  0.081641  0  1.035045  0  0  0.093806  0.078246  0  1.036662  0
H  H45  1  0.98788797  0.47907961  0.59287674  1  0  0.064519  0  0.974555  0  0  0.079666  0  1.035977  0  0  0.08165  0  1.03501  0  0  0.093815  0.078254  0  1.036624  0
H  H46  1  0.48788905  0.02092420  0.40711890  1  0  0.064478  0  0.97452  0  0  0.079601  0  1.035984  0  0  0.081584  0  1.035018  0  0  0.093776  0.078188  0  1.036631  0
H  H47  1  0.01210964  0.97908074  0.90712339  1  0  0.064498  0  0.974561  0  0  0.079644  0  1.035983  0  0  0.081627  0  1.035018  0  0  0.093812  0.078232  0  1.036628  0
H  H48  1  0.59308556  0.75325288  0.07475251  1  0  0.076898  0  0.970531  0  0  0.086796  0  1.037  0  0  0.088926  0  1.036865  0  0  0.094999  0.084927  0  1.03803  0
H  H49  1  0.90691299  0.24674517  0.57475291  1  0  0.076899  0  0.970483  0  0  0.086767  0  1.036999  0  0  0.088897  0  1.036865  0  0  0.094986  0.084897  0  1.038029  0
H  H50  1  0.40691278  0.25326165  0.42524371  1  0  0.076889  0  0.970459  0  0  0.086773  0  1.036964  0  0  0.088902  0  1.036834  0  0  0.094985  0.084902  0  1.037995  0
H  H51  1  0.09308728  0.74674622  0.92524788  1  0  0.07689  0  0.970546  0  0  0.086761  0  1.03705  0  0  0.08889  0  1.036916  0  0  0.094963  0.084891  0  1.038079  0
H  H52  1  0.75884300  0.81752912  0.96288861  1  0  0.073722  0  0.973869  0  0  0.084136  0  1.039089  0  0  0.086402  0  1.038537  0  0  0.093342  0.082583  0  1.039508  0
H  H53  1  0.74115530  0.18247047  0.46288814  1  0  0.073746  0  0.973877  0  0  0.084142  0  1.039107  0  0  0.086408  0  1.038556  0  0  0.093339  0.082592  0  1.039526  0
H  H54  1  0.24115840  0.31753647  0.53711044  1  0  0.073788  0  0.973946  0  0  0.084146  0  1.039199  0  0  0.086412  0  1.038647  0  0  0.093349  0.082596  0  1.039619  0
H  H55  1  0.25884311  0.68246986  0.03711268  1  0  0.07371  0  0.973898  0  0  0.084104  0  1.039135  0  0  0.086373  0  1.038579  0  0  0.093325  0.082555  0  1.039556  0
H  H56  1  0.84034594  0.64820584  0.86728550  1  0  0.081997  0  0.956074  0  0  0.094327  0  1.015113  0  0  0.096794  0  1.014472  0  0  0.098682  0.092567  0  1.015553  0
H  H57  1  0.65965273  0.35179288  0.36728595  1  0  0.081972  0  0.95619  0  0  0.094305  0  1.01522  0  0  0.096773  0  1.014572  0  0  0.098689  0.092545  0  1.015661  0
H  H58  1  0.15966165  0.14821413  0.63271418  1  0  0.082031  0  0.956167  0  0  0.094415  0  1.015134  0  0  0.09688  0  1.014497  0  0  0.098721  0.092656  0  1.015578  0
H  H59  1  0.34034790  0.85179308  0.13271538  1  0  0.081967  0  0.956163  0  0  0.094297  0  1.015198  0  0  0.09676  0  1.014562  0  0  0.098676  0.092538  0  1.015638  0
H  H60  1  0.76062735  0.41598169  0.88512892  1  0  0.080709  0  0.979864  0  0  0.091129  0  1.045521  0  0  0.093474  0  1.044678  0  0  0.096853  0.089291  0  1.046453  0
H  H61  1  0.73937268  0.58401503  0.38512888  1  0  0.080737  0  0.979855  0  0  0.091171  0  1.045504  0  0  0.09351  0  1.044674  0  0  0.096874  0.089335  0  1.04643  0
H  H62  1  0.23937995  0.91599184  0.61487066  1  0  0.08074  0  0.979827  0  0  0.091152  0  1.045509  0  0  0.093499  0  1.044661  0  0  0.096851  0.089317  0  1.046437  0
H  H63  1  0.26062704  0.08401736  0.11487198  1  0  0.080704  0  0.979891  0  0  0.091136  0  1.045521  0  0  0.093482  0  1.044677  0  0  0.096851  0.089285  0  1.046481  0
H  H64  1  0.31385874  0.38804508  0.06201587  1  0  0.367872  0  0.910049  0  0  0.343364  0  0.984668  0  0  0.351668  0  0.97519  0  0  0.288109  0.337467  0  0.991395  0
H  H65  1  0.18614298  0.61195532  0.56201513  1  0  0.367711  0  0.910207  0  0  0.343264  0  0.984762  0  0  0.351571  0  0.975281  0  0  0.288054  0.337366  0  0.991488  0
H  H66  1  0.68614306  0.88804667  0.43798373  1  0  0.367893  0  0.910069  0  0  0.343388  0  0.984696  0  0  0.351697  0  0.975211  0  0  0.288109  0.337489  0  0.991423  0
H  H67  1  0.81385864  0.11195394  0.93798514  1  0  0.367889  0  0.910101  0  0  0.343377  0  0.984721  0  0  0.351683  0  0.975241  0  0  0.288111  0.33748  0  0.991449  0
C  C68  1  0.60716807  0.14284841  0.10856347  1  0  -0.298717  0  3.688722  0  0  -0.246973  0  3.944542  0  0  -0.259088  0  3.974704  0  0  -0.099344  -0.238601  0  3.923908  0
C  C69  1  0.89283318  0.85714566  0.60856418  1  0  -0.298694  0  3.688633  0  0  -0.246949  0  3.944461  0  0  -0.259067  0  3.974626  0  0  -0.099355  -0.238578  0  3.923827  0
C  C70  1  0.39283279  0.64285421  0.39143623  1  0  -0.298781  0  3.688692  0  0  -0.247042  0  3.944529  0  0  -0.25916  0  3.974693  0  0  -0.099379  -0.238668  0  3.923892  0
C  C71  1  0.10716577  0.35714681  0.89143657  1  0  -0.298673  0  3.688627  0  0  -0.246927  0  3.944451  0  0  -0.259047  0  3.97462  0  0  -0.099345  -0.238558  0  3.923817  0
C  C72  1  0.70894434  0.03275119  0.11052589  1  0  -0.057267  0  3.827315  0  0  -0.076021  0  4.071231  0  0  -0.076149  0  4.094522  0  0  -0.094937  -0.075697  0  4.055531  0
C  C73  1  0.79106053  0.96724485  0.61052637  1  0  -0.057272  0  3.827228  0  0  -0.076008  0  4.071107  0  0  -0.076131  0  4.094393  0  0  -0.094906  -0.075684  0  4.055407  0
C  C74  1  0.29106025  0.53275706  0.38947441  1  0  -0.057302  0  3.827228  0  0  -0.076037  0  4.071108  0  0  -0.076161  0  4.094396  0  0  -0.094912  -0.075716  0  4.055413  0
C  C75  1  0.20893950  0.46724494  0.88947491  1  0  -0.057378  0  3.827301  0  0  -0.076118  0  4.071192  0  0  -0.076244  0  4.09448  0  0  -0.094939  -0.075797  0  4.055497  0
C  C76  1  0.73781694  0.96597357  0.17893986  1  0  -0.075274  0  3.770192  0  0  -0.084839  0  4.012264  0  0  -0.08739  0  4.033978  0  0  -0.094594  -0.082962  0  3.997476  0
C  C77  1  0.76218492  0.03402338  0.67893948  1  0  -0.075145  0  3.770091  0  0  -0.084713  0  4.012149  0  0  -0.087259  0  4.033859  0  0  -0.0946  -0.082838  0  3.997362  0
C  C78  1  0.26218598  0.46597666  0.32106028  1  0  -0.075099  0  3.770035  0  0  -0.084663  0  4.012092  0  0  -0.087209  0  4.033802  0  0  -0.094589  -0.082788  0  3.997305  0
C  C79  1  0.23781318  0.53402247  0.82106024  1  0  -0.075053  0  3.769988  0  0  -0.084616  0  4.012047  0  0  -0.087161  0  4.033757  0  0  -0.094583  -0.08274  0  3.997257  0
C  C80  1  0.66720782  0.00988033  0.24668152  1  0  -0.068462  0  3.782425  0  0  -0.081152  0  4.026128  0  0  -0.08293  0  4.048533  0  0  -0.094339  -0.080182  0  4.011015  0
C  C81  1  0.83279462  0.99011457  0.74668207  1  0  -0.068439  0  3.782427  0  0  -0.081116  0  4.026127  0  0  -0.082896  0  4.04853  0  0  -0.094313  -0.080155  0  4.011028  0
C  C82  1  0.33279439  0.50988632  0.25331823  1  0  -0.068444  0  3.782439  0  0  -0.081125  0  4.026146  0  0  -0.082906  0  4.04855  0  0  -0.09429  -0.080165  0  4.01105  0
C  C83  1  0.16720538  0.49011386  0.75331806  1  0  -0.068448  0  3.782459  0  0  -0.081125  0  4.026162  0  0  -0.082907  0  4.048569  0  0  -0.09429  -0.080164  0  4.011062  0
C  C84  1  0.56472402  0.11885967  0.24536653  1  0  -0.078518  0  3.772767  0  0  -0.088155  0  4.015137  0  0  -0.090856  0  4.03728  0  0  -0.095167  -0.086112  0  4.000064  0
C  C85  1  0.93527480  0.88113721  0.74536732  1  0  -0.078716  0  3.772971  0  0  -0.088345  0  4.015337  0  0  -0.091046  0  4.037481  0  0  -0.095231  -0.086303  0  4.000266  0
C  C86  1  0.43527446  0.61886164  0.25463260  1  0  -0.078616  0  3.772881  0  0  -0.088254  0  4.015249  0  0  -0.090955  0  4.037392  0  0  -0.095185  -0.086216  0  4.000182  0
C  C87  1  0.06472532  0.38113755  0.75463228  1  0  -0.078685  0  3.772857  0  0  -0.088331  0  4.015236  0  0  -0.091033  0  4.037379  0  0  -0.095236  -0.086288  0  4.000161  0
C  C88  1  0.53419396  0.18407907  0.17662123  1  0  -0.046229  0  3.82485  0  0  -0.064631  0  4.06598  0  0  -0.064653  0  4.089479  0  0  -0.093962  -0.064825  0  4.050175  0
C  C89  1  0.96580788  0.81591492  0.67662325  1  0  -0.046232  0  3.824704  0  0  -0.064634  0  4.065839  0  0  -0.06466  0  4.089342  0  0  -0.094005  -0.064831  0  4.050036  0
C  C90  1  0.46580806  0.68408588  0.32337730  1  0  -0.046184  0  3.824662  0  0  -0.064583  0  4.065804  0  0  -0.064607  0  4.089304  0  0  -0.093993  -0.064775  0  4.049997  0
C  C91  1  0.03419232  0.31591423  0.82337751  1  0  -0.046199  0  3.824621  0  0  -0.0646  0  4.065758  0  0  -0.064628  0  4.089267  0  0  -0.09398  -0.064791  0  4.049953  0
C  C92  1  0.48879800  0.99398238  0.91442099  1  0  -0.065386  0  3.843763  0  0  -0.083963  0  4.085556  0  0  -0.084763  0  4.111684  0  0  -0.099591  -0.083394  0  4.068082  0
C  C93  1  0.01120076  0.00601763  0.41442128  1  0  -0.065257  0  3.84374  0  0  -0.083834  0  4.085499  0  0  -0.08464  0  4.111627  0  0  -0.099541  -0.083267  0  4.068022  0
C  C94  1  0.51119839  0.49398456  0.58557628  1  0  -0.065383  0  3.843747  0  0  -0.08395  0  4.085507  0  0  -0.084776  0  4.111627  0  0  -0.099618  -0.083385  0  4.068032  0
C  C95  1  0.98879905  0.50601643  0.08558018  1  0  -0.065342  0  3.8438  0  0  -0.08387  0  4.085581  0  0  -0.08467  0  4.111715  0  0  -0.099546  -0.083316  0  4.068101  0
C  C96  1  0.48805722  0.13167904  0.90837779  1  0  -0.31044  0  3.710106  0  0  -0.255461  0  3.963182  0  0  -0.267957  0  3.993632  0  0  -0.106266  -0.246811  0  3.942566  0
C  C97  1  0.01194149  0.86831999  0.40837833  1  0  -0.310451  0  3.710123  0  0  -0.255472  0  3.9632  0  0  -0.267971  0  3.993654  0  0  -0.106249  -0.246818  0  3.942578  0
C  C98  1  0.51194197  0.63168114  0.59162133  1  0  -0.310388  0  3.71  0  0  -0.255406  0  3.963063  0  0  -0.267907  0  3.993526  0  0  -0.106215  -0.246753  0  3.942442  0
C  C99  1  0.98805672  0.36831985  0.09162356  1  0  -0.310444  0  3.710086  0  0  -0.25546  0  3.963143  0  0  -0.26796  0  3.993597  0  0  -0.106246  -0.246806  0  3.942529  0
C  C100  1  0.44224665  0.18935988  0.83892395  1  0  -0.053326  0  3.815323  0  0  -0.071851  0  4.054958  0  0  -0.072503  0  4.080319  0  0  -0.095396  -0.071217  0  4.037753  0
C  C101  1  0.05775387  0.81063922  0.33892460  1  0  -0.053338  0  3.815359  0  0  -0.07186  0  4.054987  0  0  -0.072513  0  4.08035  0  0  -0.095424  -0.071229  0  4.037782  0
C  C102  1  0.55775369  0.68935892  0.66107458  1  0  -0.053452  0  3.815346  0  0  -0.07198  0  4.054986  0  0  -0.072635  0  4.080351  0  0  -0.095453  -0.071345  0  4.037777  0
C  C103  1  0.94224561  0.31063904  0.16107788  1  0  -0.053262  0  3.815278  0  0  -0.071783  0  4.054929  0  0  -0.072437  0  4.08029  0  0  -0.095366  -0.071153  0  4.037723  0
C  C104  1  0.39573587  0.11065802  0.77733021  1  0  -0.07275  0  3.771729  0  0  -0.082077  0  4.014322  0  0  -0.08482  0  4.036858  0  0  -0.095957  -0.07995  0  3.998621  0
C  C105  1  0.10426531  0.88934115  0.27733093  1  0  -0.072726  0  3.77178  0  0  -0.082051  0  4.014368  0  0  -0.084793  0  4.036903  0  0  -0.095939  -0.079923  0  3.998664  0
C  C106  1  0.60426455  0.61065400  0.72266835  1  0  -0.07273  0  3.771695  0  0  -0.082038  0  4.014257  0  0  -0.084781  0  4.036792  0  0  -0.095929  -0.079912  0  3.998553  0
C  C107  1  0.89573528  0.38934192  0.22267096  1  0  -0.072749  0  3.771648  0  0  -0.082112  0  4.014234  0  0  -0.084854  0  4.03677  0  0  -0.095985  -0.079983  0  3.998532  0
C  C108  1  0.39633707  0.97358088  0.78408137  1  0  -0.072763  0  3.780108  0  0  -0.085491  0  4.023523  0  0  -0.087375  0  4.045783  0  0  -0.094841  -0.084114  0  4.008179  0
C  C109  1  0.10366296  0.02641829  0.28408240  1  0  -0.072793  0  3.780133  0  0  -0.085532  0  4.023555  0  0  -0.087416  0  4.045817  0  0  -0.094869  -0.084157  0  4.008211  0
C  C110  1  0.60365934  0.47357891  0.71591534  1  0  -0.072706  0  3.780213  0  0  -0.085459  0  4.023637  0  0  -0.087343  0  4.045902  0  0  -0.094887  -0.084082  0  4.008292  0
C  C111  1  0.89633682  0.52641898  0.21591905  1  0  -0.072757  0  3.78008  0  0  -0.085489  0  4.023516  0  0  -0.087373  0  4.045776  0  0  -0.094843  -0.084107  0  4.008173  0
C  C112  1  0.44385751  0.91521650  0.85258517  1  0  -0.072317  0  3.779532  0  0  -0.083035  0  4.024356  0  0  -0.085858  0  4.04718  0  0  -0.09617  -0.080605  0  4.008391  0
C  C113  1  0.05614072  0.08478357  0.35258552  1  0  -0.072405  0  3.779599  0  0  -0.083111  0  4.024431  0  0  -0.085934  0  4.047257  0  0  -0.096213  -0.080681  0  4.008469  0
C  C114  1  0.55613776  0.41521661  0.64741270  1  0  -0.072362  0  3.779615  0  0  -0.083065  0  4.024438  0  0  -0.08589  0  4.047272  0  0  -0.096171  -0.080636  0  4.008474  0
C  C115  1  0.94385901  0.58478333  0.14741533  1  0  -0.072389  0  3.779625  0  0  -0.083108  0  4.024435  0  0  -0.085931  0  4.047259  0  0  -0.096202  -0.080683  0  4.00848  0
C  C116  1  0.62725935  0.45160029  0.98910536  1  0  -0.295752  0  3.689081  0  0  -0.241565  0  3.941643  0  0  -0.253753  0  3.972254  0  0  -0.100304  -0.233099  0  3.92061  0
C  C117  1  0.87273798  0.54839928  0.48910387  1  0  -0.295684  0  3.688948  0  0  -0.241484  0  3.941495  0  0  -0.253673  0  3.972108  0  0  -0.100252  -0.233018  0  3.920458  0
C  C118  1  0.37273949  0.95160454  0.51089536  1  0  -0.295698  0  3.689164  0  0  -0.241494  0  3.941684  0  0  -0.253686  0  3.9723  0  0  -0.10024  -0.233026  0  3.920644  0
C  C119  1  0.12725938  0.04839886  0.01089643  1  0  -0.295674  0  3.688982  0  0  -0.241477  0  3.941525  0  0  -0.253671  0  3.972145  0  0  -0.100253  -0.233007  0  3.920485  0
C  C120  1  0.58083850  0.54794361  0.04200480  1  0  -0.061886  0  3.838391  0  0  -0.08085  0  4.079819  0  0  -0.081131  0  4.104052  0  0  -0.096579  -0.080624  0  4.063153  0
C  C121  1  0.91915977  0.45205447  0.54200457  1  0  -0.061831  0  3.838221  0  0  -0.080798  0  4.079637  0  0  -0.081079  0  4.103872  0  0  -0.096565  -0.080569  0  4.062967  0
C  C122  1  0.41916126  0.04794939  0.45799379  1  0  -0.061768  0  3.838212  0  0  -0.080717  0  4.079637  0  0  -0.080997  0  4.103872  0  0  -0.096523  -0.08049  0  4.062967  0
C  C123  1  0.08083908  0.95205648  0.95799671  1  0  -0.061857  0  3.838326  0  0  -0.080824  0  4.079751  0  0  -0.081106  0  4.103992  0  0  -0.0966  -0.080595  0  4.063078  0
C  C124  1  0.62729359  0.67923722  0.03260607  1  0  -0.071043  0  3.767972  0  0  -0.081277  0  4.012869  0  0  -0.083672  0  4.034988  0  0  -0.093886  -0.079648  0  3.99839  0
C  C125  1  0.87270339  0.32076186  0.53260523  1  0  -0.071078  0  3.767967  0  0  -0.081288  0  4.012855  0  0  -0.083684  0  4.034975  0  0  -0.093903  -0.079659  0  3.998376  0
C  C126  1  0.37270363  0.17924598  0.46739361  1  0  -0.071136  0  3.767938  0  0  -0.081351  0  4.012806  0  0  -0.083749  0  4.034927  0  0  -0.09393  -0.079723  0  3.998326  0
C  C127  1  0.12729439  0.82076087  0.96739553  1  0  -0.071084  0  3.768027  0  0  -0.081294  0  4.012922  0  0  -0.08369  0  4.035042  0  0  -0.093914  -0.079663  0  3.99844  0
C  C128  1  0.72043064  0.71566292  0.96974325  1  0  -0.067716  0  3.77283  0  0  -0.079506  0  4.015105  0  0  -0.081023  0  4.036725  0  0  -0.092687  -0.078169  0  4.000282  0
C  C129  1  0.77956773  0.28433569  0.46974339  1  0  -0.067784  0  3.772851  0  0  -0.079557  0  4.015113  0  0  -0.081075  0  4.036733  0  0  -0.092687  -0.078221  0  4.000293  0
C  C130  1  0.27956967  0.21567025  0.53025698  1  0  -0.067755  0  3.77294  0  0  -0.079492  0  4.015233  0  0  -0.081008  0  4.036854  0  0  -0.092665  -0.078156  0  4.000414  0
C  C131  1  0.22043178  0.78433708  0.03025853  1  0  -0.067671  0  3.772915  0  0  -0.079442  0  4.015174  0  0  -0.080958  0  4.036794  0  0  -0.092574  -0.078105  0  4.000356  0
C  C132  1  0.76637787  0.62084676  0.91628087  1  0  -0.076608  0  3.766479  0  0  -0.085177  0  4.00996  0  0  -0.087483  0  4.030909  0  0  -0.09204  -0.083561  0  3.995533  0
C  C133  1  0.73361882  0.37915288  0.41628031  1  0  -0.076506  0  3.766533  0  0  -0.085075  0  4.010015  0  0  -0.087379  0  4.030961  0  0  -0.092014  -0.083461  0  3.995592  0
C  C134  1  0.23362374  0.12085210  0.58371996  1  0  -0.076695  0  3.766549  0  0  -0.085318  0  4.010058  0  0  -0.087626  0  4.031004  0  0  -0.092111  -0.083704  0  3.995638  0
C  C135  1  0.26638058  0.87915221  0.08372043  1  0  -0.07658  0  3.766477  0  0  -0.085149  0  4.009962  0  0  -0.087455  0  4.030908  0  0  -0.092075  -0.083533  0  3.995538  0
C  C136  1  0.71998656  0.48970877  0.92599818  1  0  -0.046973  0  3.802673  0  0  -0.06607  0  4.043103  0  0  -0.066618  0  4.06775  0  0  -0.0908  -0.065446  0  4.026184  0
C  C137  1  0.78001263  0.51028791  0.42599824  1  0  -0.047088  0  3.802829  0  0  -0.066213  0  4.04328  0  0  -0.066764  0  4.067927  0  0  -0.090888  -0.065589  0  4.026364  0
C  C138  1  0.28001706  0.98971795  0.57400138  1  0  -0.046973  0  3.802759  0  0  -0.066078  0  4.043207  0  0  -0.066625  0  4.067853  0  0  -0.090786  -0.065455  0  4.026292  0
C  C139  1  0.21998717  0.01028933  0.07400322  1  0  -0.047013  0  3.802596  0  0  -0.066116  0  4.043033  0  0  -0.066664  0  4.067683  0  0  -0.090814  -0.065494  0  4.026111  0
O  O140  1  0.31905086  0.30161353  0.03822385  1  0  -0.882099  0  1.864102  0  0  -0.798066  0  2.104265  0  0  -0.822666  0  2.087248  0  0  -0.508464  -0.780579  0  2.115736  0
O  O141  1  0.18094705  0.69838787  0.53822249  1  0  -0.881902  0  1.864167  0  0  -0.797952  0  2.104249  0  0  -0.822553  0  2.087229  0  0  -0.508425  -0.780472  0  2.115724  0
O  O142  1  0.68094863  0.80161511  0.46177636  1  0  -0.882096  0  1.864069  0  0  -0.79808  0  2.104198  0  0  -0.822682  0  2.087179  0  0  -0.508468  -0.780597  0  2.115671  0
O  O143  1  0.81905087  0.19838548  0.96177660  1  0  -0.882112  0  1.864121  0  0  -0.798072  0  2.104275  0  0  -0.822674  0  2.087257  0  0  -0.508474  -0.780593  0  2.115752  0
