# generated using pymatgen
data_FeH2C7O5
_symmetry_space_group_name_H-M   'P 1'
_cell_length_a   8.62218219
_cell_length_b   8.62229726
_cell_length_c   11.23931150
_cell_angle_alpha   90.00182771
_cell_angle_beta   89.99931792
_cell_angle_gamma   119.99949898
_symmetry_Int_Tables_number   1
_chemical_formula_structural   FeH2C7O5
_chemical_formula_sum   'Fe3 H6 C21 O15'
_cell_volume   723.62359476
_cell_formula_units_Z   3
loop_
 _symmetry_equiv_pos_site_id
 _symmetry_equiv_pos_as_xyz
  1  'x, y, z'
loop_
 _atom_site_type_symbol
 _atom_site_label
 _atom_site_symmetry_multiplicity
 _atom_site_fract_x
 _atom_site_fract_y
 _atom_site_fract_z
 _atom_site_occupancy
 _atom_site_pbe_bader_charge
 _atom_site_pbe_bader_spin_density
 _atom_site_pbe_cm5_charge
 _atom_site_pbe_ddec_charge
 _atom_site_pbe_ddec_spin_density
 _atom_site_pbe_ddec_sum_bond_order
 _atom_site_pbe_magmom
Fe  Fe0  1  0.09139036  0.09138215  0.49999582  1  1.653353  3.914528  0.852987  1.201668  4.272747  2.610068  3.879
Fe  Fe1  1  0.90860208  0.00000319  0.83334108  1  1.653498  3.914678  0.852998  1.201665  4.272787  2.61005  3.879
Fe  Fe2  1  0.00001249  0.90861796  0.16666384  1  1.653649  3.914671  0.853127  1.201837  4.272795  2.610017  3.879
H  H3  1  0.65715823  0.13408744  0.50474213  1  0.090714  0.000574  0.112237  0.141246  -0.000647  0.999936  0.0
H  H4  1  0.86589801  0.52306325  0.83808879  1  0.105455  0.000474  0.112261  0.141195  -0.000646  0.999954  0.0
H  H5  1  0.47696926  0.34287297  0.17145137  1  0.110058  0.000445  0.112353  0.14124  -0.000647  0.999847  0.0
H  H6  1  0.13407930  0.65713362  0.49523421  1  0.0924  0.000566  0.112311  0.141254  -0.000646  0.99984  0.0
H  H7  1  0.52305674  0.86590050  0.16188906  1  0.106921  0.000473  0.112331  0.141278  -0.000648  0.999905  0.0
H  H8  1  0.34283741  0.47693304  0.82859995  1  0.111003  0.000446  0.112191  0.141175  -0.000646  0.999935  0.0
C  C9  1  0.40189995  0.08164405  0.43361376  1  0.681223  -0.064802  0.093589  0.26755  -0.07072  4.130483  -0.032
C  C10  1  0.56209806  0.07829245  0.43168043  1  0.054477  0.071814  -0.101716  -0.241157  0.032682  3.917534  0.048
C  C11  1  0.91834150  0.32024641  0.76695780  1  0.665398  -0.065212  0.093588  0.267558  -0.07073  4.129986  -0.032
C  C12  1  0.92169499  0.48379738  0.76502480  1  0.07236  0.072019  -0.101696  -0.241079  0.032703  3.917263  0.048
C  C13  1  0.67975518  0.59811536  0.10031687  1  0.670853  -0.065364  0.093556  0.267379  -0.070684  4.129975  -0.032
C  C14  1  0.51621436  0.43792130  0.09838303  1  0.022599  0.072004  -0.101886  -0.241114  0.03269  3.917311  0.048
C  C15  1  0.08162892  0.40188179  0.56636352  1  0.682466  -0.064823  0.093517  0.267395  -0.070725  4.12993  -0.032
C  C16  1  0.07828253  0.56207969  0.56829729  1  0.048042  0.07186  -0.101821  -0.241162  0.032697  3.91742  0.048
C  C17  1  0.32025925  0.91835129  0.23301699  1  0.666023  -0.06521  0.093603  0.267491  -0.070698  4.129895  -0.032
C  C18  1  0.48380052  0.92170029  0.23494963  1  0.070251  0.071988  -0.10183  -0.241164  0.032689  3.917622  0.048
C  C19  1  0.59810180  0.67975965  0.89972854  1  0.672808  -0.065398  0.093652  0.267529  -0.070758  4.130366  -0.032
C  C20  1  0.43790185  0.51619707  0.90166320  1  0.022699  0.072026  -0.101615  -0.241112  0.032699  3.917443  0.048
C  C21  1  0.28222219  0.00000854  0.33332241  1  0.646851  -0.218181  0.121881  0.191743  -0.234662  3.952752  -0.117
C  C22  1  0.59901158  0.99999713  0.33331641  1  -0.081631  -0.11214  0.00803  0.03218  -0.119972  3.956676  -0.068
C  C23  1  0.77271992  0.99999871  0.33331650  1  1.581035  0.005398  0.246299  0.629551  0.002948  4.083426  0.012
C  C24  1  0.99998652  0.28220384  0.66665982  1  0.646317  -0.218166  0.121792  0.19186  -0.234621  3.952784  -0.117
C  C25  1  0.99999233  0.59901164  0.66666050  1  -0.077142  -0.11217  0.00797  0.032158  -0.119996  3.9565  -0.068
C  C26  1  0.00000237  0.77272428  0.66666328  1  1.58057  0.0054  0.246275  0.629399  0.002946  4.083609  0.012
C  C27  1  0.71778430  0.71779934  0.00001944  1  0.649538  -0.217959  0.121863  0.191813  -0.234651  3.952901  -0.117
C  C28  1  0.40099682  0.40099058  0.00001942  1  -0.025535  -0.111933  0.008093  0.032302  -0.119961  3.956593  -0.068
C  C29  1  0.22728862  0.22728124  0.00001972  1  1.568061  0.005282  0.246445  0.629551  0.002948  4.083127  0.012
O  O30  1  0.34550174  0.14990939  0.51482366  1  -1.056543  0.085025  -0.294025  -0.444404  0.036399  2.20707  0.07
O  O31  1  0.84660189  0.01395255  0.43388827  1  -1.1296  0.108793  -0.295333  -0.530757  0.050168  2.327621  0.086
O  O32  1  0.85007961  0.19558573  0.84816517  1  -1.057201  0.085046  -0.293971  -0.444349  0.036419  2.206736  0.07
O  O33  1  0.98603279  0.83264697  0.76723392  1  -1.130014  0.108732  -0.295296  -0.530626  0.050163  2.327542  0.086
O  O34  1  0.80443484  0.65451305  0.18151772  1  -1.054635  0.085  -0.293941  -0.444277  0.036423  2.206447  0.07
O  O35  1  0.16738542  0.15340835  0.10059458  1  -1.133984  0.108843  -0.295388  -0.530737  0.050159  2.327345  0.086
O  O36  1  0.14990109  0.34548093  0.48515550  1  -1.057385  0.085045  -0.293871  -0.44422  0.036408  2.206357  0.07
O  O37  1  0.01397392  0.84660080  0.56608865  1  -1.130403  0.108783  -0.295298  -0.53066  0.050164  2.327577  0.086
O  O38  1  0.19558745  0.85008133  0.15181421  1  -1.057446  0.085022  -0.293938  -0.44427  0.036411  2.206444  0.07
O  O39  1  0.83264102  0.98604540  0.23274046  1  -1.131237  0.108745  -0.295317  -0.530723  0.050163  2.327468  0.086
O  O40  1  0.65448978  0.80441326  0.81852301  1  -1.055372  0.084917  -0.294023  -0.444313  0.036374  2.2069  0.07
O  O41  1  0.15339261  0.16736140  0.89945071  1  -1.133476  0.108849  -0.295503  -0.53085  0.050171  2.327521  0.086
O  O42  1  0.13270279  0.99999979  0.33332493  1  -1.094454  0.007902  -0.258869  -0.440307  -0.016882  2.495811  0.007
O  O43  1  0.99999455  0.13269718  0.66666672  1  -1.094204  0.007856  -0.258719  -0.440375  -0.016914  2.495835  0.007
O  O44  1  0.86729670  0.86730907  0.00000825  1  -1.078361  0.008157  -0.258891  -0.440361  -0.016903  2.495736  0.007
