# generated using pymatgen
data_CuH4C5BrNCl
_symmetry_space_group_name_H-M   'P 1'
_cell_length_a   3.82122748
_cell_length_b   8.64078117
_cell_length_c   20.83542694
_cell_angle_alpha   101.89153252
_cell_angle_beta   89.99990481
_cell_angle_gamma   90.00032264
_symmetry_Int_Tables_number   1
_chemical_formula_structural   CuH4C5BrNCl
_chemical_formula_sum   'Cu4 H16 C20 Br4 N4 Cl4'
_cell_volume   673.18842628
_cell_formula_units_Z   4
loop_
 _symmetry_equiv_pos_site_id
 _symmetry_equiv_pos_as_xyz
  1  'x, y, z'
loop_
 _atom_site_type_symbol
 _atom_site_label
 _atom_site_symmetry_multiplicity
 _atom_site_fract_x
 _atom_site_fract_y
 _atom_site_fract_z
 _atom_site_occupancy
 _atom_site_hle17_bader_spin_density
 _atom_site_hle17_ddec_charge
 _atom_site_hle17_ddec_spin_density
 _atom_site_hle17_ddec_sum_bond_order
 _atom_site_hle17_magmom
 _atom_site_hse06_10hf_bader_spin_density
 _atom_site_hse06_10hf_ddec_charge
 _atom_site_hse06_10hf_ddec_spin_density
 _atom_site_hse06_10hf_ddec_sum_bond_order
 _atom_site_hse06_10hf_magmom
 _atom_site_hse06_bader_spin_density
 _atom_site_hse06_ddec_charge
 _atom_site_hse06_ddec_spin_density
 _atom_site_hse06_ddec_sum_bond_order
 _atom_site_hse06_magmom
 _atom_site_pbe_bader_spin_density
 _atom_site_pbe_cm5_charge
 _atom_site_pbe_ddec_charge
 _atom_site_pbe_ddec_spin_density
 _atom_site_pbe_ddec_sum_bond_order
 _atom_site_pbe_magmom
Cu  Cu0  1  0.61381366  0.81494885  0.79173811  1  0  0.302188  0  2.084449  0  0  0.208966  0  2.586722  0  0  0.222362  0  2.525559  0  0  0.281895  0.202054  0  2.62755  0
Cu  Cu1  1  0.11382217  0.68505385  0.70826435  1  0  0.302201  0  2.084494  0  0  0.208982  0  2.586793  0  0  0.222407  0  2.52562  0  0  0.281856  0.202062  0  2.627598  0
Cu  Cu2  1  0.38618735  0.18505199  0.20826228  1  0  0.302216  0  2.084401  0  0  0.20901  0  2.586665  0  0  0.222391  0  2.525504  0  0  0.281901  0.202099  0  2.627533  0
Cu  Cu3  1  0.88619455  0.31494584  0.29173738  1  0  0.302097  0  2.084488  0  0  0.208896  0  2.586736  0  0  0.222341  0  2.525588  0  0  0.281832  0.201974  0  2.627588  0
H  H4  1  0.32698451  0.96237446  0.92242255  1  0  0.086765  0  0.964327  0  0  0.08721  0  1.043764  0  0  0.091067  0  1.039866  0  0  0.098843  0.0843  0  1.046778  0
H  H5  1  0.82698552  0.53762640  0.57757924  1  0  0.086735  0  0.964382  0  0  0.087191  0  1.0438  0  0  0.091048  0  1.039901  0  0  0.09883  0.084283  0  1.046813  0
H  H6  1  0.67300603  0.03762399  0.07757620  1  0  0.086771  0  0.964338  0  0  0.087257  0  1.043713  0  0  0.091114  0  1.039816  0  0  0.098869  0.084352  0  1.046731  0
H  H7  1  0.17304951  0.46236980  0.42242462  1  0  0.086743  0  0.964225  0  0  0.0872  0  1.043669  0  0  0.091056  0  1.039775  0  0  0.098849  0.084289  0  1.046679  0
H  H8  1  0.67271869  0.41354369  0.82585358  1  0  0.106518  0  0.981939  0  0  0.115119  0  1.045132  0  0  0.118181  0  1.04467  0  0  0.091601  0.112646  0  1.045964  0
H  H9  1  0.17273422  0.08646018  0.67414487  1  0  0.106462  0  0.982019  0  0  0.115115  0  1.045156  0  0  0.118177  0  1.0447  0  0  0.091611  0.112645  0  1.045985  0
H  H10  1  0.32725353  0.58645710  0.17414441  1  0  0.106378  0  0.982085  0  0  0.115037  0  1.04522  0  0  0.11811  0  1.044735  0  0  0.091605  0.112569  0  1.046049  0
H  H11  1  0.82724848  0.91354066  0.32585552  1  0  0.106399  0  0.981998  0  0  0.115108  0  1.045088  0  0  0.11817  0  1.044633  0  0  0.091636  0.112638  0  1.045919  0
H  H12  1  0.39465590  0.46845340  0.93696672  1  0  0.109365  0  0.953195  0  0  0.11425  0  1.024592  0  0  0.118159  0  1.020751  0  0  0.097251  0.111262  0  1.027594  0
H  H13  1  0.89468056  0.03155104  0.56303221  1  0  0.109298  0  0.953337  0  0  0.114235  0  1.024674  0  0  0.118185  0  1.020788  0  0  0.09728  0.111255  0  1.027677  0
H  H14  1  0.60531894  0.53155213  0.06303214  1  0  0.1093  0  0.953273  0  0  0.114206  0  1.024646  0  0  0.118155  0  1.020763  0  0  0.097272  0.111225  0  1.027652  0
H  H15  1  0.10532307  0.96845217  0.43696837  1  0  0.109201  0  0.953325  0  0  0.114181  0  1.024653  0  0  0.118135  0  1.020764  0  0  0.097239  0.111201  0  1.027656  0
H  H16  1  0.75516983  0.13106040  0.76703841  1  0  0.074541  0  0.963421  0  0  0.081438  0  1.033758  0  0  0.083984  0  1.031902  0  0  0.103691  0.079462  0  1.035302  0
H  H17  1  0.25518298  0.36893774  0.73295811  1  0  0.074533  0  0.963374  0  0  0.081356  0  1.033792  0  0  0.083902  0  1.031938  0  0  0.103663  0.079391  0  1.035334  0
H  H18  1  0.24480501  0.86893917  0.23295756  1  0  0.074644  0  0.96334  0  0  0.08141  0  1.033805  0  0  0.083953  0  1.031955  0  0  0.103668  0.079441  0  1.035351  0
H  H19  1  0.74481018  0.63105721  0.26704276  1  0  0.074602  0  0.963526  0  0  0.081459  0  1.033883  0  0  0.084  0  1.032032  0  0  0.103695  0.079488  0  1.035429  0
C  C20  1  0.40153616  0.06475175  0.90244558  1  0  0.05584  0  3.669631  0  0  0.015306  0  3.926244  0  0  0.021812  0  3.941565  0  0  0.028289  0.010786  0  3.916539  0
C  C21  1  0.90154719  0.43524915  0.59755306  1  0  0.055981  0  3.669757  0  0  0.015434  0  3.926324  0  0  0.021945  0  3.941643  0  0  0.028375  0.01091  0  3.916609  0
C  C22  1  0.59848055  0.93525026  0.09755443  1  0  0.055924  0  3.669574  0  0  0.015371  0  3.926286  0  0  0.021879  0  3.941599  0  0  0.028286  0.010844  0  3.916589  0
C  C23  1  0.09847476  0.56474817  0.40244848  1  0  0.055833  0  3.669491  0  0  0.015256  0  3.926173  0  0  0.021774  0  3.941486  0  0  0.028209  0.010741  0  3.916456  0
C  C24  1  0.59045642  0.31621403  0.84837609  1  0  -0.101082  0  3.742577  0  0  -0.10949  0  3.989392  0  0  -0.116414  0  4.011241  0  0  -0.089936  -0.105245  0  3.975393  0
C  C25  1  0.09046559  0.18378856  0.65162755  1  0  -0.100992  0  3.742542  0  0  -0.109458  0  3.989393  0  0  -0.116386  0  4.011244  0  0  -0.08992  -0.105219  0  3.975392  0
C  C26  1  0.40956291  0.68378454  0.15162844  1  0  -0.100884  0  3.742494  0  0  -0.109338  0  3.989272  0  0  -0.116265  0  4.011136  0  0  -0.089923  -0.105095  0  3.975278  0
C  C27  1  0.90955374  0.81621589  0.34837602  1  0  -0.100866  0  3.742252  0  0  -0.109376  0  3.989116  0  0  -0.11631  0  4.010974  0  0  -0.089948  -0.105139  0  3.975127  0
C  C28  1  0.34607568  0.21851877  0.93764361  1  0  0.078771  0  3.815899  0  0  0.095244  0  4.078271  0  0  0.093267  0  4.101233  0  0  0.009552  0.096211  0  4.06294  0
C  C29  1  0.84610613  0.28148321  0.56235657  1  0  0.078707  0  3.816327  0  0  0.095283  0  4.078561  0  0  0.093303  0  4.101525  0  0  0.009562  0.096251  0  4.063224  0
C  C30  1  0.65389131  0.78148319  0.06235400  1  0  0.078901  0  3.815943  0  0  0.095312  0  4.078415  0  0  0.093332  0  4.101382  0  0  0.009616  0.096281  0  4.063086  0
C  C31  1  0.15391844  0.71852002  0.43764546  1  0  0.078803  0  3.815873  0  0  0.095352  0  4.078182  0  0  0.093374  0  4.10115  0  0  0.00957  0.096318  0  4.06285  0
C  C32  1  0.43850769  0.34747486  0.91054173  1  0  -0.073454  0  3.71337  0  0  -0.103904  0  3.966422  0  0  -0.099728  0  3.982338  0  0  -0.0821  -0.106683  0  3.956053  0
C  C33  1  0.93850478  0.15252378  0.58945671  1  0  -0.073414  0  3.713389  0  0  -0.103941  0  3.966459  0  0  -0.099803  0  3.98236  0  0  -0.082143  -0.106733  0  3.956095  0
C  C34  1  0.56148285  0.65252825  0.08945452  1  0  -0.073532  0  3.713395  0  0  -0.103959  0  3.966487  0  0  -0.099827  0  3.982399  0  0  -0.082184  -0.106753  0  3.956131  0
C  C35  1  0.06149885  0.84747346  0.41054098  1  0  -0.073374  0  3.713407  0  0  -0.103934  0  3.966506  0  0  -0.099809  0  3.982425  0  0  -0.082107  -0.106719  0  3.956144  0
C  C36  1  0.63963616  0.16039504  0.81588987  1  0  0.104745  0  3.676624  0  0  0.074551  0  3.923828  0  0  0.081127  0  3.94067  0  0  0.030758  0.070028  0  3.913141  0
C  C37  1  0.13964168  0.33960277  0.68410521  1  0  0.104762  0  3.676999  0  0  0.074667  0  3.924167  0  0  0.081232  0  3.941039  0  0  0.030825  0.070133  0  3.913473  0
C  C38  1  0.36034391  0.83960334  0.18410600  1  0  0.104626  0  3.676902  0  0  0.074569  0  3.92408  0  0  0.081138  0  3.940936  0  0  0.030821  0.07004  0  3.913396  0
C  C39  1  0.86036719  0.66039208  0.31589133  1  0  0.104621  0  3.676504  0  0  0.074475  0  3.923773  0  0  0.081072  0  3.940601  0  0  0.03074  0.069946  0  3.913089  0
Br  Br40  1  0.10349743  0.66524284  0.82660946  1  0  -0.417676  0  1.592198  0  0  -0.347249  0  2.024612  0  0  -0.365208  0  1.981862  0  0  -0.222629  -0.333978  0  2.054341  0
Br  Br41  1  0.60350105  0.83475385  0.67338963  1  0  -0.41767  0  1.59214  0  0  -0.347242  0  2.024529  0  0  -0.365209  0  1.981794  0  0  -0.222621  -0.333965  0  2.05424  0
Br  Br42  1  0.89649835  0.33476039  0.17339209  1  0  -0.417633  0  1.592147  0  0  -0.347231  0  2.024575  0  0  -0.365192  0  1.981831  0  0  -0.22262  -0.333958  0  2.054334  0
Br  Br43  1  0.39650258  0.16524103  0.32660835  1  0  -0.417641  0  1.59217  0  0  -0.347226  0  2.024579  0  0  -0.365197  0  1.981849  0  0  -0.222632  -0.333952  0  2.054328  0
N  N44  1  0.54581458  0.03600070  0.84212836  1  0  -0.245809  0  3.368848  0  0  -0.170117  0  3.657944  0  0  -0.182868  0  3.667578  0  0  -0.358534  -0.162412  0  3.651697  0
N  N45  1  0.04582721  0.46400056  0.65787325  1  0  -0.245868  0  3.368934  0  0  -0.170225  0  3.658081  0  0  -0.182982  0  3.667714  0  0  -0.358636  -0.162516  0  3.651809  0
N  N46  1  0.45415502  0.96399657  0.15787078  1  0  -0.245932  0  3.368907  0  0  -0.170272  0  3.658044  0  0  -0.183011  0  3.667651  0  0  -0.358621  -0.162565  0  3.651809  0
N  N47  1  0.95419212  0.53600276  0.34213262  1  0  -0.245724  0  3.368801  0  0  -0.170056  0  3.657883  0  0  -0.18284  0  3.667568  0  0  -0.358433  -0.162343  0  3.651623  0
Cl  Cl48  1  0.16859651  0.24703632  0.01558334  1  0  -0.08071  0  1.437771  0  0  -0.061325  0  1.691576  0  0  -0.065746  0  1.688275  0  0  0.011343  -0.058431  0  1.694135  0
Cl  Cl49  1  0.66861632  0.25297404  0.48441980  1  0  -0.080731  0  1.437913  0  0  -0.061394  0  1.69171  0  0  -0.065811  0  1.688407  0  0  0.011292  -0.058502  0  1.694259  0
Cl  Cl50  1  0.83139142  0.75296566  0.98441475  1  0  -0.080748  0  1.437691  0  0  -0.061339  0  1.69153  0  0  -0.065758  0  1.688219  0  0  0.011329  -0.058444  0  1.69408  0
Cl  Cl51  1  0.33142394  0.74702446  0.51558136  1  0  -0.08073  0  1.437805  0  0  -0.061368  0  1.691599  0  0  -0.065787  0  1.688299  0  0  0.011334  -0.058473  0  1.694149  0
