# generated using pymatgen
data_CaH4C7(NO4)2
_symmetry_space_group_name_H-M   'P 1'
_cell_length_a   6.71844423
_cell_length_b   12.44063915
_cell_length_c   12.47391515
_cell_angle_alpha   111.57903321
_cell_angle_beta   90.00005197
_cell_angle_gamma   89.99957336
_symmetry_Int_Tables_number   1
_chemical_formula_structural   CaH4C7(NO4)2
_chemical_formula_sum   'Ca4 H16 C28 N8 O32'
_cell_volume   969.51747911
_cell_formula_units_Z   4
loop_
 _symmetry_equiv_pos_site_id
 _symmetry_equiv_pos_as_xyz
  1  'x, y, z'
loop_
 _atom_site_type_symbol
 _atom_site_label
 _atom_site_symmetry_multiplicity
 _atom_site_fract_x
 _atom_site_fract_y
 _atom_site_fract_z
 _atom_site_occupancy
 _atom_site_hle17_bader_spin_density
 _atom_site_hle17_ddec_charge
 _atom_site_hle17_ddec_spin_density
 _atom_site_hle17_ddec_sum_bond_order
 _atom_site_hle17_magmom
 _atom_site_hse06_10hf_bader_spin_density
 _atom_site_hse06_10hf_ddec_charge
 _atom_site_hse06_10hf_ddec_spin_density
 _atom_site_hse06_10hf_ddec_sum_bond_order
 _atom_site_hse06_10hf_magmom
 _atom_site_hse06_bader_spin_density
 _atom_site_hse06_ddec_charge
 _atom_site_hse06_ddec_spin_density
 _atom_site_hse06_ddec_sum_bond_order
 _atom_site_hse06_magmom
 _atom_site_pbe_bader_spin_density
 _atom_site_pbe_cm5_charge
 _atom_site_pbe_ddec_charge
 _atom_site_pbe_ddec_spin_density
 _atom_site_pbe_ddec_sum_bond_order
 _atom_site_pbe_magmom
Ca  Ca0  1  0.99103057  0.84547096  0.48726685  1  0  1.551259  0  1.118939  0  0  1.421294  0  1.471795  0  0  1.467414  0  1.423382  0  0  0.941192  1.386716  0  1.506237  0
Ca  Ca1  1  0.49103521  0.65453111  0.51273485  1  0  1.551292  0  1.118858  0  0  1.42133  0  1.471713  0  0  1.467454  0  1.423295  0  0  0.941185  1.386734  0  1.506199  0
Ca  Ca2  1  0.00897318  0.15453070  0.51273277  1  0  1.55129  0  1.118834  0  0  1.421329  0  1.471666  0  0  1.46745  0  1.423254  0  0  0.941161  1.386733  0  1.506152  0
Ca  Ca3  1  0.50896557  0.34547055  0.48726477  1  0  1.551282  0  1.118916  0  0  1.42132  0  1.471763  0  0  1.467443  0  1.42335  0  0  0.94119  1.386759  0  1.506182  0
H  H4  1  0.67277720  0.18475958  0.80832660  1  0  0.14965  0  0.916992  0  0  0.151922  0  0.983892  0  0  0.156653  0  0.978456  0  0  0.135099  0.148383  0  0.987907  0
H  H5  1  0.17277609  0.31524009  0.19167125  1  0  0.149673  0  0.916964  0  0  0.151907  0  0.983901  0  0  0.156658  0  0.978441  0  0  0.13507  0.148366  0  0.98792  0
H  H6  1  0.32722804  0.81524480  0.19167957  1  0  0.149613  0  0.9171  0  0  0.151869  0  0.983992  0  0  0.156624  0  0.978524  0  0  0.135031  0.148325  0  0.988009  0
H  H7  1  0.82722618  0.68476329  0.80832896  1  0  0.149675  0  0.916959  0  0  0.151939  0  0.983862  0  0  0.156675  0  0.978421  0  0  0.135064  0.148398  0  0.987882  0
H  H8  1  0.21330740  0.03536617  0.95280728  1  0  0.154946  0  0.932941  0  0  0.154336  0  1.004516  0  0  0.159385  0  0.99851  0  0  0.127301  0.150617  0  1.008789  0
H  H9  1  0.71330334  0.46463599  0.04719466  1  0  0.1549  0  0.93294  0  0  0.154317  0  1.004512  0  0  0.159366  0  0.998506  0  0  0.127303  0.150595  0  1.00879  0
H  H10  1  0.78669189  0.96463286  0.04718982  1  0  0.154886  0  0.932908  0  0  0.154307  0  1.004477  0  0  0.159356  0  0.998473  0  0  0.127292  0.150588  0  1.008751  0
H  H11  1  0.28669297  0.53536301  0.95280163  1  0  0.154812  0  0.933095  0  0  0.154223  0  1.004658  0  0  0.159269  0  0.998651  0  0  0.127302  0.150504  0  1.008928  0
H  H12  1  0.15958186  0.64655540  0.31031972  1  0  0.429104  0  0.877326  0  0  0.394758  0  0.947888  0  0  0.40725  0  0.929811  0  0  0.291723  0.385843  0  0.960708  0
H  H13  1  0.65958045  0.85344560  0.68968388  1  0  0.429081  0  0.877345  0  0  0.394734  0  0.947912  0  0  0.407225  0  0.929836  0  0  0.291713  0.385822  0  0.960729  0
H  H14  1  0.84041743  0.35344536  0.68967798  1  0  0.429103  0  0.877333  0  0  0.394756  0  0.947898  0  0  0.407248  0  0.92982  0  0  0.29172  0.385841  0  0.960718  0
H  H15  1  0.34041884  0.14655263  0.31031615  1  0  0.429084  0  0.877352  0  0  0.394728  0  0.947932  0  0  0.40722  0  0.929855  0  0  0.291691  0.385813  0  0.960752  0
H  H16  1  0.98756349  0.67205907  0.23638296  1  0  0.434404  0  0.856852  0  0  0.405945  0  0.916825  0  0  0.416364  0  0.901526  0  0  0.302755  0.398497  0  0.927753  0
H  H17  1  0.48756170  0.82794126  0.76361734  1  0  0.434344  0  0.856943  0  0  0.405896  0  0.916898  0  0  0.416315  0  0.901598  0  0  0.302752  0.398452  0  0.927819  0
H  H18  1  0.01243134  0.32794084  0.76361525  1  0  0.434417  0  0.85685  0  0  0.405964  0  0.916812  0  0  0.416383  0  0.901513  0  0  0.30275  0.398516  0  0.927739  0
H  H19  1  0.51243908  0.17205699  0.23638351  1  0  0.434363  0  0.85692  0  0  0.405915  0  0.916875  0  0  0.416334  0  0.901574  0  0  0.302744  0.39847  0  0.927798  0
C  C20  1  0.22701409  0.05332449  0.68592448  1  0  0.380453  0  3.813582  0  0  0.352888  0  4.084608  0  0  0.377062  0  4.095223  0  0  0.135617  0.336638  0  4.077209  0
C  C21  1  0.72702116  0.44667942  0.31408128  1  0  0.380546  0  3.813566  0  0  0.353014  0  4.084581  0  0  0.377188  0  4.095196  0  0  0.135672  0.336769  0  4.077174  0
C  C22  1  0.77299264  0.94667546  0.31407534  1  0  0.380494  0  3.81366  0  0  0.352871  0  4.084668  0  0  0.37704  0  4.095287  0  0  0.135606  0.336627  0  4.077259  0
C  C23  1  0.27297813  0.55331878  0.68591714  1  0  0.380565  0  3.813401  0  0  0.353061  0  4.084355  0  0  0.377235  0  4.094971  0  0  0.13573  0.336811  0  4.07696  0
C  C24  1  0.41409270  0.11493208  0.70139807  1  0  -0.028344  0  3.615918  0  0  -0.047057  0  3.881792  0  0  -0.060525  0  3.900811  0  0  0.08854  -0.038958  0  3.869663  0
C  C25  1  0.91409464  0.38507447  0.29860948  1  0  -0.028461  0  3.615851  0  0  -0.047097  0  3.881722  0  0  -0.060567  0  3.900745  0  0  0.088524  -0.039001  0  3.869594  0
C  C26  1  0.58591105  0.88507138  0.29860538  1  0  -0.028494  0  3.615966  0  0  -0.046995  0  3.881687  0  0  -0.060465  0  3.900714  0  0  0.08851  -0.038898  0  3.869556  0
C  C27  1  0.08590465  0.61492805  0.70139043  1  0  -0.028376  0  3.615681  0  0  -0.046958  0  3.881593  0  0  -0.060427  0  3.900615  0  0  0.088524  -0.038858  0  3.869468  0
C  C28  1  0.53328987  0.13772654  0.79889148  1  0  -0.05319  0  3.644185  0  0  -0.099599  0  3.920188  0  0  -0.087645  0  3.930617  0  0  -0.044637  -0.106783  0  3.913176  0
C  C29  1  0.03329259  0.36227125  0.20110969  1  0  -0.053174  0  3.644062  0  0  -0.099547  0  3.920036  0  0  -0.08761  0  3.930453  0  0  -0.044593  -0.106745  0  3.913007  0
C  C30  1  0.46671240  0.86227436  0.20111269  1  0  -0.053123  0  3.644435  0  0  -0.099554  0  3.920375  0  0  -0.087618  0  3.930787  0  0  -0.044546  -0.106745  0  3.913334  0
C  C31  1  0.96670968  0.63772785  0.79889065  1  0  -0.053285  0  3.644177  0  0  -0.099683  0  3.92015  0  0  -0.087735  0  3.930582  0  0  -0.044652  -0.106882  0  3.913129  0
C  C32  1  0.45784262  0.10862154  0.88755698  1  0  0.073773  0  3.698989  0  0  0.054263  0  3.962722  0  0  0.044046  0  3.984339  0  0  0.081551  0.060254  0  3.948459  0
C  C33  1  0.95784266  0.39137698  0.11244540  1  0  0.073825  0  3.698858  0  0  0.054313  0  3.962595  0  0  0.044097  0  3.984215  0  0  0.081598  0.060347  0  3.94827  0
C  C34  1  0.54215518  0.89137681  0.11244791  1  0  0.073672  0  3.698948  0  0  0.054326  0  3.962714  0  0  0.04411  0  3.984335  0  0  0.08162  0.060361  0  3.948392  0
C  C35  1  0.04215514  0.60861941  0.88754919  1  0  0.073768  0  3.698844  0  0  0.054279  0  3.962602  0  0  0.044067  0  3.984212  0  0  0.081597  0.060314  0  3.948281  0
C  C36  1  0.27302491  0.05292736  0.87953603  1  0  -0.013561  0  3.62757  0  0  -0.060043  0  3.895678  0  0  -0.047423  0  3.906215  0  0  -0.043863  -0.067867  0  3.888576  0
C  C37  1  0.77302569  0.44707367  0.12046554  1  0  -0.013481  0  3.627431  0  0  -0.060016  0  3.895632  0  0  -0.0474  0  3.906176  0  0  -0.043894  -0.067854  0  3.888515  0
C  C38  1  0.72697587  0.94707089  0.12046482  1  0  -0.013405  0  3.627369  0  0  -0.059987  0  3.89552  0  0  -0.047368  0  3.906048  0  0  -0.043838  -0.067827  0  3.888411  0
C  C39  1  0.22697360  0.55292374  0.87953581  1  0  -0.0133  0  3.627432  0  0  -0.059844  0  3.895664  0  0  -0.047215  0  3.906191  0  0  -0.043866  -0.06768  0  3.888545  0
C  C40  1  0.16229406  0.01988596  0.77881464  1  0  -0.17933  0  3.646371  0  0  -0.162466  0  3.893218  0  0  -0.180507  0  3.914421  0  0  -0.015568  -0.151153  0  3.879447  0
C  C41  1  0.66230051  0.48011387  0.22118808  1  0  -0.179399  0  3.646183  0  0  -0.162608  0  3.893175  0  0  -0.180655  0  3.914383  0  0  -0.015581  -0.151298  0  3.879401  0
C  C42  1  0.83771267  0.98011229  0.22118620  1  0  -0.179311  0  3.646286  0  0  -0.162405  0  3.893161  0  0  -0.180429  0  3.914345  0  0  -0.015557  -0.151098  0  3.879393  0
C  C43  1  0.33769283  0.51988173  0.77880944  1  0  -0.179374  0  3.646034  0  0  -0.162601  0  3.893036  0  0  -0.180647  0  3.914247  0  0  -0.01557  -0.151289  0  3.87927  0
C  C44  1  0.97300509  0.95042391  0.77391848  1  0  0.669927  0  3.902109  0  0  0.622552  0  4.19954  0  0  0.65678  0  4.194046  0  0  0.210104  0.599306  0  4.202102  0
C  C45  1  0.47300472  0.54957034  0.22607569  1  0  0.669983  0  3.902359  0  0  0.622635  0  4.19981  0  0  0.656866  0  4.194308  0  0  0.210098  0.599389  0  4.202368  0
C  C46  1  0.02700015  0.04957508  0.22607700  1  0  0.669802  0  3.902243  0  0  0.622415  0  4.199677  0  0  0.656633  0  4.194197  0  0  0.210028  0.59917  0  4.202235  0
C  C47  1  0.52699606  0.45042355  0.77392204  1  0  0.66999  0  3.902303  0  0  0.622645  0  4.199727  0  0  0.65687  0  4.194239  0  0  0.210155  0.599399  0  4.202288  0
N  N48  1  0.57005148  0.14398027  0.99455079  1  0  0.487999  0  3.930696  0  0  0.544184  0  4.180084  0  0  0.56675  0  4.189252  0  0  0.060184  0.529165  0  4.17405  0
N  N49  1  0.07005544  0.35601388  0.00544832  1  0  0.487958  0  3.930666  0  0  0.544217  0  4.179961  0  0  0.566783  0  4.189127  0  0  0.06018  0.529185  0  4.173925  0
N  N50  1  0.42995078  0.85601975  0.00545227  1  0  0.488455  0  3.930135  0  0  0.54422  0  4.18012  0  0  0.566786  0  4.189284  0  0  0.060129  0.529189  0  4.174086  0
N  N51  1  0.92994832  0.64398089  0.99455052  1  0  0.488101  0  3.93051  0  0  0.544285  0  4.1799  0  0  0.56685  0  4.189062  0  0  0.060225  0.529255  0  4.173862  0
N  N52  1  0.48676843  0.15109047  0.61344918  1  0  0.523453  0  3.887568  0  0  0.564209  0  4.157615  0  0  0.589827  0  4.165796  0  0  0.064636  0.546847  0  4.152291  0
N  N53  1  0.98676953  0.34890967  0.38655457  1  0  0.523535  0  3.887301  0  0  0.564051  0  4.157643  0  0  0.589669  0  4.165823  0  0  0.064512  0.546689  0  4.152324  0
N  N54  1  0.51323532  0.84891215  0.38655478  1  0  0.523385  0  3.887527  0  0  0.563891  0  4.157828  0  0  0.589509  0  4.166011  0  0  0.064477  0.54653  0  4.152503  0
N  N55  1  0.01322678  0.65109369  0.61344483  1  0  0.523444  0  3.887397  0  0  0.563745  0  4.158044  0  0  0.589365  0  4.166227  0  0  0.064527  0.546382  0  4.15272  0
O  O56  1  0.13053500  0.02741181  0.59001529  1  0  -0.72087  0  2.140415  0  0  -0.666272  0  2.408358  0  0  -0.698374  0  2.403266  0  0  -0.43931  -0.642905  0  2.410771  0
O  O57  1  0.63054486  0.47259515  0.40999310  1  0  -0.720977  0  2.140551  0  0  -0.666329  0  2.408368  0  0  -0.698431  0  2.403275  0  0  -0.439366  -0.642972  0  2.410783  0
O  O58  1  0.86946577  0.97258906  0.40998727  1  0  -0.720917  0  2.140422  0  0  -0.666296  0  2.408342  0  0  -0.698398  0  2.403255  0  0  -0.439346  -0.642934  0  2.410754  0
O  O59  1  0.36945890  0.52740472  0.59000349  1  0  -0.721056  0  2.140416  0  0  -0.666426  0  2.408297  0  0  -0.698529  0  2.403204  0  0  -0.43944  -0.643061  0  2.410714  0
O  O60  1  0.88820893  0.90071616  0.67322730  1  0  -0.77338  0  2.02243  0  0  -0.710747  0  2.269591  0  0  -0.7421  0  2.258959  0  0  -0.41304  -0.687754  0  2.275737  0
O  O61  1  0.38821847  0.59928212  0.32677626  1  0  -0.773366  0  2.022162  0  0  -0.710762  0  2.269335  0  0  -0.742118  0  2.2587  0  0  -0.413075  -0.687766  0  2.27548  0
O  O62  1  0.11179631  0.09928458  0.32676960  1  0  -0.77335  0  2.022336  0  0  -0.710697  0  2.269483  0  0  -0.742049  0  2.258856  0  0  -0.41296  -0.687701  0  2.275626  0
O  O63  1  0.61178678  0.40071871  0.67322468  1  0  -0.773374  0  2.022241  0  0  -0.710762  0  2.269413  0  0  -0.742116  0  2.258781  0  0  -0.413082  -0.687769  0  2.275557  0
O  O64  1  0.91129898  0.94224861  0.86401009  1  0  -0.553516  0  1.912655  0  0  -0.519216  0  2.138107  0  0  -0.543167  0  2.131891  0  0  -0.304881  -0.501575  0  2.141313  0
O  O65  1  0.41130429  0.55774100  0.13599367  1  0  -0.553493  0  1.913143  0  0  -0.51917  0  2.138514  0  0  -0.543116  0  2.132292  0  0  -0.304841  -0.501538  0  2.14172  0
O  O66  1  0.08869585  0.05774957  0.13598752  1  0  -0.55342  0  1.912842  0  0  -0.519135  0  2.1383  0  0  -0.543082  0  2.13209  0  0  -0.304862  -0.501498  0  2.141504  0
O  O67  1  0.58869649  0.44225294  0.86400568  1  0  -0.553494  0  1.913058  0  0  -0.519179  0  2.138456  0  0  -0.543122  0  2.132237  0  0  -0.304869  -0.501542  0  2.141661  0
O  O68  1  0.73938803  0.18356672  0.99698918  1  0  -0.327158  0  1.799613  0  0  -0.319825  0  1.995794  0  0  -0.33284  0  1.994892  0  0  -0.111369  -0.311261  0  1.996558  0
O  O69  1  0.23938806  0.31642667  0.00300893  1  0  -0.327192  0  1.799685  0  0  -0.319864  0  1.995805  0  0  -0.332882  0  1.994918  0  0  -0.111385  -0.3113  0  1.996573  0
O  O70  1  0.26060530  0.81642990  0.00301511  1  0  -0.327463  0  1.799336  0  0  -0.319964  0  1.995661  0  0  -0.332989  0  1.994774  0  0  -0.111445  -0.311398  0  1.996429  0
O  O71  1  0.76060676  0.68357931  0.99699218  1  0  -0.327358  0  1.799463  0  0  -0.320014  0  1.995606  0  0  -0.33305  0  1.994734  0  0  -0.111514  -0.311446  0  1.996372  0
O  O72  1  0.48640790  0.13219963  0.07912092  1  0  -0.382167  0  1.849337  0  0  -0.367942  0  2.057674  0  0  -0.38369  0  2.053492  0  0  -0.125371  -0.357606  0  2.060803  0
O  O73  1  0.98640668  0.36780047  0.92088121  1  0  -0.382164  0  1.849304  0  0  -0.36796  0  2.057622  0  0  -0.383709  0  2.053435  0  0  -0.125363  -0.357621  0  2.060755  0
O  O74  1  0.51358544  0.86779960  0.92088507  1  0  -0.382226  0  1.849289  0  0  -0.367867  0  2.057814  0  0  -0.38361  0  2.053627  0  0  -0.125297  -0.357536  0  2.060953  0
O  O75  1  0.01358665  0.63219153  0.07910864  1  0  -0.382065  0  1.849525  0  0  -0.36782  0  2.057846  0  0  -0.383559  0  2.053656  0  0  -0.125245  -0.35749  0  2.060979  0
O  O76  1  0.66939701  0.15068775  0.59591161  1  0  -0.404743  0  1.854845  0  0  -0.379344  0  2.084432  0  0  -0.390704  0  2.076759  0  0  -0.117823  -0.371778  0  2.089933  0
O  O77  1  0.16939728  0.34931030  0.40408969  1  0  -0.404761  0  1.854746  0  0  -0.379291  0  2.084456  0  0  -0.390654  0  2.076788  0  0  -0.117815  -0.371731  0  2.089955  0
O  O78  1  0.33060377  0.84931394  0.40408962  1  0  -0.404787  0  1.854836  0  0  -0.379277  0  2.084479  0  0  -0.390636  0  2.076807  0  0  -0.117805  -0.371714  0  2.089979  0
O  O79  1  0.83059755  0.65069919  0.59591504  1  0  -0.404781  0  1.854805  0  0  -0.379229  0  2.084582  0  0  -0.390589  0  2.076907  0  0  -0.117817  -0.371663  0  2.090084  0
O  O80  1  0.36667783  0.18674203  0.55481486  1  0  -0.497875  0  1.842758  0  0  -0.459511  0  2.073498  0  0  -0.47715  0  2.066033  0  0  -0.183029  -0.447553  0  2.078818  0
O  O81  1  0.86667655  0.31325855  0.44518499  1  0  -0.497878  0  1.842795  0  0  -0.459421  0  2.073586  0  0  -0.477061  0  2.066121  0  0  -0.182939  -0.447466  0  2.078908  0
O  O82  1  0.63332592  0.81326059  0.44518910  1  0  -0.497752  0  1.842897  0  0  -0.459356  0  2.073773  0  0  -0.476997  0  2.06631  0  0  -0.18293  -0.447398  0  2.079093  0
O  O83  1  0.13332125  0.68674389  0.55481169  1  0  -0.497807  0  1.842912  0  0  -0.459286  0  2.07381  0  0  -0.476929  0  2.066348  0  0  -0.182964  -0.447324  0  2.079129  0
O  O84  1  0.02291159  0.68235617  0.31604269  1  0  -0.920853  0  1.804941  0  0  -0.874389  0  1.994651  0  0  -0.897463  0  1.96209  0  0  -0.639768  -0.857134  0  2.017358  0
O  O85  1  0.52290768  0.81764631  0.68396137  1  0  -0.920771  0  1.805005  0  0  -0.874299  0  1.994702  0  0  -0.897373  0  1.962143  0  0  -0.639751  -0.857021  0  2.017369  0
O  O86  1  0.97708919  0.31764464  0.68395743  1  0  -0.920885  0  1.804928  0  0  -0.874414  0  1.994634  0  0  -0.897489  0  1.962072  0  0  -0.639769  -0.857153  0  2.017344  0
O  O87  1  0.47709310  0.18235368  0.31604007  1  0  -0.920796  0  1.804976  0  0  -0.87433  0  1.994688  0  0  -0.897404  0  1.962129  0  0  -0.639742  -0.857056  0  2.017349  0
