# generated using pymatgen
data_ZnH5C5S2NO4
_symmetry_space_group_name_H-M   'P 1'
_cell_length_a   8.42706882
_cell_length_b   9.04530403
_cell_length_c   11.05686649
_cell_angle_alpha   89.99986114
_cell_angle_beta   89.99982692
_cell_angle_gamma   89.99998562
_symmetry_Int_Tables_number   1
_chemical_formula_structural   ZnH5C5S2NO4
_chemical_formula_sum   'Zn4 H20 C20 S8 N4 O16'
_cell_volume   842.81406640
_cell_formula_units_Z   4
loop_
 _symmetry_equiv_pos_site_id
 _symmetry_equiv_pos_as_xyz
  1  'x, y, z'
loop_
 _atom_site_type_symbol
 _atom_site_label
 _atom_site_symmetry_multiplicity
 _atom_site_fract_x
 _atom_site_fract_y
 _atom_site_fract_z
 _atom_site_occupancy
 _atom_site_pbe_bader_spin_density
 _atom_site_pbe_cm5_charge
 _atom_site_pbe_ddec_charge
 _atom_site_pbe_ddec_spin_density
 _atom_site_pbe_ddec_sum_bond_order
 _atom_site_pbe_magmom
Zn  Zn0  1  0.33271315  0.68038174  0.75000076  1  0  0.671178  0.860464  0  2.359099  0
Zn  Zn1  1  0.16729133  0.18037608  0.24999632  1  0  0.671149  0.860496  0  2.359006  0
Zn  Zn2  1  0.83271022  0.81962411  0.74999914  1  0  0.671166  0.860455  0  2.359062  0
Zn  Zn3  1  0.66728960  0.31962178  0.25000012  1  0  0.67116  0.860423  0  2.35913  0
H  H4  1  0.15902015  0.50780242  0.93746293  1  0  0.11276  0.082594  0  1.031958  0
H  H5  1  0.34098083  0.00780061  0.06253992  1  0  0.112758  0.082584  0  1.031977  0
H  H6  1  0.65901672  0.99219572  0.56253829  1  0  0.112768  0.082641  0  1.031941  0
H  H7  1  0.84098424  0.49219832  0.43746244  1  0  0.112771  0.08263  0  1.031949  0
H  H8  1  0.84098260  0.49220109  0.06254067  1  0  0.112748  0.082596  0  1.032055  0
H  H9  1  0.65901598  0.99219848  0.93746006  1  0  0.112776  0.082606  0  1.031993  0
H  H10  1  0.34098128  0.00779784  0.43745988  1  0  0.112766  0.082632  0  1.031993  0
H  H11  1  0.15902088  0.50780187  0.56254115  1  0  0.112774  0.082613  0  1.031987  0
H  H12  1  0.98382891  0.28468214  0.94607313  1  0  0.10921  0.129669  0  1.005728  0
H  H13  1  0.51616974  0.78467997  0.05392982  1  0  0.109203  0.12969  0  1.005683  0
H  H14  1  0.48383259  0.21531970  0.55392832  1  0  0.109202  0.129711  0  1.005667  0
H  H15  1  0.01617188  0.71531968  0.44606779  1  0  0.109269  0.129818  0  1.005654  0
H  H16  1  0.01617028  0.71532137  0.05393137  1  0  0.109199  0.129715  0  1.005613  0
H  H17  1  0.48383063  0.21532133  0.94606835  1  0  0.109219  0.1297  0  1.005674  0
H  H18  1  0.51617135  0.78467717  0.44606895  1  0  0.109203  0.129695  0  1.005676  0
H  H19  1  0.98382968  0.28468273  0.55393310  1  0  0.109236  0.129746  0  1.005628  0
H  H20  1  0.89080290  0.17267183  0.75000333  1  0  0.103511  0.10203  0  1.031427  0
H  H21  1  0.60919105  0.67266575  0.24999803  1  0  0.103503  0.102055  0  1.031403  0
H  H22  1  0.39081407  0.32733555  0.74999743  1  0  0.103517  0.102089  0  1.03138  0
H  H23  1  0.10919510  0.82733389  0.25000027  1  0  0.103538  0.102064  0  1.031345  0
C  C24  1  0.11443423  0.45618128  0.85520193  1  0  0.04853  0.105204  0  3.910756  0
C  C25  1  0.38556185  0.95618099  0.14480184  1  0  0.04859  0.105365  0  3.910658  0
C  C26  1  0.61443657  0.04380957  0.64480218  1  0  0.048618  0.105284  0  3.910661  0
C  C27  1  0.88556454  0.54381749  0.35519853  1  0  0.048505  0.105138  0  3.910608  0
C  C28  1  0.88556258  0.54382002  0.14479895  1  0  0.048568  0.105276  0  3.910698  0
C  C29  1  0.61443378  0.04381147  0.85519995  1  0  0.048559  0.105299  0  3.910587  0
C  C30  1  0.38556262  0.95617847  0.35519870  1  0  0.04849  0.105193  0  3.910596  0
C  C31  1  0.11443583  0.45618270  0.64480326  1  0  0.048536  0.105285  0  3.910701  0
C  C32  1  0.01651408  0.33254033  0.85909567  1  0  -0.083634  -0.129087  0  3.956189  0
C  C33  1  0.48348086  0.83253561  0.14090563  1  0  -0.083696  -0.129329  0  3.956265  0
C  C34  1  0.51651520  0.16746159  0.64090686  1  0  -0.083703  -0.129271  0  3.956252  0
C  C35  1  0.98348824  0.66746506  0.35909271  1  0  -0.083707  -0.129263  0  3.956043  0
C  C36  1  0.98348392  0.66746428  0.14090973  1  0  -0.083668  -0.129265  0  3.956205  0
C  C37  1  0.51651358  0.16746237  0.85909164  1  0  -0.083688  -0.129217  0  3.956285  0
C  C38  1  0.48348280  0.83253418  0.35909131  1  0  -0.083666  -0.129225  0  3.95607  0
C  C39  1  0.01651925  0.33254066  0.64090999  1  0  -0.08371  -0.129343  0  3.956236  0
C  C40  1  0.96627752  0.27032581  0.75000405  1  0  -0.070818  -0.037385  0  3.964154  0
C  C41  1  0.53371876  0.77032084  0.24999802  1  0  -0.070735  -0.0373  0  3.96414  0
C  C42  1  0.46627924  0.22967161  0.75000105  1  0  -0.070835  -0.037485  0  3.964504  0
C  C43  1  0.03372166  0.72968101  0.24999955  1  0  -0.070819  -0.037367  0  3.964231  0
S  S44  1  0.65484868  0.53752399  0.86155112  1  0  0.311296  0.525747  0  4.227289  0
S  S45  1  0.84514768  0.03752085  0.13844598  1  0  0.311263  0.525846  0  4.226993  0
S  S46  1  0.15484720  0.96248410  0.63844919  1  0  0.311228  0.525719  0  4.2271  0
S  S47  1  0.34515006  0.46247477  0.36155185  1  0  0.311322  0.525838  0  4.227102  0
S  S48  1  0.34515050  0.46247510  0.13845067  1  0  0.311182  0.525612  0  4.227327  0
S  S49  1  0.15484676  0.96248266  0.86155038  1  0  0.311271  0.5258  0  4.227197  0
S  S50  1  0.84515317  0.03751720  0.36154717  1  0  0.311211  0.525676  0  4.227392  0
S  S51  1  0.65485031  0.53752211  0.63844903  1  0  0.311281  0.525754  0  4.227136  0
N  N52  1  0.16246893  0.51693893  0.75000293  1  0  -0.33489  -0.256902  0  3.576621  0
N  N53  1  0.33753087  0.01693546  0.24999990  1  0  -0.334904  -0.256957  0  3.576786  0
N  N54  1  0.66246357  0.98306031  0.75000099  1  0  -0.334919  -0.256931  0  3.576822  0
N  N55  1  0.83753382  0.48306569  0.25000157  1  0  -0.334893  -0.256918  0  3.576935  0
O  O56  1  0.48478595  0.59145805  0.87656004  1  0  -0.339738  -0.523009  0  2.441282  0
O  O57  1  0.01521618  0.09145501  0.12343450  1  0  -0.339722  -0.523093  0  2.441062  0
O  O58  1  0.98478113  0.90854557  0.62343770  1  0  -0.33966  -0.522953  0  2.44099  0
O  O59  1  0.51521392  0.40854067  0.37656229  1  0  -0.339738  -0.523021  0  2.44112  0
O  O60  1  0.51521560  0.40854215  0.12343994  1  0  -0.339638  -0.52286  0  2.441195  0
O  O61  1  0.98478182  0.90854629  0.87656186  1  0  -0.339698  -0.522997  0  2.440996  0
O  O62  1  0.01521687  0.09145021  0.37655594  1  0  -0.339614  -0.52291  0  2.441211  0
O  O63  1  0.48478527  0.59145842  0.62343950  1  0  -0.339716  -0.523003  0  2.441182  0
O  O64  1  0.77142179  0.66558378  0.87709957  1  0  -0.342902  -0.525179  0  2.414607  0
O  O65  1  0.72858047  0.16558512  0.12290000  1  0  -0.342888  -0.525221  0  2.414597  0
O  O66  1  0.27142041  0.83441987  0.62290138  1  0  -0.342904  -0.525206  0  2.414658  0
O  O67  1  0.22857809  0.33441383  0.37710082  1  0  -0.342927  -0.525261  0  2.414568  0
O  O68  1  0.22858096  0.33441531  0.12290041  1  0  -0.34288  -0.525188  0  2.414663  0
O  O69  1  0.27141991  0.83442060  0.87709817  1  0  -0.342906  -0.525228  0  2.414747  0
O  O70  1  0.72858471  0.16558143  0.37709769  1  0  -0.34291  -0.525183  0  2.414671  0
O  O71  1  0.77142229  0.66558526  0.62290006  1  0  -0.342913  -0.525198  0  2.414564  0
