# generated using pymatgen
data_ZnH9C8(NO2)2
_symmetry_space_group_name_H-M   'P 1'
_cell_length_a   9.72538480
_cell_length_b   15.72812423
_cell_length_c   15.87173059
_cell_angle_alpha   89.92479688
_cell_angle_beta   88.24495826
_cell_angle_gamma   87.36720640
_symmetry_Int_Tables_number   1
_chemical_formula_structural   ZnH9C8(NO2)2
_chemical_formula_sum   'Zn4 H36 C32 N8 O16'
_cell_volume   2424.07228044
_cell_formula_units_Z   4
loop_
 _symmetry_equiv_pos_site_id
 _symmetry_equiv_pos_as_xyz
  1  'x, y, z'
loop_
 _atom_site_type_symbol
 _atom_site_label
 _atom_site_symmetry_multiplicity
 _atom_site_fract_x
 _atom_site_fract_y
 _atom_site_fract_z
 _atom_site_occupancy
 _atom_site_pbe_bader_charge
 _atom_site_pbe_bader_spin_density
 _atom_site_pbe_cm5_charge
 _atom_site_pbe_ddec_charge
 _atom_site_pbe_ddec_spin_density
 _atom_site_pbe_ddec_sum_bond_order
 _atom_site_pbe_magmom
Zn  Zn0  1  0.64437086  0.50268878  0.99795874  1  1.262452  0  0.650524  0.837276  0  2.459533  0
Zn  Zn1  1  0.63726761  0.00057913  0.50067189  1  1.257507  0  0.651641  0.836768  0  2.446484  0
Zn  Zn2  1  0.36711400  0.50804358  0.00042975  1  1.288947  0  0.654063  0.834768  0  2.476556  0
Zn  Zn3  1  0.36047141  0.01088321  0.50160586  1  1.293727  0  0.656038  0.836347  0  2.46877  0
H  H4  1  0.31534094  0.35133470  0.22505838  1  0.095712  0  0.106279  0.109817  0  1.004296  0
H  H5  1  0.59753561  0.71365685  0.19412872  1  0.047034  0  0.094265  0.130274  0  1.035776  0
H  H6  1  0.60806476  0.22582894  0.31673331  1  0.068246  0  0.093338  0.12906  0  1.034976  0
H  H7  1  0.57196140  0.18169925  0.73081549  1  0.064278  0  0.096941  0.135182  0  1.024727  0
H  H8  1  0.89030955  0.37489204  0.02897788  1  0.173216  0  0.145313  0.118388  0  0.939306  0
H  H9  1  0.88814612  0.87339325  0.52036733  1  0.154008  0  0.146748  0.118627  0  0.934988  0
H  H10  1  0.09433986  0.55758032  0.02122988  1  0.42204  0  0.312959  0.27269  0  0.926335  0
H  H11  1  0.08803986  0.05664235  0.53418009  1  0.423385  0  0.316151  0.279643  0  0.917683  0
H  H12  1  0.26848343  0.67661311  0.87434002  1  0.506994  0  0.296982  0.258575  0  1.013398  0
H  H13  1  0.05229022  0.73376269  0.84019156  1  0.058117  0  0.107503  0.112294  0  0.979945  0
H  H14  1  0.12213577  0.75342866  0.73749505  1  0.053611  0  0.096725  0.096727  0  0.989465  0
H  H15  1  0.29954971  0.34566514  0.77904713  1  0.103729  0  0.106588  0.108644  0  0.995959  0
H  H16  1  0.12419533  0.83295088  0.81750918  1  0.065825  0  0.100668  0.10219  0  0.984979  0
H  H17  1  0.25765252  0.67833173  0.13157619  1  0.505889  0  0.295301  0.256061  0  1.022709  0
H  H18  1  0.04128523  0.73561716  0.17110719  1  0.0343  0  0.10835  0.113893  0  0.977268  0
H  H19  1  0.11266539  0.83390497  0.19532551  1  0.059037  0  0.099338  0.100852  0  0.986353  0
H  H20  1  0.10634342  0.75171772  0.27298072  1  0.028775  0  0.095579  0.094898  0  0.991383  0
H  H21  1  0.26380296  0.16547868  0.35825298  1  0.511709  0  0.29629  0.258896  0  1.014952  0
H  H22  1  0.05065647  0.21624458  0.31225216  1  0.052636  0  0.107552  0.113384  0  0.979196  0
H  H23  1  0.13610887  0.23447267  0.21353354  1  0.015878  0  0.096815  0.097824  0  0.988044  0
H  H24  1  0.11612069  0.31732465  0.29028129  1  0.054666  0  0.09914  0.099575  0  0.990137  0
H  H25  1  0.29446823  0.21735355  0.58957933  1  0.508705  0  0.297506  0.259045  0  1.007517  0
H  H26  1  0.31618012  0.86021083  0.73619461  1  0.084225  0  0.107806  0.110396  0  1.001588  0
H  H27  1  0.17926067  0.34276834  0.55285079  1  0.032993  0  0.106954  0.112006  0  0.97839  0
H  H28  1  0.28936377  0.39930225  0.61767330  1  0.057362  0  0.101798  0.106117  0  0.985139  0
H  H29  1  0.13337420  0.35945326  0.66096567  1  0.028868  0  0.094364  0.093423  0  0.991479  0
H  H30  1  0.90158508  0.55059562  0.96859496  1  0.436242  0  0.315057  0.275921  0  0.922425  0
H  H31  1  0.89223071  0.05394811  0.47535535  1  0.423993  0  0.316314  0.279661  0  0.917098  0
H  H32  1  0.14915341  0.37612357  0.98921894  1  0.154805  0  0.146369  0.11824  0  0.936281  0
H  H33  1  0.14493599  0.88228704  0.47492914  1  0.194211  0  0.143846  0.118015  0  0.950151  0
H  H34  1  0.29807239  0.85193378  0.27726026  1  0.084755  0  0.105282  0.104263  0  1.011911  0
H  H35  1  0.60415133  0.27302284  0.18259571  1  0.087565  0  0.106707  0.123562  0  0.994283  0
H  H36  1  0.61369176  0.31371895  0.78073556  1  0.054352  0  0.106323  0.124406  0  0.991974  0
H  H37  1  0.58965099  0.77009628  0.67814791  1  0.074455  0  0.106776  0.123243  0  0.994538  0
H  H38  1  0.58868680  0.77887206  0.31318218  1  0.07119  0  0.108513  0.125853  0  0.990078  0
H  H39  1  0.61068951  0.72452112  0.80936907  1  0.045797  0  0.09374  0.12938  0  1.036053  0
C  C40  1  0.49592229  0.62513137  0.11600671  1  1.42637  0  0.188289  0.643673  0  4.187574  0
C  C41  1  0.39873999  0.31600614  0.75830346  1  -0.160592  0  -0.073057  -0.09906  0  3.954672  0
C  C42  1  0.40092386  0.81231855  0.73882569  1  -0.05631  0  -0.073988  -0.102461  0  3.939365  0
C  C43  1  0.38821720  0.80866841  0.26761540  1  -0.069302  0  -0.078219  -0.11149  0  3.952011  0
C  C44  1  0.51252125  0.31547598  0.17960005  1  -0.040837  0  -0.08744  -0.203363  0  3.886082  0
C  C45  1  0.51029386  0.33705134  0.80027738  1  0.081355  0  -0.092389  -0.21386  0  3.898811  0
C  C46  1  0.50297927  0.81666366  0.68014319  1  0.003655  0  -0.088822  -0.204482  0  3.891282  0
C  C47  1  0.49421109  0.81891264  0.31850438  1  0.013345  0  -0.086041  -0.197097  0  3.883406  0
C  C48  1  0.39309257  0.74553812  0.80309507  1  0.391121  0  0.109767  0.275098  0  4.080497  0
C  C49  1  0.38086572  0.74289416  0.20276338  1  0.455745  0  0.108491  0.275002  0  4.079929  0
C  C50  1  0.39235059  0.24029188  0.29693831  1  0.417649  0  0.108438  0.2734  0  4.080336  0
C  C51  1  0.51281998  0.63110917  0.88793002  1  1.448713  0  0.186333  0.641592  0  4.191107  0
C  C52  1  0.39692809  0.25466975  0.68889715  1  0.419938  0  0.10523  0.266997  0  4.088168  0
C  C53  1  0.51115509  0.70256875  0.83049660  1  0.041274  0  -0.151966  -0.441696  0  3.930727  0
C  C54  1  0.49713560  0.69629068  0.17351309  1  0.001507  0  -0.152048  -0.440842  0  3.925374  0
C  C55  1  0.50791869  0.20074958  0.33144097  1  -0.032529  0  -0.153107  -0.442572  0  3.929415  0
C  C56  1  0.49276245  0.18689134  0.68401416  1  0.031558  0  -0.146189  -0.430021  0  3.912623  0
C  C57  1  0.93686076  0.43382608  0.00806316  1  0.693094  0  0.122696  0.163543  0  3.852364  0
C  C58  1  0.93201219  0.93461230  0.50445928  1  0.674245  0  0.122768  0.164644  0  3.851674  0
C  C59  1  0.08898542  0.43585566  0.00068089  1  0.660816  0  0.123457  0.172243  0  3.84941  0
C  C60  1  0.08363561  0.93906552  0.49590811  1  0.661065  0  0.122677  0.170757  0  3.844151  0
C  C61  1  0.13603607  0.76399035  0.80531388  1  0.257248  0  -0.130665  -0.211219  0  4.016076  0
C  C62  1  0.49574512  0.12158473  0.61950452  1  1.449877  0  0.189867  0.644924  0  4.188748  0
C  C63  1  0.12362962  0.76459420  0.20524412  1  0.316374  0  -0.130525  -0.21174  0  4.019032  0
C  C64  1  0.13659991  0.24836109  0.28162404  1  0.307718  0  -0.13212  -0.213638  0  4.017907  0
C  C65  1  0.22063401  0.34566394  0.61632054  1  0.311256  0  -0.132368  -0.210485  0  4.004304  0
C  C66  1  0.50518939  0.12875314  0.38822576  1  1.471272  0  0.187025  0.643143  0  4.185463  0
C  C67  1  0.50179959  0.39396729  0.87503236  1  1.551663  0  0.203835  0.632518  0  4.179805  0
C  C68  1  0.51510618  0.38248715  0.11338046  1  1.567729  0  0.205679  0.634238  0  4.180022  0
C  C69  1  0.49178577  0.88650689  0.38400063  1  1.552365  0  0.205828  0.633977  0  4.184227  0
C  C70  1  0.50634075  0.88435152  0.61496812  1  1.558126  0  0.204684  0.633341  0  4.18294  0
C  C71  1  0.40395015  0.30713770  0.23299791  1  -0.057376  0  -0.075746  -0.105088  0  3.943914  0
N  N72  1  0.85545648  0.49715748  0.99092125  1  -1.166447  0  -0.42787  -0.359034  0  3.267165  0
N  N73  1  0.84812982  0.99822863  0.49303804  1  -1.159013  0  -0.42704  -0.362286  0  3.266325  0
N  N74  1  0.15515666  0.50384687  0.00769299  1  -1.175031  0  -0.434186  -0.375439  0  3.258633  0
N  N75  1  0.14866637  0.00594623  0.51152282  1  -1.163963  0  -0.432416  -0.377376  0  3.245878  0
N  N76  1  0.26563289  0.72773962  0.83400512  1  -1.249184  0  -0.433142  -0.265579  0  3.583417  0
N  N77  1  0.25416840  0.72874741  0.17293263  1  -1.248869  0  -0.435167  -0.266988  0  3.581493  0
N  N78  1  0.26260674  0.21854650  0.32034973  1  -1.232482  0  -0.43552  -0.271054  0  3.576389  0
N  N79  1  0.29317144  0.26518583  0.63338164  1  -1.239736  0  -0.440345  -0.28013  0  3.575321  0
O  O80  1  0.61143664  0.58718587  0.09443247  1  -1.162711  0  -0.345939  -0.575631  0  2.270464  0
O  O81  1  0.63329263  0.40050746  0.08310775  1  -1.158046  0  -0.326437  -0.561771  0  2.25071  0
O  O82  1  0.60782241  0.91473443  0.40224348  1  -1.152088  0  -0.32505  -0.556109  0  2.255927  0
O  O83  1  0.62294463  0.89426842  0.57790368  1  -1.154386  0  -0.327346  -0.55789  0  2.256849  0
O  O84  1  0.38305539  0.41665736  0.90632718  1  -1.168368  0  -0.331308  -0.573074  0  2.29042  0
O  O85  1  0.39968579  0.41615617  0.09143548  1  -1.173401  0  -0.326822  -0.569322  0  2.309651  0
O  O86  1  0.37496234  0.91046255  0.41732626  1  -1.175829  0  -0.327995  -0.573406  0  2.305099  0
O  O87  1  0.39442169  0.92657950  0.60015707  1  -1.16785  0  -0.327393  -0.569401  0  2.297172  0
O  O88  1  0.62963541  0.59996094  0.91173811  1  -1.167011  0  -0.345846  -0.573955  0  2.253713  0
O  O89  1  0.60586363  0.07474748  0.60724920  1  -1.165367  0  -0.340619  -0.568038  0  2.250261  0
O  O90  1  0.61851047  0.10223963  0.42118193  1  -1.166484  0  -0.345625  -0.576845  0  2.261905  0
O  O91  1  0.37828562  0.60186380  0.08898623  1  -1.16538  0  -0.335487  -0.578809  0  2.328554  0
O  O92  1  0.39568127  0.60102091  0.91254759  1  -1.166825  0  -0.333138  -0.579322  0  2.334015  0
O  O93  1  0.38523524  0.11339484  0.57668993  1  -1.180544  0  -0.333611  -0.578783  0  2.328287  0
O  O94  1  0.38860230  0.09331827  0.40302182  1  -1.176465  0  -0.33439  -0.578339  0  2.319925  0
O  O95  1  0.61694735  0.41574457  0.90265989  1  -1.15389  0  -0.326126  -0.557576  0  2.274393  0
