# generated using pymatgen
data_NiH50C28(NO)4
_symmetry_space_group_name_H-M   'P 1'
_cell_length_a   8.80628201
_cell_length_b   10.05629722
_cell_length_c   10.28061371
_cell_angle_alpha   63.43826387
_cell_angle_beta   88.14421481
_cell_angle_gamma   66.32501905
_symmetry_Int_Tables_number   1
_chemical_formula_structural   NiH50C28(NO)4
_chemical_formula_sum   'Ni1 H50 C28 N4 O4'
_cell_volume   733.67092941
_cell_formula_units_Z   1
loop_
 _symmetry_equiv_pos_site_id
 _symmetry_equiv_pos_as_xyz
  1  'x, y, z'
loop_
 _atom_site_type_symbol
 _atom_site_label
 _atom_site_symmetry_multiplicity
 _atom_site_fract_x
 _atom_site_fract_y
 _atom_site_fract_z
 _atom_site_occupancy
 _atom_site_hle17_ddec_charge
 _atom_site_hle17_ddec_spin_density
 _atom_site_hle17_ddec_sum_bond_order
 _atom_site_hle17_magmom
 _atom_site_hse06_10hf_ddec_charge
 _atom_site_hse06_10hf_ddec_spin_density
 _atom_site_hse06_10hf_ddec_sum_bond_order
 _atom_site_hse06_10hf_magmom
 _atom_site_hse06_ddec_charge
 _atom_site_hse06_ddec_spin_density
 _atom_site_hse06_ddec_sum_bond_order
 _atom_site_hse06_magmom
 _atom_site_pbe_cm5_charge
 _atom_site_pbe_ddec_charge
 _atom_site_pbe_ddec_spin_density
 _atom_site_pbe_ddec_sum_bond_order
 _atom_site_pbe_magmom
Ni  Ni0  1  0.50000323  0.99999966  0.49999939  1  0.687149  1.704383  2.095238  1.431  0.673362  1.773354  2.480595  1.554  0.762805  1.835163  2.420094  1.649  0.634278  0.609195  1.721018  2.525078  1.477
H  H1  1  0.47462616  0.09002702  0.69235064  1  0.261995  -0.001466  0.954019  -0.002  0.251989  -0.000416  1.012992  -0.001  0.259998  -0.000617  1.007677  -0.001  0.2828  0.246324  -0.00027  1.016908  -0.001
H  H2  1  0.52537838  0.90997130  0.30763734  1  0.261994  -0.001468  0.953961  -0.002  0.251998  -0.000416  1.012904  -0.001  0.26  -0.000617  1.007602  -0.001  0.282819  0.246335  -0.000269  1.016816  -0.001
H  H3  1  0.23464827  0.98964446  0.48047524  1  0.24837  -0.002997  0.913867  -0.002  0.241739  -0.001406  0.972489  -0.001  0.247107  -0.00145  0.969993  -0.001  0.295361  0.237827  -0.001378  0.974546  -0.001
H  H4  1  0.76535927  0.01035768  0.51952651  1  0.248457  -0.002995  0.913772  -0.002  0.241794  -0.001404  0.972448  -0.001  0.247157  -0.001448  0.969956  -0.001  0.295372  0.237884  -0.001378  0.974502  -0.001
H  H5  1  0.33867769  0.39467495  0.56278119  1  0.033597  0.003393  0.943159  0.005  0.050803  0.002598  1.008163  0.003  0.05117  0.001904  1.007246  0.002  0.089251  0.049594  0.003212  1.010452  0.004
H  H6  1  0.66132296  0.60532472  0.43721994  1  0.033659  0.003392  0.943186  0.005  0.05087  0.002598  1.008176  0.003  0.05124  0.001904  1.007255  0.002  0.089259  0.049657  0.003212  1.010462  0.004
H  H7  1  0.30957700  0.38298849  0.39901470  1  0.06237  0.000288  0.936822  0.001  0.079485  0.000243  1.002921  0.001  0.079844  0.00016  1.003028  0.0  0.103662  0.079207  0.000309  1.002743  0.001
H  H8  1  0.69042601  0.61701608  0.60098125  1  0.062454  0.00029  0.936775  0.001  0.079542  0.000242  1.002905  0.001  0.079894  0.00016  1.003019  0.0  0.103671  0.07926  0.000309  1.002732  0.001
H  H9  1  0.14179548  0.23699883  0.50608741  1  0.046868  3.6e-05  0.913455  0.0  0.05987  1e-05  0.976906  0.0  0.060546  -5e-06  0.976554  0.0  0.106845  0.059928  1.5e-05  0.976285  0.0
H  H10  1  0.85819900  0.76300458  0.49391519  1  0.046879  4.4e-05  0.913474  0.0  0.059921  1e-05  0.976897  0.0  0.060597  -5e-06  0.976546  0.0  0.10687  0.059985  1.5e-05  0.976281  0.0
H  H11  1  0.23198460  0.16638983  0.82394564  1  0.087053  -0.000195  0.919047  0.0  0.105552  -2.3e-05  0.977528  0.0  0.107154  -2e-05  0.976756  0.0  0.097725  0.104671  -2.2e-05  0.977592  0.0
H  H12  1  0.76801931  0.83360244  0.17605868  1  0.08702  -0.000183  0.919015  0.0  0.105494  -2.3e-05  0.977527  0.0  0.107097  -2e-05  0.97675  0.0  0.097704  0.104616  -2.2e-05  0.97759  0.0
H  H13  1  0.13093278  0.36443998  0.66808068  1  0.067756  -0.000207  0.943485  0.0  0.0878  -1.8e-05  1.001611  0.0  0.088397  -2.4e-05  1.002288  0.0  0.088802  0.087172  6.7e-05  1.001734  0.0
H  H14  1  0.86907630  0.63555357  0.33192970  1  0.067773  -0.000194  0.943445  0.0  0.087791  -1.8e-05  1.00159  0.0  0.088387  -2.4e-05  1.00227  0.0  0.088802  0.087186  6.7e-05  1.001685  0.0
H  H15  1  0.92224112  0.28604155  0.81729828  1  0.060359  0.00025  0.940215  0.0  0.079654  0.000194  1.000677  0.0  0.080496  0.000126  1.000754  0.0  0.087381  0.078747  0.000245  1.001222  0.0
H  H16  1  0.07776291  0.71395568  0.18270771  1  0.060364  0.000252  0.940203  0.0  0.079672  0.000195  1.00064  0.0  0.080511  0.000126  1.000716  0.0  0.087401  0.078766  0.000245  1.001182  0.0
H  H17  1  0.88367489  0.31396911  0.63745401  1  0.050638  2.1e-05  0.944997  0.0  0.070672  7.3e-05  1.008334  0.0  0.070924  5.2e-05  1.009448  0.0  0.083598  0.070321  0.000147  1.007997  0.0
H  H18  1  0.11632701  0.68603550  0.36254683  1  0.050641  3.1e-05  0.944982  0.0  0.070646  7.3e-05  1.008348  0.0  0.070896  5.1e-05  1.009462  0.0  0.083588  0.070298  0.000147  1.008008  0.0
H  H19  1  0.86707973  0.05500339  0.82375503  1  0.076792  0.000174  0.955201  0.0  0.091402  0.000127  1.020797  0.0  0.093069  8.6e-05  1.020016  0.0  0.088388  0.090215  0.000159  1.021411  0.0
H  H20  1  0.13292432  0.94499626  0.17624405  1  0.076821  0.000181  0.955209  0.0  0.091425  0.000127  1.020816  0.0  0.09309  8.5e-05  1.020033  0.0  0.088406  0.09024  0.000159  1.021428  0.0
H  H21  1  0.07229162  0.98178242  0.91528165  1  0.064338  -3.7e-05  0.94159  0.0  0.086101  -8e-06  0.998845  0.0  0.086394  -6e-06  0.999873  0.0  0.091043  0.085818  1e-06  0.998539  0.0
H  H22  1  0.92771012  0.01821478  0.08471958  1  0.064355  -4.2e-05  0.941552  0.0  0.086136  -8e-06  0.998799  0.0  0.086425  -6e-06  0.999829  0.0  0.091067  0.085853  1e-06  0.998492  0.0
H  H23  1  0.98210222  0.05598911  0.59698438  1  0.05837  -0.0001  0.944331  0.0  0.077478  5.1e-05  1.011727  0.0  0.078214  3.6e-05  1.011708  0.0  0.086187  0.076455  -8e-06  1.012755  0.0
H  H24  1  0.01790134  0.94401424  0.40301405  1  0.058406  -9.8e-05  0.944348  0.0  0.077469  5.1e-05  1.011755  0.0  0.078201  3.6e-05  1.011744  0.0  0.086176  0.076447  -8e-06  1.012783  0.0
H  H25  1  0.07899101  0.85783189  0.75277610  1  0.06952  -0.000152  0.964842  0.0  0.087333  2.1e-05  1.029686  0.0  0.087617  4e-06  1.030663  0.0  0.091099  0.087022  1.7e-05  1.029172  0.0
H  H26  1  0.92100967  0.14217021  0.24722005  1  0.069525  -0.000141  0.964835  0.0  0.087302  2.1e-05  1.029686  0.0  0.087587  5e-06  1.030661  0.0  0.091074  0.086993  1.7e-05  1.029165  0.0
H  H27  1  0.32617385  0.91030019  0.78639548  1  0.058259  -4.5e-05  0.901643  0.0  0.076501  -6.1e-05  0.952902  0.0  0.076581  -5.6e-05  0.953581  0.0  0.116156  0.076634  -2.3e-05  0.952352  0.0
H  H28  1  0.67382683  0.08970192  0.21360165  1  0.058293  -5.6e-05  0.90164  0.0  0.076534  -6.1e-05  0.952895  0.0  0.076606  -5.5e-05  0.953584  0.0  0.116176  0.076671  -2.3e-05  0.952343  0.0
H  H29  1  0.23044777  0.73319799  0.63252432  1  0.007371  0.003085  0.939215  0.004  0.021914  0.00246  1.004103  0.003  0.021604  0.001825  1.00374  0.002  0.090155  0.021471  0.0031  1.005625  0.003
H  H30  1  0.76955014  0.26680781  0.36747029  1  0.007401  0.003074  0.939203  0.004  0.021932  0.00246  1.004095  0.003  0.021622  0.001825  1.003731  0.002  0.090145  0.021488  0.0031  1.005612  0.003
H  H31  1  0.43144824  0.57526695  0.54231690  1  0.069994  -0.000169  0.968721  0.0  0.089223  3.2e-05  1.029872  0.0  0.089912  -4e-06  1.030333  0.0  0.092413  0.088455  0.000168  1.030235  0.0
H  H32  1  0.56854968  0.42473887  0.45767964  1  0.070002  -0.000161  0.968666  0.0  0.089251  3.2e-05  1.02981  0.0  0.089939  -5e-06  1.030271  0.0  0.092417  0.088479  0.000168  1.030173  0.0
H  H33  1  0.34534325  0.78264313  0.40339134  1  0.088005  -0.000137  0.933812  0.0  0.106801  -7.7e-05  0.992265  0.0  0.10766  -6.4e-05  0.993218  0.0  0.099869  0.106247  -0.000108  0.991587  0.0
H  H34  1  0.65465809  0.21736270  0.59660703  1  0.088005  -0.000135  0.9338  0.0  0.106798  -7.7e-05  0.992271  0.0  0.107658  -6.4e-05  0.993224  0.0  0.099866  0.106239  -0.000108  0.991591  0.0
H  H35  1  0.39221773  0.64885279  0.86795816  1  0.101106  -8e-06  0.955421  0.0  0.123286  2e-06  1.016446  0.0  0.124514  3e-06  1.016696  0.0  0.089377  0.122414  -4e-06  1.016216  0.0
H  H36  1  0.60777439  0.35114810  0.13203883  1  0.101092  -4e-06  0.955412  0.0  0.123263  2e-06  1.016451  0.0  0.12449  4e-06  1.016701  0.0  0.089379  0.122386  -4e-06  1.016226  0.0
H  H37  1  0.57594364  0.63986524  0.78796962  1  0.118575  -0.000138  0.982446  0.0  0.135697  -7.8e-05  1.050049  0.0  0.137632  -9.3e-05  1.049848  0.0  0.093079  0.134374  -5.5e-05  1.049827  0.0
H  H38  1  0.42405071  0.36013079  0.21203918  1  0.118517  -0.000134  0.982449  0.0  0.135628  -7.8e-05  1.050091  0.0  0.137564  -9.3e-05  1.049889  0.0  0.093046  0.134304  -5.5e-05  1.049868  0.0
H  H39  1  0.49018755  0.49874982  0.80905061  1  0.105824  -0.00019  0.938632  0.0  0.132086  -8.4e-05  0.991517  0.0  0.133147  -7.4e-05  0.992074  0.0  0.092066  0.131327  -6.2e-05  0.991299  0.0
H  H40  1  0.50980170  0.50124985  0.19094702  1  0.105813  -0.000148  0.938656  0.0  0.132099  -8.4e-05  0.991517  0.0  0.133159  -7.4e-05  0.992075  0.0  0.092084  0.131339  -6.2e-05  0.991297  0.0
H  H41  1  0.96108736  0.72788313  0.95156633  1  0.064015  0.000365  0.923113  0.0  0.079547  0.00038  0.979991  0.0  0.080365  0.000256  0.980879  0.0  0.096917  0.078864  0.000501  0.979521  0.0
H  H42  1  0.03889930  0.27212767  0.04843129  1  0.064035  0.000353  0.923299  0.0  0.079547  0.000381  0.980143  0.0  0.080359  0.000256  0.981047  0.0  0.096947  0.078871  0.000502  0.979659  0.0
H  H43  1  0.04332794  0.65772821  0.74517781  1  0.048715  0.000252  0.964614  0.0  0.061934  0.000289  1.039357  0.0  0.063834  0.000183  1.037288  0.0  0.078071  0.060556  0.000345  1.041017  0.0
H  H44  1  0.95666528  0.34227023  0.25482218  1  0.048719  0.000259  0.964698  0.0  0.06194  0.000289  1.03942  0.0  0.063842  0.000183  1.037349  0.0  0.078072  0.060562  0.000344  1.04108  0.0
H  H45  1  0.93261618  0.53559635  0.79871937  1  0.064104  8.2e-05  0.945152  0.0  0.081073  9.7e-05  1.013427  0.0  0.082351  6.1e-05  1.012852  0.0  0.086794  0.08005  0.000142  1.014035  0.0
H  H46  1  0.06738213  0.46439846  0.20129178  1  0.064111  0.000106  0.945158  0.0  0.081034  9.7e-05  1.013475  0.0  0.082311  6e-05  1.012902  0.0  0.086764  0.080011  0.000142  1.014083  0.0
H  H47  1  0.75933695  0.64164680  0.09750719  1  0.069172  2.2e-05  0.942924  0.0  0.086112  2.7e-05  1.00511  0.0  0.08754  1.5e-05  1.004954  0.0  0.089279  0.084942  2.6e-05  1.005753  0.0
H  H48  1  0.24065984  0.35835665  0.90250115  1  0.069152  1.7e-05  0.942936  0.0  0.086106  2.7e-05  1.005131  0.0  0.087532  1.5e-05  1.004977  0.0  0.089309  0.084942  2.6e-05  1.005769  0.0
H  H49  1  0.76164879  0.52479755  0.00948115  1  0.057803  -1.3e-05  0.943835  0.0  0.078214  1e-05  1.006263  0.0  0.078619  4e-06  1.007214  0.0  0.084969  0.077996  8.1e-05  1.005316  0.0
H  H50  1  0.23834562  0.47520097  0.99052753  1  0.057759  -2.9e-05  0.943886  0.0  0.078181  1.1e-05  1.006307  0.0  0.078587  5e-06  1.007257  0.0  0.085003  0.07796  8.1e-05  1.005369  0.0
C  C51  1  0.39214755  0.31854529  0.50693469  1  0.059314  -0.004734  3.634644  -0.005  0.000621  -0.001666  3.905984  -0.002  0.006319  -0.002104  3.91865  -0.002  -0.068586  -0.003117  -0.001229  3.897496  -0.002
C  C52  1  0.60785546  0.68145928  0.49306126  1  0.05919  -0.004766  3.634833  -0.005  0.000477  -0.001664  3.906157  -0.002  0.006178  -0.002103  3.918818  -0.002  -0.06857  -0.003254  -0.001229  3.897662  -0.002
C  C53  1  0.22366561  0.16195989  0.61617866  1  0.110663  -0.003275  3.579488  -0.003  0.092974  -0.000942  3.823726  -0.002  0.096826  -0.001395  3.840432  -0.002  0.003387  0.090541  -0.000328  3.811477  -0.001
C  C54  1  0.77633567  0.83804347  0.38381983  1  0.110714  -0.003317  3.579398  -0.003  0.092935  -0.000939  3.823672  -0.002  0.096785  -0.001395  3.840377  -0.002  0.003351  0.090471  -0.000328  3.811482  -0.001
C  C55  1  0.14507551  0.23698211  0.71701984  1  -0.162721  0.003155  3.663356  0.004  -0.207615  0.002034  3.922749  0.002  -0.209535  0.001465  3.937073  0.002  -0.165229  -0.206169  0.002552  3.912264  0.003
C  C56  1  0.85492965  0.76301510  0.28298418  1  -0.162763  0.003127  3.663258  0.004  -0.207593  0.002036  3.922597  0.002  -0.209513  0.001465  3.936916  0.002  -0.165222  -0.206151  0.002552  3.912122  0.003
C  C57  1  0.97410583  0.23392609  0.74292619  1  -0.096851  0.0003  3.70346  0.0  -0.137048  0.000355  3.968093  0.0  -0.137917  0.000238  3.983598  0.0  -0.167812  -0.136001  0.000539  3.957226  0.001
C  C58  1  0.02589828  0.76607605  0.25707470  1  -0.096802  0.000296  3.70347  0.0  -0.136967  0.000356  3.96806  0.0  -0.137829  0.00024  3.983548  0.0  -0.167777  -0.135923  0.000539  3.957196  0.001
C  C59  1  0.98945217  0.05883035  0.80616141  1  -0.119056  0.000462  3.704856  0.001  -0.159478  0.00041  3.969275  0.001  -0.160832  0.00028  3.984012  0.0  -0.170883  -0.15809  0.000481  3.958886  0.001
C  C60  1  0.01055135  0.94117055  0.19384005  1  -0.119042  0.000452  3.70494  0.001  -0.159535  0.00041  3.969401  0.001  -0.160878  0.00028  3.98412  0.0  -0.170921  -0.158146  0.000481  3.959013  0.001
C  C61  1  0.06647167  0.98443284  0.70555826  1  -0.156495  0.00255  3.678031  0.003  -0.204691  0.001699  3.942522  0.002  -0.205644  0.001213  3.956207  0.001  -0.168296  -0.203146  0.002167  3.933057  0.003
C  C62  1  0.93353016  0.01556929  0.29444077  1  -0.156577  0.002529  3.678151  0.003  -0.204638  0.001698  3.94253  0.002  -0.205591  0.001214  3.956206  0.001  -0.168252  -0.203092  0.002167  3.933061  0.003
C  C63  1  0.23800139  0.98594802  0.68002707  1  0.109296  -0.002222  3.57635  -0.002  0.090892  -0.000431  3.819492  -0.001  0.094391  -0.000924  3.835973  -0.001  0.003382  0.088068  -3.5e-05  3.808286  -0.001
C  C64  1  0.76199930  0.01405410  0.31997199  1  0.109199  -0.002163  3.576523  -0.002  0.090792  -0.000428  3.819626  -0.001  0.094291  -0.000923  3.83611  -0.001  0.003375  0.087973  -3.6e-05  3.808432  -0.001
C  C65  1  0.35116941  0.74377490  0.62862669  1  0.212426  -0.002875  3.609453  -0.003  0.199182  -0.000662  3.862466  -0.002  0.204626  -0.001151  3.879244  -0.002  0.00093  0.195281  -0.000261  3.851913  -0.002
C  C66  1  0.64883014  0.25622722  0.37137048  1  0.212387  -0.002827  3.609462  -0.003  0.199163  -0.000668  3.862468  -0.002  0.204605  -0.001152  3.879247  -0.002  0.000984  0.195262  -0.000261  3.851902  -0.002
C  C67  1  0.42958983  0.69563957  0.51163642  1  -0.192135  0.000621  3.64112  0.002  -0.236546  0.000501  3.898342  0.002  -0.239604  0.000255  3.912095  0.001  -0.161214  -0.234664  0.000726  3.889383  0.002
C  C68  1  0.57041198  0.30436253  0.48835971  1  -0.192148  0.000598  3.641152  0.002  -0.236593  0.000502  3.898397  0.002  -0.239651  0.000254  3.912149  0.001  -0.161209  -0.2347  0.000726  3.889427  0.002
C  C69  1  0.45910616  0.62643450  0.78256460  1  -0.348807  8.5e-05  3.677252  0.0  -0.432997  9.5e-05  3.922494  0.0  -0.436462  3.8e-05  3.932928  0.0  -0.24788  -0.43044  0.00017  3.91525  0.0
C  C70  1  0.54088993  0.37356516  0.21743475  1  -0.348732  2.6e-05  3.677207  0.0  -0.432932  9.6e-05  3.922473  0.0  -0.436394  3.8e-05  3.932904  0.0  -0.247907  -0.430382  0.00017  3.915252  0.0
C  C71  1  0.73401105  0.82940673  0.80379864  1  0.642624  -0.004514  3.857134  -0.003  0.5993  -0.000968  4.166017  0.0  0.633713  -0.000987  4.159261  0.0  0.199284  0.575435  -0.001082  4.169932  -0.001
C  C72  1  0.26599733  0.17056185  0.19618302  1  0.64253  -0.004546  3.857627  -0.003  0.599296  -0.000961  4.166303  0.0  0.633702  -0.000985  4.159542  0.0  0.199282  0.575433  -0.001079  4.170215  -0.001
C  C73  1  0.89111873  0.67955287  0.91167190  1  -0.118871  0.005278  3.651049  0.007  -0.118897  0.00322  3.88999  0.004  -0.124976  0.002228  3.905186  0.003  -0.097112  -0.11458  0.004397  3.879365  0.006
C  C74  1  0.10887279  0.32044440  0.08833645  1  -0.119136  0.005358  3.651485  0.007  -0.119083  0.003216  3.890255  0.004  -0.125165  0.002229  3.905453  0.003  -0.097203  -0.114762  0.0044  3.879622  0.006
C  C75  1  0.00567255  0.57868649  0.84187534  1  -0.11665  0.000137  3.70674  0.0  -0.164457  0.000394  3.973496  0.0  -0.163988  0.000241  3.986087  0.0  -0.171523  -0.164388  0.000628  3.96487  0.001
C  C76  1  0.99432413  0.42131202  0.15813326  1  -0.116544  4e-05  3.706963  0.0  -0.164312  0.000398  3.973568  0.0  -0.16384  0.000242  3.986159  0.0  -0.171501  -0.164245  0.000628  3.96494  0.001
C  C77  1  0.83915526  0.56864940  0.04683929  1  -0.116016  -0.000365  3.672408  0.0  -0.1605  -8.4e-05  3.930077  0.0  -0.161503  -0.000112  3.945219  0.0  -0.165633  -0.159766  -5.6e-05  3.919563  0.0
C  C78  1  0.16083916  0.43134914  0.95317326  1  -0.115806  -0.000354  3.672385  0.0  -0.160335  -8.4e-05  3.930055  0.0  -0.161337  -0.000117  3.945199  0.0  -0.165685  -0.159604  -5.6e-05  3.919537  0.0
N  N79  1  0.39156443  0.15645079  0.59150177  1  -0.413014  0.057107  3.247424  0.089  -0.374611  0.038654  3.522179  0.061  -0.40233  0.030395  3.534586  0.052  -0.492413  -0.35499  0.044421  3.51321  0.067
N  N80  1  0.60843629  0.84355377  0.40849232  1  -0.4131  0.057093  3.247557  0.089  -0.374639  0.038646  3.522255  0.061  -0.402352  0.030389  3.534656  0.052  -0.492411  -0.355012  0.044413  3.513294  0.067
N  N81  1  0.31528915  0.91782976  0.58040852  1  -0.427844  0.053029  3.210899  0.083  -0.392995  0.037144  3.48045  0.059  -0.419105  0.029259  3.493118  0.05  -0.481745  -0.374184  0.042915  3.472266  0.065
N  N82  1  0.68471718  0.08216989  0.41959146  1  -0.427778  0.053035  3.210871  0.083  -0.392914  0.037141  3.480389  0.059  -0.419017  0.029257  3.493058  0.05  -0.48171  -0.374116  0.042915  3.472229  0.065
O  O83  1  0.69238533  0.82422159  0.68778437  1  -0.630234  0.04363  2.090341  0.074  -0.590112  0.030918  2.3639  0.053  -0.626684  0.023164  2.356676  0.043  -0.325469  -0.563463  0.038497  2.367529  0.063
O  O84  1  0.30761957  0.17576569  0.31221436  1  -0.630238  0.043678  2.08986  0.074  -0.590247  0.030943  2.363457  0.054  -0.626844  0.023178  2.356247  0.043  -0.325474  -0.563588  0.03853  2.367086  0.064
O  O85  1  0.65641338  0.94368406  0.83606222  1  -0.620344  -0.002668  1.891772  -0.002  -0.582097  -0.001805  2.108076  -0.001  -0.603501  -0.001991  2.098067  -0.001  -0.341734  -0.567692  -0.001633  2.114684  -0.001
O  O86  1  0.34357051  0.05633281  0.16392112  1  -0.620003  -0.002669  1.892725  -0.002  -0.581797  -0.001807  2.108993  -0.001  -0.603189  -0.001991  2.098987  -0.001  -0.341588  -0.567396  -0.001636  2.115601  -0.001
