# generated using pymatgen
data_CuH4(CN)7
_symmetry_space_group_name_H-M   'P 1'
_cell_length_a   7.94458637
_cell_length_b   9.25985074
_cell_length_c   12.72389256
_cell_angle_alpha   90.00105707
_cell_angle_beta   97.36802568
_cell_angle_gamma   90.00016436
_symmetry_Int_Tables_number   1
_chemical_formula_structural   CuH4(CN)7
_chemical_formula_sum   'Cu4 H16 C28 N28'
_cell_volume   928.31285219
_cell_formula_units_Z   4
loop_
 _symmetry_equiv_pos_site_id
 _symmetry_equiv_pos_as_xyz
  1  'x, y, z'
loop_
 _atom_site_type_symbol
 _atom_site_label
 _atom_site_symmetry_multiplicity
 _atom_site_fract_x
 _atom_site_fract_y
 _atom_site_fract_z
 _atom_site_occupancy
 _atom_site_hle17_ddec_charge
 _atom_site_hle17_ddec_spin_density
 _atom_site_hle17_ddec_sum_bond_order
 _atom_site_hle17_magmom
 _atom_site_hse06_10hf_ddec_charge
 _atom_site_hse06_10hf_ddec_spin_density
 _atom_site_hse06_10hf_ddec_sum_bond_order
 _atom_site_hse06_10hf_magmom
 _atom_site_hse06_ddec_charge
 _atom_site_hse06_ddec_spin_density
 _atom_site_hse06_ddec_sum_bond_order
 _atom_site_hse06_magmom
 _atom_site_pbe_cm5_charge
 _atom_site_pbe_ddec_charge
 _atom_site_pbe_ddec_spin_density
 _atom_site_pbe_ddec_sum_bond_order
 _atom_site_pbe_magmom
Cu  Cu0  1  0.18270631  0.34876609  0.32604519  1  0.970031  0.72345  1.980551  0.506  0.980706  0.827064  2.391551  0.655  1.053251  0.904531  2.332333  0.741  0.850176  0.92863  0.755535  2.441035  0.585
Cu  Cu1  1  0.68271582  0.15123127  0.82603921  1  0.970067  0.72348  1.980507  0.506  0.980757  0.827073  2.391495  0.655  1.053292  0.90454  2.332314  0.741  0.850204  0.928684  0.755543  2.440979  0.585
Cu  Cu2  1  0.81729675  0.65123212  0.67395585  1  0.969998  -0.723441  1.980389  -0.506  0.980697  -0.827062  2.391389  -0.655  1.053239  -0.90454  2.332169  -0.741  0.850136  0.928611  -0.755514  2.440864  -0.585
Cu  Cu3  1  0.31728681  0.84876694  0.17395551  1  0.970061  -0.723427  1.980534  -0.506  0.98084  -0.827059  2.391507  -0.655  1.053328  -0.904532  2.332317  -0.741  0.850228  0.928758  -0.755516  2.440959  -0.585
H  H4  1  0.24689137  0.63003986  0.42735801  1  0.110873  0.000651  0.960961  0.002  0.115733  0.000634  1.027195  0.001  0.11496  0.000466  1.02865  0.001  0.125525  0.1163  0.000699  1.0264  0.001
H  H5  1  0.74688359  0.86995810  0.92736104  1  0.110947  0.000651  0.960855  0.002  0.115826  0.000634  1.027057  0.001  0.115054  0.000465  1.028514  0.001  0.125518  0.116393  0.000699  1.026254  0.001
H  H6  1  0.75311169  0.36995403  0.57264303  1  0.110892  -0.000651  0.960872  -0.002  0.11582  -0.000633  1.027042  -0.001  0.115041  -0.000466  1.028506  -0.001  0.125556  0.116386  -0.000699  1.026245  -0.001
H  H7  1  0.25309965  0.13003903  0.07264600  1  0.110908  -0.000651  0.960969  -0.002  0.115788  -0.000634  1.027159  -0.001  0.115012  -0.000466  1.028618  -0.001  0.125539  0.11636  -0.000699  1.02636  -0.001
H  H8  1  0.66649376  0.17101285  0.45278608  1  0.131503  -0.000245  0.929884  0.0  0.156054  -0.000156  0.980106  0.0  0.156663  -0.000126  0.980893  0.0  0.101406  0.155412  -0.00017  0.979632  0.0
H  H9  1  0.16650110  0.32897808  0.95279389  1  0.131519  -0.000245  0.929983  0.0  0.156083  -0.000156  0.980159  0.0  0.156691  -0.000126  0.980947  0.0  0.101418  0.155443  -0.00017  0.979685  0.0
H  H10  1  0.33349540  0.82897348  0.54721498  1  0.13142  0.000245  0.930059  0.0  0.155979  0.000156  0.980262  0.0  0.156589  0.000126  0.981044  0.0  0.101375  0.155341  0.00017  0.979787  0.0
H  H11  1  0.83350280  0.67101581  0.04721978  1  0.131436  0.000245  0.930005  0.0  0.155989  0.000156  0.980225  0.0  0.156598  0.000126  0.981011  0.0  0.101386  0.155346  0.00017  0.979743  0.0
H  H12  1  0.45259374  0.13606733  0.47263894  1  0.13965  -0.00073  0.927222  -0.001  0.162329  -0.000267  0.983232  0.0  0.161775  -0.000302  0.985372  0.0  0.106119  0.164229  -0.000246  0.977914  0.0
H  H13  1  0.95259724  0.36393245  0.97264093  1  0.13969  -0.00073  0.927202  -0.001  0.162348  -0.000268  0.983227  0.0  0.161791  -0.000302  0.985373  0.0  0.106127  0.164248  -0.000246  0.977906  0.0
H  H14  1  0.54738770  0.86392872  0.52736013  1  0.139603  0.00073  0.927274  0.001  0.162277  0.000267  0.983293  0.0  0.16172  0.000302  0.985433  0.0  0.10609  0.164173  0.000246  0.977982  0.0
H  H15  1  0.04739953  0.63607331  0.02736055  1  0.139659  0.000729  0.92722  0.001  0.162319  0.000267  0.983253  0.0  0.161765  0.000302  0.985393  0.0  0.106113  0.164213  0.000246  0.977953  0.0
H  H16  1  0.49764798  0.19499002  0.34693950  1  0.131676  -0.000698  0.960128  -0.001  0.146543  -0.000448  1.031967  0.0  0.146725  -0.00043  1.032077  0.0  0.100755  0.145824  -0.000434  1.032492  0.0
H  H17  1  0.99766244  0.30500335  0.84693974  1  0.131724  -0.000699  0.960153  -0.001  0.146531  -0.000447  1.032051  0.0  0.146712  -0.000431  1.032162  0.0  0.10076  0.145815  -0.000434  1.032569  0.0
H  H18  1  0.50233975  0.80500927  0.65305913  1  0.131694  0.000699  0.960125  0.001  0.146524  0.000448  1.032003  0.0  0.146707  0.00043  1.032108  0.0  0.100758  0.145807  0.000434  1.032524  0.0
H  H19  1  0.00235208  0.69499486  0.15306270  1  0.131648  0.000699  0.960215  0.001  0.146486  0.000447  1.032087  0.0  0.14667  0.000431  1.032193  0.0  0.100729  0.145769  0.000434  1.032601  0.0
C  C20  1  0.36148234  0.57327496  0.46067031  1  0.052345  -0.021095  3.615429  -0.022  0.020361  -0.006338  3.868077  -0.009  0.024022  -0.007172  3.888861  -0.01  0.066021  0.016546  -0.005603  3.85548  -0.008
C  C21  1  0.86147484  0.92672634  0.96067331  1  0.052103  -0.021087  3.61515  -0.022  0.020114  -0.006338  3.867833  -0.009  0.0238  -0.007174  3.888563  -0.01  0.066009  0.016299  -0.005602  3.855241  -0.008
C  C22  1  0.63851812  0.42672001  0.53932980  1  0.052208  0.021098  3.615032  0.022  0.020102  0.006339  3.86775  0.009  0.023788  0.007177  3.888476  0.01  0.065931  0.01629  0.005603  3.855162  0.008
C  C23  1  0.13851232  0.07327618  0.03933551  1  0.052179  0.021084  3.615481  0.022  0.020144  0.006336  3.868092  0.009  0.023828  0.007173  3.888815  0.01  0.065962  0.016321  0.005602  3.855519  0.008
C  C24  1  0.51549321  0.35981500  0.46670408  1  0.276961  -0.019563  3.691441  -0.021  0.281236  -0.005767  3.94894  -0.008  0.286647  -0.00671  3.970233  -0.009  0.138075  0.2779  -0.005069  3.934402  -0.007
C  C25  1  0.01550349  0.14018343  0.96671271  1  0.276882  -0.01955  3.691697  -0.021  0.281211  -0.005763  3.949132  -0.008  0.286623  -0.006707  3.970421  -0.009  0.137982  0.277874  -0.005066  3.934609  -0.007
C  C26  1  0.48449193  0.64018752  0.53329363  1  0.27675  0.019559  3.691597  0.021  0.280923  0.005764  3.949247  0.008  0.286311  0.006705  3.970578  0.009  0.13799  0.277588  0.005065  3.934724  0.007
C  C27  1  0.98449766  0.85981909  0.03329766  1  0.276907  0.019557  3.691425  0.021  0.28111  0.005766  3.949019  0.008  0.286508  0.006709  3.970333  0.009  0.13801  0.277777  0.005069  3.93449  0.007
C  C28  1  0.53500249  0.20732616  0.43257452  1  -0.373583  0.00094  3.687359  0.002  -0.458985  0.000395  3.924341  0.001  -0.46109  0.000178  3.934699  0.001  -0.231701  -0.456483  0.000564  3.914351  0.001
C  C29  1  0.03500820  0.29266603  0.93257939  1  -0.37374  0.000941  3.687667  0.002  -0.459085  0.000396  3.924651  0.001  -0.461187  0.000179  3.935007  0.001  -0.231721  -0.45658  0.000564  3.914644  0.001
C  C30  1  0.46498661  0.79267096  0.56742576  1  -0.373401  -0.000942  3.687615  -0.002  -0.458744  -0.000397  3.924639  -0.001  -0.460836  -0.000179  3.934995  -0.001  -0.231614  -0.456238  -0.000564  3.914627  -0.001
C  C31  1  0.96499401  0.70733002  0.06742789  1  -0.37348  -0.00094  3.687508  -0.002  -0.45883  -0.000396  3.924542  -0.001  -0.460929  -0.000179  3.9349  -0.001  -0.231633  -0.45633  -0.000564  3.914544  -0.001
C  C32  1  0.08151018  0.17771282  0.51999121  1  0.525174  -0.01013  3.995542  -0.007  0.50042  -0.000254  4.275338  0.004  0.530674  -0.001438  4.282773  0.002  0.320304  0.478852  0.000636  4.271102  0.005
C  C33  1  0.58150143  0.32229567  0.01998925  1  0.525048  -0.010135  3.996058  -0.007  0.500317  -0.000251  4.275833  0.004  0.530569  -0.00143  4.283267  0.002  0.32026  0.478744  0.000638  4.271603  0.005
C  C34  1  0.91850825  0.82228538  0.48001302  1  0.525119  0.010139  3.995492  0.007  0.50034  0.000256  4.275266  -0.004  0.530594  0.00144  4.282703  -0.002  0.320285  0.478759  -0.000635  4.271054  -0.005
C  C35  1  0.41849555  0.67771226  0.97999651  1  0.52493  0.010145  3.996095  0.007  0.500157  0.000254  4.275895  -0.004  0.530406  0.001435  4.283337  -0.002  0.320197  0.478586  -0.000638  4.271655  -0.005
C  C36  1  0.89540298  0.16734038  0.21071150  1  0.521261  -0.013985  3.947163  -0.014  0.494385  0.004636  4.251571  0.008  0.526078  0.003302  4.262771  0.007  0.316637  0.471958  0.005365  4.24171  0.008
C  C37  1  0.39543476  0.33265022  0.71070651  1  0.521854  -0.013981  3.946638  -0.014  0.495077  0.004631  4.250984  0.008  0.526769  0.0033  4.262158  0.007  0.317062  0.472653  0.005359  4.241149  0.008
C  C38  1  0.10458011  0.83265891  0.78929317  1  0.521525  0.013972  3.94718  0.014  0.494694  -0.004631  4.251522  -0.008  0.526405  -0.003297  4.262706  -0.007  0.316846  0.472263  -0.005359  4.241687  -0.008
C  C39  1  0.60458050  0.66734367  0.28928811  1  0.521726  0.014013  3.946842  0.014  0.494907  -0.004634  4.251232  -0.008  0.526618  -0.003304  4.262412  -0.007  0.316933  0.472482  -0.005362  4.241375  -0.008
C  C40  1  0.63029988  0.05621681  0.17539602  1  0.506958  -0.018457  3.963713  -0.021  0.484366  -0.00138  4.265147  -0.002  0.513396  -0.000623  4.276651  -0.001  0.308596  0.46403  -0.002055  4.254654  -0.003
C  C41  1  0.13032242  0.44378185  0.67539593  1  0.506703  -0.018466  3.963209  -0.021  0.484186  -0.001379  4.264709  -0.002  0.513217  -0.000621  4.276223  -0.001  0.308501  0.46384  -0.002054  4.254215  -0.003
C  C42  1  0.36967660  0.94379328  0.82460436  1  0.506779  0.018454  3.963499  0.021  0.484218  0.001381  4.264969  0.002  0.513267  0.000626  4.276482  0.001  0.308534  0.463878  0.002056  4.254466  0.003
C  C43  1  0.86969564  0.55621527  0.32460278  1  0.506737  0.018476  3.963317  0.021  0.484191  0.001385  4.264777  0.002  0.513231  0.000621  4.27629  0.001  0.308516  0.463844  0.002054  4.254301  0.003
C  C44  1  0.92788202  0.11430978  0.65652321  1  0.523303  -0.008041  3.988256  -0.005  0.498762  -0.000108  4.2721  0.004  0.529103  -0.001372  4.280089  0.002  0.317947  0.476978  0.000827  4.267478  0.005
C  C45  1  0.42786891  0.38568164  0.15651060  1  0.523473  -0.008035  3.988572  -0.005  0.498929  -0.000107  4.27241  0.004  0.529266  -0.001368  4.280397  0.002  0.317986  0.477149  0.000827  4.267775  0.005
C  C46  1  0.07214434  0.88568519  0.34348616  1  0.523438  0.008042  3.988541  0.005  0.498847  0.000105  4.272384  -0.004  0.529188  0.001374  4.280367  -0.002  0.317887  0.477065  -0.000828  4.267756  -0.005
C  C47  1  0.57212833  0.61431225  0.84347911  1  0.523416  0.008039  3.988932  0.005  0.498851  0.000105  4.272782  -0.004  0.529195  0.00137  4.280772  -0.002  0.317947  0.477072  -0.000829  4.268138  -0.005
N  N48  1  0.37714345  0.43711686  0.42893978  1  -0.280856  0.104174  3.290067  0.127  -0.242363  0.074745  3.573254  0.101  -0.27259  0.05976  3.598957  0.085  -0.304771  -0.222913  0.081361  3.556673  0.106
N  N49  1  0.87714823  0.06288589  0.92894497  1  -0.280603  0.104198  3.289834  0.127  -0.242228  0.074757  3.573099  0.101  -0.272465  0.059767  3.598818  0.085  -0.304663  -0.22278  0.081378  3.55652  0.106
N  N50  1  0.62284407  0.56288567  0.57105569  1  -0.280604  -0.104219  3.289654  -0.127  -0.242106  -0.074764  3.572938  -0.101  -0.272331  -0.05977  3.598661  -0.085  -0.30461  -0.222668  -0.08139  3.556368  -0.106
N  N51  1  0.12284769  0.93712096  0.07106275  1  -0.280657  -0.10417  3.289966  -0.127  -0.242176  -0.074744  3.573192  -0.101  -0.272396  -0.059757  3.598905  -0.085  -0.304655  -0.222737  -0.081369  3.556622  -0.106
N  N52  1  0.12383930  0.23322358  0.44444750  1  -0.608238  0.061079  2.994871  0.072  -0.589557  0.042041  3.303082  0.054  -0.618025  0.035157  3.30206  0.047  -0.412714  -0.570957  0.045347  3.305395  0.057
N  N53  1  0.62384229  0.26679184  0.94444898  1  -0.608238  0.061074  2.994832  0.072  -0.589563  0.042032  3.302994  0.054  -0.618033  0.035143  3.301979  0.047  -0.4127  -0.570961  0.045337  3.305308  0.057
N  N54  1  0.87616618  0.76677570  0.55555209  1  -0.608196  -0.061083  2.99478  -0.072  -0.58952  -0.042036  3.302999  -0.054  -0.61799  -0.035152  3.301975  -0.047  -0.412697  -0.570908  -0.045343  3.305313  -0.057
N  N55  1  0.37615981  0.73321716  0.05553785  1  -0.608169  -0.061095  2.994805  -0.072  -0.589488  -0.042039  3.302997  -0.054  -0.617948  -0.035148  3.301973  -0.047  -0.412672  -0.57088  -0.045348  3.305287  -0.057
N  N56  1  0.00417562  0.25443474  0.22747342  1  -0.567947  0.088183  2.897781  0.101  -0.572759  0.046887  3.218266  0.06  -0.606653  0.038099  3.222071  0.05  -0.407688  -0.548237  0.052301  3.214899  0.064
N  N57  1  0.50419434  0.24556171  0.72746603  1  -0.568185  0.088092  2.898067  0.101  -0.572977  0.046878  3.218489  0.06  -0.606853  0.038094  3.22228  0.05  -0.407825  -0.548469  0.052283  3.215143  0.064
N  N58  1  0.99582516  0.74556779  0.77253142  1  -0.568092  -0.088095  2.898163  -0.101  -0.572873  -0.046874  3.218595  -0.06  -0.606755  -0.038093  3.222374  -0.05  -0.407812  -0.548355  -0.052286  3.215242  -0.064
N  N59  1  0.49581035  0.75444190  0.27252172  1  -0.568296  -0.088197  2.897738  -0.101  -0.573124  -0.046889  3.218247  -0.06  -0.607004  -0.038101  3.22202  -0.05  -0.407937  -0.54861  -0.052303  3.214882  -0.064
N  N60  1  0.79324836  0.06322372  0.18305727  1  -0.416368  0.045013  3.33166  0.054  -0.388542  0.006854  3.604374  0.009  -0.41723  0.003139  3.613081  0.004  -0.294887  -0.366  0.011698  3.595588  0.015
N  N61  1  0.29326768  0.43678530  0.68304747  1  -0.416641  0.044999  3.331234  0.054  -0.388969  0.006845  3.604083  0.009  -0.417646  0.003134  3.612773  0.004  -0.295093  -0.366428  0.01169  3.595313  0.015
N  N62  1  0.20674376  0.93678636  0.81695025  1  -0.416402  -0.04499  3.331716  -0.054  -0.388633  -0.006852  3.604485  -0.009  -0.417353  -0.003138  3.613206  -0.004  -0.294921  -0.366089  -0.01169  3.595713  -0.015
N  N63  1  0.70673257  0.56321290  0.31694948  1  -0.416465  -0.045029  3.331288  -0.054  -0.388762  -0.006849  3.60408  -0.009  -0.417473  -0.003131  3.612799  -0.004  -0.294919  -0.366217  -0.011697  3.595306  -0.015
N  N64  1  0.48231154  0.03589432  0.16412364  1  -0.589576  0.040547  2.805531  0.043  -0.600902  0.004307  3.10725  0.004  -0.626521  0.00212  3.110163  0.002  -0.391419  -0.580071  0.008109  3.10349  0.008
N  N65  1  0.98231186  0.46410609  0.66412756  1  -0.589529  0.040573  2.804837  0.043  -0.600867  0.004307  3.106557  0.004  -0.626504  0.00212  3.109483  0.002  -0.39145  -0.580025  0.008109  3.102794  0.008
N  N66  1  0.51768364  0.96411793  0.83587303  1  -0.589559  -0.040572  2.804936  -0.043  -0.600895  -0.004306  3.106631  -0.004  -0.626533  -0.002121  3.109554  -0.002  -0.391415  -0.580052  -0.008113  3.10286  -0.008
N  N67  1  0.01768961  0.53589428  0.33586867  1  -0.589404  -0.040561  2.805414  -0.043  -0.60074  -0.004311  3.107133  -0.004  -0.626366  -0.002118  3.110049  -0.002  -0.391383  -0.579905  -0.008105  3.103384  -0.008
N  N68  1  0.81799772  0.10893552  0.71038426  1  -0.598205  0.049785  2.940538  0.058  -0.581935  0.039163  3.249257  0.051  -0.609025  0.033746  3.246385  0.045  -0.407064  -0.564091  0.04099  3.252592  0.051
N  N69  1  0.31798844  0.39104729  0.21037193  1  -0.598327  0.049769  2.940503  0.058  -0.582025  0.039158  3.249175  0.051  -0.609113  0.033742  3.24629  0.045  -0.406966  -0.564185  0.040986  3.252508  0.051
N  N70  1  0.18202473  0.89105837  0.28962333  1  -0.59829  -0.04979  2.940716  -0.058  -0.581996  -0.039165  3.249436  -0.051  -0.609075  -0.033751  3.246548  -0.045  -0.406975  -0.564151  -0.041  3.252758  -0.051
N  N71  1  0.68201556  0.60893471  0.78962444  1  -0.598308  -0.049787  2.940643  -0.058  -0.582035  -0.03916  3.249346  -0.051  -0.609126  -0.033743  3.246457  -0.045  -0.407001  -0.564197  -0.040992  3.252682  -0.051
N  N72  1  0.05425306  0.10639307  0.60290301  1  -0.454901  0.007618  3.329247  0.011  -0.405767  5.7e-05  3.581439  0.001  -0.432078  -0.000945  3.5858  0.0  -0.301347  -0.387813  0.001275  3.579125  0.003
N  N73  1  0.55421867  0.39360240  0.10289036  1  -0.454838  0.007612  3.329768  0.011  -0.40572  5.4e-05  3.581967  0.001  -0.432028  -0.000951  3.586329  0.0  -0.301402  -0.387768  0.001274  3.579646  0.003
N  N74  1  0.94578096  0.89360514  0.39710757  1  -0.454954  -0.007618  3.329294  -0.011  -0.405747  -6.2e-05  3.581445  -0.001  -0.432056  0.000942  3.585808  0.0  -0.301365  -0.387787  -0.001275  3.579131  -0.003
N  N75  1  0.44576928  0.60640768  0.89709255  1  -0.454728  -0.007622  3.329956  -0.011  -0.405561  -5.7e-05  3.582102  -0.001  -0.431873  0.000944  3.586473  0.0  -0.301313  -0.387604  -0.001276  3.579772  -0.003
