# generated using pymatgen
data_ZnH6C8N5O2
_symmetry_space_group_name_H-M   'P 1'
_cell_length_a   6.03083481
_cell_length_b   10.93779850
_cell_length_c   14.24850459
_cell_angle_alpha   89.43652688
_cell_angle_beta   90.00004187
_cell_angle_gamma   89.99994441
_symmetry_Int_Tables_number   1
_chemical_formula_structural   ZnH6C8N5O2
_chemical_formula_sum   'Zn4 H24 C32 N20 O8'
_cell_volume   939.84370252
_cell_formula_units_Z   4
loop_
 _symmetry_equiv_pos_site_id
 _symmetry_equiv_pos_as_xyz
  1  'x, y, z'
loop_
 _atom_site_type_symbol
 _atom_site_label
 _atom_site_symmetry_multiplicity
 _atom_site_fract_x
 _atom_site_fract_y
 _atom_site_fract_z
 _atom_site_occupancy
 _atom_site_hle17_bader_spin_density
 _atom_site_hle17_ddec_charge
 _atom_site_hle17_ddec_spin_density
 _atom_site_hle17_ddec_sum_bond_order
 _atom_site_hle17_magmom
 _atom_site_hse06_10hf_bader_spin_density
 _atom_site_hse06_10hf_ddec_charge
 _atom_site_hse06_10hf_ddec_spin_density
 _atom_site_hse06_10hf_ddec_sum_bond_order
 _atom_site_hse06_10hf_magmom
 _atom_site_hse06_bader_spin_density
 _atom_site_hse06_ddec_charge
 _atom_site_hse06_ddec_spin_density
 _atom_site_hse06_ddec_sum_bond_order
 _atom_site_hse06_magmom
 _atom_site_pbe_bader_spin_density
 _atom_site_pbe_cm5_charge
 _atom_site_pbe_ddec_charge
 _atom_site_pbe_ddec_spin_density
 _atom_site_pbe_ddec_sum_bond_order
 _atom_site_pbe_magmom
Zn  Zn0  1  0.01979405  0.54490261  0.83127994  1  0  0.976186  0  1.891766  0  0  0.778537  0  2.363886  0  0  0.822846  0  2.313821  0  0  0.718713  0.747729  0  2.398089  0
Zn  Zn1  1  0.51980501  0.95509833  0.16872142  1  0  0.976168  0  1.891764  0  0  0.778508  0  2.363877  0  0  0.82282  0  2.313812  0  0  0.718769  0.747709  0  2.398088  0
Zn  Zn2  1  0.98019848  0.45510015  0.16871753  1  0  0.976074  0  1.891875  0  0  0.778426  0  2.364004  0  0  0.822748  0  2.313938  0  0  0.718741  0.747616  0  2.398212  0
Zn  Zn3  1  0.48019248  0.04490161  0.83127954  1  0  0.976116  0  1.891842  0  0  0.778496  0  2.363974  0  0  0.822815  0  2.313912  0  0  0.718683  0.747677  0  2.398176  0
H  H4  1  0.54312130  0.34755553  0.93580208  1  0  0.150359  0  0.918  0  0  0.161134  0  0.978568  0  0  0.164655  0  0.976091  0  0  0.117099  0.158639  0  0.980372  0
H  H5  1  0.04312534  0.15244690  0.06419857  1  0  0.150325  0  0.918011  0  0  0.1611  0  0.978603  0  0  0.164629  0  0.976116  0  0  0.117069  0.158601  0  0.980409  0
H  H6  1  0.45686625  0.65244618  0.06420170  1  0  0.15028  0  0.918048  0  0  0.161067  0  0.978587  0  0  0.164594  0  0.976109  0  0  0.117081  0.158575  0  0.980385  0
H  H7  1  0.95686718  0.84756122  0.93580524  1  0  0.150321  0  0.917949  0  0  0.161094  0  0.978507  0  0  0.164615  0  0.976035  0  0  0.117126  0.158613  0  0.980294  0
H  H8  1  0.37296243  0.23466437  0.98804379  1  0  0.146765  0  0.934742  0  0  0.156495  0  0.994678  0  0  0.159813  0  0.992806  0  0  0.112269  0.153751  0  0.996671  0
H  H9  1  0.87296236  0.26533402  0.01194767  1  0  0.146678  0  0.934917  0  0  0.156477  0  0.994785  0  0  0.159796  0  0.992914  0  0  0.11227  0.153734  0  0.996767  0
H  H10  1  0.62702180  0.76532837  0.01195153  1  0  0.146788  0  0.934725  0  0  0.156503  0  0.994696  0  0  0.159826  0  0.992826  0  0  0.112281  0.153742  0  0.996704  0
H  H11  1  0.12702684  0.73466966  0.98804910  1  0  0.146754  0  0.934727  0  0  0.156477  0  0.994691  0  0  0.159797  0  0.992821  0  0  0.112281  0.153735  0  0.996684  0
H  H12  1  0.04026348  0.64584812  0.62342616  1  0  0.074012  0  0.963891  0  0  0.076863  0  1.036284  0  0  0.079761  0  1.033854  0  0  0.112596  0.074542  0  1.038526  0
H  H13  1  0.54026523  0.85414634  0.37657727  1  0  0.0741  0  0.963845  0  0  0.076947  0  1.036216  0  0  0.079847  0  1.033785  0  0  0.112619  0.074631  0  1.038459  0
H  H14  1  0.95974728  0.35415104  0.37656848  1  0  0.074039  0  0.963899  0  0  0.076902  0  1.036276  0  0  0.0798  0  1.033845  0  0  0.112594  0.074585  0  1.03852  0
H  H15  1  0.45974719  0.14584247  0.62343136  1  0  0.074049  0  0.963959  0  0  0.07691  0  1.03633  0  0  0.079808  0  1.033899  0  0  0.112606  0.074591  0  1.038575  0
H  H16  1  0.82767153  0.62081934  0.47667443  1  0  0.108148  0  0.957525  0  0  0.118141  0  1.016932  0  0  0.121481  0  1.015851  0  0  0.109084  0.115792  0  1.017752  0
H  H17  1  0.32767147  0.87918381  0.52332759  1  0  0.10815  0  0.957526  0  0  0.118148  0  1.016925  0  0  0.121489  0  1.015842  0  0  0.109097  0.115799  0  1.01774  0
H  H18  1  0.17233923  0.37919266  0.52331817  1  0  0.107977  0  0.957643  0  0  0.117978  0  1.017051  0  0  0.121322  0  1.015965  0  0  0.108974  0.115624  0  1.017875  0
H  H19  1  0.67233929  0.12081049  0.47668107  1  0  0.107947  0  0.957603  0  0  0.117944  0  1.01703  0  0  0.121286  0  1.015948  0  0  0.108966  0.115593  0  1.017859  0
H  H20  1  0.35199126  0.40778408  0.63766807  1  0  0.099922  0  0.998167  0  0  0.105623  0  1.067096  0  0  0.108212  0  1.067198  0  0  0.105845  0.103651  0  1.067493  0
H  H21  1  0.85200567  0.09221790  0.36232902  1  0  0.099925  0  0.998196  0  0  0.105628  0  1.067113  0  0  0.10822  0  1.067206  0  0  0.105844  0.103659  0  1.067509  0
H  H22  1  0.64800458  0.59222341  0.36232170  1  0  0.099875  0  0.998213  0  0  0.105553  0  1.067162  0  0  0.108152  0  1.067236  0  0  0.105855  0.10358  0  1.067568  0
H  H23  1  0.14801338  0.90777552  0.63767823  1  0  0.099847  0  0.99827  0  0  0.105531  0  1.067214  0  0  0.10813  0  1.067288  0  0  0.105807  0.103553  0  1.067622  0
H  H24  1  0.58363616  0.44539256  0.77706612  1  0  0.076374  0  0.93963  0  0  0.085156  0  1.004796  0  0  0.087092  0  1.003231  0  0  0.116911  0.08367  0  1.005991  0
H  H25  1  0.08364569  0.05460067  0.22293378  1  0  0.076379  0  0.939664  0  0  0.085148  0  1.004821  0  0  0.087086  0  1.003254  0  0  0.1169  0.083662  0  1.006029  0
H  H26  1  0.41636134  0.55460663  0.22292712  1  0  0.076323  0  0.939698  0  0  0.085154  0  1.004837  0  0  0.087071  0  1.003303  0  0  0.116858  0.083668  0  1.006044  0
H  H27  1  0.91636009  0.94538729  0.77707204  1  0  0.076305  0  0.939679  0  0  0.085144  0  1.004794  0  0  0.087084  0  1.003233  0  0  0.116866  0.083649  0  1.006008  0
C  C28  1  0.26119492  0.29724351  0.85557596  1  0  0.397943  0  3.69943  0  0  0.367647  0  3.963033  0  0  0.382287  0  3.97911  0  0  0.235012  0.357927  0  3.951875  0
C  C29  1  0.76120195  0.20275862  0.14442115  1  0  0.397994  0  3.699352  0  0  0.367662  0  3.963  0  0  0.3823  0  3.979088  0  0  0.235022  0.357947  0  3.951836  0
C  C30  1  0.73879428  0.70275742  0.14442150  1  0  0.398044  0  3.699282  0  0  0.36761  0  3.963042  0  0  0.382253  0  3.979123  0  0  0.235003  0.357897  0  3.951875  0
C  C31  1  0.23880218  0.79724314  0.85558052  1  0  0.398105  0  3.699244  0  0  0.367641  0  3.963066  0  0  0.382286  0  3.979139  0  0  0.23496  0.35792  0  3.951908  0
C  C32  1  0.36919181  0.32030918  0.94761001  1  0  -0.376325  0  3.66263  0  0  -0.407642  0  3.892938  0  0  -0.415895  0  3.898052  0  0  -0.153843  -0.40167  0  3.889402  0
C  C33  1  0.86919506  0.17968553  0.05238284  1  0  -0.376066  0  3.662558  0  0  -0.40744  0  3.892856  0  0  -0.4157  0  3.897962  0  0  -0.153729  -0.401455  0  3.889295  0
C  C34  1  0.63079242  0.67968443  0.05238742  1  0  -0.376154  0  3.662319  0  0  -0.407363  0  3.892605  0  0  -0.415634  0  3.897725  0  0  -0.153719  -0.401368  0  3.889051  0
C  C35  1  0.13080244  0.82031635  0.94761252  1  0  -0.376245  0  3.662315  0  0  -0.407432  0  3.892714  0  0  -0.415692  0  3.897818  0  0  -0.153757  -0.401466  0  3.889166  0
C  C36  1  0.26343329  0.42168754  0.00518921  1  0  0.739985  0  3.82367  0  0  0.687001  0  4.124173  0  0  0.721397  0  4.115893  0  0  0.21683  0.663417  0  4.129304  0
C  C37  1  0.76343228  0.07829427  0.99481763  1  0  0.739954  0  3.823687  0  0  0.686956  0  4.124222  0  0  0.721355  0  4.11594  0  0  0.216828  0.663365  0  4.129363  0
C  C38  1  0.73653602  0.57829130  0.99481517  1  0  0.740074  0  3.82356  0  0  0.686923  0  4.124306  0  0  0.721324  0  4.116022  0  0  0.216781  0.663331  0  4.129439  0
C  C39  1  0.23656522  0.92168718  0.00519307  1  0  0.740049  0  3.823394  0  0  0.686833  0  4.124246  0  0  0.721232  0  4.115961  0  0  0.216731  0.663246  0  4.129383  0
C  C40  1  0.88505361  0.59446807  0.62314533  1  0  0.134815  0  3.702607  0  0  0.1044  0  3.956388  0  0  0.110816  0  3.974703  0  0  0.048012  0.10019  0  3.944392  0
C  C41  1  0.38506455  0.90553131  0.37685737  1  0  0.134773  0  3.70245  0  0  0.104368  0  3.956215  0  0  0.110784  0  3.974538  0  0  0.048019  0.100159  0  3.944225  0
C  C42  1  0.11495218  0.40553566  0.37684933  1  0  0.134447  0  3.702691  0  0  0.104018  0  3.956428  0  0  0.110453  0  3.97476  0  0  0.047846  0.099798  0  3.944426  0
C  C43  1  0.61495119  0.09446207  0.62315129  1  0  0.134442  0  3.70264  0  0  0.104037  0  3.956392  0  0  0.11047  0  3.974727  0  0  0.04786  0.099815  0  3.944388  0
C  C44  1  0.76417462  0.57917091  0.54104783  1  0  -0.151988  0  3.686505  0  0  -0.166523  0  3.923693  0  0  -0.174213  0  3.945394  0  0  -0.079003  -0.161266  0  3.908894  0
C  C45  1  0.26417933  0.92083326  0.45895420  1  0  -0.151958  0  3.686396  0  0  -0.166486  0  3.923605  0  0  -0.174176  0  3.945304  0  0  -0.07896  -0.161225  0  3.908801  0
C  C46  1  0.23582619  0.42084564  0.45894548  1  0  -0.151483  0  3.686233  0  0  -0.165899  0  3.923458  0  0  -0.173588  0  3.94516  0  0  -0.078764  -0.160635  0  3.908645  0
C  C47  1  0.73583475  0.07915920  0.54105515  1  0  -0.151414  0  3.686163  0  0  -0.165855  0  3.923359  0  0  -0.173543  0  3.945064  0  0  -0.078763  -0.160601  0  3.908562  0
C  C48  1  0.56751024  0.50993723  0.54266246  1  0  0.097081  0  3.737701  0  0  0.11094  0  3.960778  0  0  0.114814  0  3.982269  0  0  0.014512  0.108555  0  3.945942  0
C  C49  1  0.06752337  0.99007564  0.45733263  1  0  0.097122  0  3.73798  0  0  0.110883  0  3.961111  0  0  0.11476  0  3.9826  0  0  0.014496  0.10851  0  3.946268  0
C  C50  1  0.43248394  0.49008772  0.45732247  1  0  0.097058  0  3.737832  0  0  0.110455  0  3.961318  0  0  0.114325  0  3.982822  0  0  0.014463  0.108086  0  3.946472  0
C  C51  1  0.93249734  0.00992050  0.54267534  1  0  0.096935  0  3.737789  0  0  0.110433  0  3.961196  0  0  0.114304  0  3.982693  0  0  0.014377  0.10805  0  3.946354  0
C  C52  1  0.50374807  0.46054592  0.62969777  1  0  -0.150676  0  3.698658  0  0  -0.172487  0  3.953409  0  0  -0.180291  0  3.974841  0  0  -0.080124  -0.167608  0  3.939632  0
C  C53  1  0.00376320  0.03945934  0.37030150  1  0  -0.150666  0  3.699126  0  0  -0.172436  0  3.953842  0  0  -0.180238  0  3.975273  0  0  -0.080101  -0.167559  0  3.94007  0
C  C54  1  0.49624446  0.53946619  0.37028921  1  0  -0.15051  0  3.699308  0  0  -0.172153  0  3.954136  0  0  -0.179952  0  3.975571  0  0  -0.080111  -0.16728  0  3.940363  0
C  C55  1  0.99624590  0.96053579  0.62971138  1  0  -0.150466  0  3.699071  0  0  -0.172129  0  3.953855  0  0  -0.17993  0  3.975298  0  0  -0.080014  -0.167251  0  3.940069  0
C  C56  1  0.63280834  0.48121955  0.70856284  1  0  0.150552  0  3.702928  0  0  0.111624  0  3.970048  0  0  0.119395  0  3.986292  0  0  0.051804  0.106628  0  3.959087  0
C  C57  1  0.13280816  0.01877819  0.29143567  1  0  0.150492  0  3.703191  0  0  0.111569  0  3.970278  0  0  0.119344  0  3.986519  0  0  0.051762  0.106569  0  3.959332  0
C  C58  1  0.36719579  0.51878792  0.29142763  1  0  0.150473  0  3.70334  0  0  0.111446  0  3.970467  0  0  0.119242  0  3.986746  0  0  0.051763  0.106436  0  3.959512  0
C  C59  1  0.86719431  0.98121519  0.70857298  1  0  0.150534  0  3.703374  0  0  0.111526  0  3.970533  0  0  0.119307  0  3.986805  0  0  0.051739  0.106515  0  3.95956  0
N  N60  1  0.12365340  0.37153545  0.80759128  1  0  -0.368938  0  3.197864  0  0  -0.297686  0  3.503564  0  0  -0.317323  0  3.513778  0  0  -0.246595  -0.284304  0  3.496377  0
N  N61  1  0.62366215  0.12846685  0.19240866  1  0  -0.369129  0  3.197765  0  0  -0.297856  0  3.503473  0  0  -0.317494  0  3.513681  0  0  -0.246662  -0.284473  0  3.496291  0
N  N62  1  0.87634244  0.62846644  0.19240408  1  0  -0.369006  0  3.197778  0  0  -0.297704  0  3.503507  0  0  -0.317345  0  3.513719  0  0  -0.246558  -0.28432  0  3.49632  0
N  N63  1  0.37633866  0.87153484  0.80759582  1  0  -0.369114  0  3.197806  0  0  -0.297815  0  3.503562  0  0  -0.317454  0  3.513774  0  0  -0.246602  -0.284433  0  3.496375  0
N  N64  1  0.07117120  0.31345502  0.72632184  1  0  -0.080443  0  2.973017  0  0  -0.080178  0  3.272812  0  0  -0.078091  0  3.283524  0  0  -0.099695  -0.081427  0  3.265495  0
N  N65  1  0.57118873  0.18654827  0.27367881  1  0  -0.080289  0  2.972738  0  0  -0.080025  0  3.272536  0  0  -0.077936  0  3.283246  0  0  -0.099667  -0.081269  0  3.265214  0
N  N66  1  0.92882961  0.68654690  0.27367211  1  0  -0.080472  0  2.972883  0  0  -0.080207  0  3.27268  0  0  -0.07812  0  3.283386  0  0  -0.099719  -0.081449  0  3.265356  0
N  N67  1  0.42882701  0.81345335  0.72632918  1  0  -0.080418  0  2.972716  0  0  -0.080146  0  3.272517  0  0  -0.078061  0  3.283223  0  0  -0.099704  -0.081394  0  3.265198  0
N  N68  1  0.17306080  0.20881826  0.72500704  1  0  -0.074519  0  2.993009  0  0  -0.066875  0  3.291334  0  0  -0.065342  0  3.302097  0  0  -0.089211  -0.067618  0  3.283994  0
N  N69  1  0.67307523  0.29118586  0.27498939  1  0  -0.074607  0  2.992952  0  0  -0.066984  0  3.291292  0  0  -0.065452  0  3.302056  0  0  -0.089182  -0.067724  0  3.283951  0
N  N70  1  0.82694333  0.79118459  0.27498621  1  0  -0.074489  0  2.993057  0  0  -0.066871  0  3.29137  0  0  -0.065336  0  3.30213  0  0  -0.089241  -0.06761  0  3.284026  0
N  N71  1  0.32693553  0.70881676  0.72501440  1  0  -0.074451  0  2.99283  0  0  -0.066825  0  3.291141  0  0  -0.065291  0  3.3019  0  0  -0.0892  -0.067569  0  3.283803  0
N  N72  1  0.29297969  0.19557886  0.80497426  1  0  -0.340261  0  3.168051  0  0  -0.269246  0  3.468561  0  0  -0.288021  0  3.478496  0  0  -0.239634  -0.256529  0  3.461589  0
N  N73  1  0.79298052  0.30442604  0.19501864  1  0  -0.340271  0  3.168153  0  0  -0.269208  0  3.468633  0  0  -0.287987  0  3.47857  0  0  -0.239689  -0.256487  0  3.46166  0
N  N74  1  0.70702278  0.80442488  0.19501970  1  0  -0.340371  0  3.168205  0  0  -0.269261  0  3.468695  0  0  -0.288037  0  3.478624  0  0  -0.239672  -0.256541  0  3.461725  0
N  N75  1  0.20701200  0.69558031  0.80498165  1  0  -0.340382  0  3.168083  0  0  -0.269277  0  3.46859  0  0  -0.288053  0  3.478522  0  0  -0.239669  -0.256559  0  3.461616  0
N  N76  1  0.82144895  0.54631977  0.70610325  1  0  -0.32091  0  3.27998  0  0  -0.246533  0  3.556656  0  0  -0.263904  0  3.571456  0  0  -0.320354  -0.234893  0  3.546426  0
N  N77  1  0.32144469  0.95368520  0.29389948  1  0  -0.320909  0  3.279914  0  0  -0.246522  0  3.556567  0  0  -0.263908  0  3.571383  0  0  -0.320326  -0.234885  0  3.546354  0
N  N78  1  0.17855683  0.45369034  0.29389214  1  0  -0.320591  0  3.279807  0  0  -0.246201  0  3.556569  0  0  -0.263607  0  3.571369  0  0  -0.320079  -0.234527  0  3.546314  0
N  N79  1  0.67855446  0.04630634  0.70610987  1  0  -0.320638  0  3.279832  0  0  -0.246327  0  3.556675  0  0  -0.263738  0  3.571488  0  0  -0.320117  -0.23465  0  3.546407  0
O  O80  1  0.21957430  0.52298740  0.96679025  1  0  -0.65196  0  2.026248  0  0  -0.5915  0  2.284245  0  0  -0.6171  0  2.273061  0  0  -0.31817  -0.573619  0  2.291918  0
O  O81  1  0.71960460  0.97700586  0.03321245  1  0  -0.651787  0  2.026822  0  0  -0.59134  0  2.284834  0  0  -0.616933  0  2.273648  0  0  -0.318084  -0.57347  0  2.292519  0
O  O82  1  0.78037345  0.47700157  0.03321067  1  0  -0.651873  0  2.026433  0  0  -0.591369  0  2.284487  0  0  -0.616961  0  2.273298  0  0  -0.318142  -0.573515  0  2.292202  0
O  O83  1  0.28040450  0.02299945  0.96679415  1  0  -0.65205  0  2.025899  0  0  -0.591521  0  2.284009  0  0  -0.617122  0  2.272822  0  0  -0.318182  -0.573637  0  2.291678  0
O  O84  1  0.23303800  0.39543257  0.09210656  1  0  -0.636188  0  2.032951  0  0  -0.564875  0  2.308247  0  0  -0.592382  0  2.293678  0  0  -0.332129  -0.545556  0  2.317606  0
O  O85  1  0.73304992  0.10456242  0.90788421  1  0  -0.636413  0  2.032461  0  0  -0.565061  0  2.307722  0  0  -0.592576  0  2.293157  0  0  -0.332215  -0.545733  0  2.317078  0
O  O86  1  0.76694623  0.60455926  0.90788875  1  0  -0.636426  0  2.032707  0  0  -0.565017  0  2.308012  0  0  -0.592526  0  2.293444  0  0  -0.332158  -0.54569  0  2.317366  0
O  O87  1  0.26696416  0.89544139  0.09210625  1  0  -0.6362  0  2.033089  0  0  -0.564781  0  2.308456  0  0  -0.592286  0  2.293888  0  0  -0.332081  -0.545464  0  2.317817  0
