# generated using pymatgen
data_Zr3H9C26N5ClO26
_symmetry_space_group_name_H-M   'P 1'
_cell_length_a   14.77744382
_cell_length_b   14.76976018
_cell_length_c   14.77501668
_cell_angle_alpha   59.95322470
_cell_angle_beta   60.01046713
_cell_angle_gamma   60.16849200
_symmetry_Int_Tables_number   1
_chemical_formula_structural   Zr3H9C26N5ClO26
_chemical_formula_sum   'Zr6 H18 C52 N10 Cl2 O52'
_cell_volume   2282.52723771
_cell_formula_units_Z   2
loop_
 _symmetry_equiv_pos_site_id
 _symmetry_equiv_pos_as_xyz
  1  'x, y, z'
loop_
 _atom_site_type_symbol
 _atom_site_label
 _atom_site_symmetry_multiplicity
 _atom_site_fract_x
 _atom_site_fract_y
 _atom_site_fract_z
 _atom_site_occupancy
 _atom_site_pbe_bader_charge
 _atom_site_pbe_bader_spin_density
 _atom_site_pbe_cm5_charge
 _atom_site_pbe_ddec_charge
 _atom_site_pbe_ddec_spin_density
 _atom_site_pbe_ddec_sum_bond_order
 _atom_site_pbe_magmom
Zr  Zr0  1  0.87785704  0.88122575  0.62099371  1  2.641002  0  1.636807  2.377937  0  2.745736  0
Zr  Zr1  1  0.11914746  0.11960029  0.38102218  1  2.638547  0  1.635066  2.380793  0  2.73506  0
Zr  Zr2  1  0.11816240  0.87897900  0.62150354  1  2.632943  0  1.631634  2.379367  0  2.735718  0
Zr  Zr3  1  0.87904353  0.12027253  0.38200282  1  2.634386  0  1.63518  2.37639  0  2.749331  0
Zr  Zr4  1  0.11801605  0.88066689  0.38180563  1  2.637688  0  1.636315  2.377055  0  2.754585  0
Zr  Zr5  1  0.88042008  0.11923149  0.62111473  1  2.639589  0  1.635276  2.378276  0  2.746049  0
H  H6  1  0.09244864  0.71659535  0.59633426  1  0.596239  0  0.329195  0.419942  0  0.866224  0
H  H7  1  0.09418815  0.09544798  0.21811818  1  0.599616  0  0.329694  0.420258  0  0.863423  0
H  H8  1  0.09555967  0.09241663  0.59516612  1  0.594844  0  0.332877  0.426626  0  0.850733  0
H  H9  1  0.71657047  0.09459330  0.59605784  1  0.628517  0  0.3344  0.427354  0  0.851592  0
H  H10  1  0.15654470  0.57266493  0.37719408  1  0.17177  0  0.127049  0.154177  0  0.993775  0
H  H11  1  0.83329113  0.43796740  0.61144790  1  0.203075  0  0.126535  0.153503  0  0.998364  0
H  H12  1  0.58956326  0.14111533  0.91727243  1  0.152915  0  0.126275  0.152671  0  0.994026  0
H  H13  1  0.41354213  0.85357111  0.09105578  1  0.171182  0  0.126694  0.152911  0  0.988727  0
H  H14  1  0.84268248  0.12771638  0.10288666  1  0.18228  0  0.128913  0.153759  0  0.984882  0
H  H15  1  0.14564558  0.85805606  0.91153958  1  0.15302  0  0.128426  0.154259  0  0.97759  0
H  H16  1  0.58934972  0.41239054  0.35756311  1  0.163011  0  0.131344  0.156377  0  0.968474  0
H  H17  1  0.41604022  0.59435919  0.63906281  1  0.164226  0  0.130657  0.156163  0  0.972832  0
H  H18  1  0.00219526  0.57267060  0.73683410  1  0.069576  0  0.096478  0.095761  0  1.049129  0
H  H19  1  0.02153305  0.39997563  0.73174836  1  0.074466  0  0.098776  0.096122  0  1.006853  0
H  H20  1  0.00561437  0.23460621  0.07258609  1  0.064408  0  0.095703  0.095649  0  1.049306  0
H  H21  1  0.02366273  0.23051849  0.89986254  1  0.060608  0  0.095824  0.091247  0  1.021904  0
H  H22  1  0.58166556  0.86171914  0.64881904  1  0.195555  0  0.126697  0.149034  0  0.996213  0
H  H23  1  0.41893358  0.13528110  0.34915893  1  0.155688  0  0.126225  0.150038  0  0.997285  0
C  C24  1  0.99161966  0.70349220  0.49496893  1  1.591256  0  0.242586  0.645891  0  4.10137  0
C  C25  1  0.30521412  0.99686133  0.20101438  1  1.56609  0  0.243233  0.64778  0  4.096096  0
C  C26  1  0.99999574  0.30407941  0.49839403  1  1.614644  0  0.239565  0.641886  0  4.112064  0
C  C27  1  0.69804696  0.99799870  0.80740551  1  1.570405  0  0.242263  0.646913  0  4.097702  0
C  C28  1  0.99068627  0.70288694  0.81021325  1  1.577836  0  0.241941  0.663351  0  4.099443  0
C  C29  1  0.69657947  0.99978103  0.49855866  1  1.584144  0  0.242542  0.64867  0  4.096465  0
C  C30  1  0.99135879  0.30900060  0.20415783  1  1.570201  0  0.241686  0.663238  0  4.100086  0
C  C31  1  0.30681665  0.99390861  0.49719007  1  1.591552  0  0.242669  0.648427  0  4.094059  0
C  C32  1  0.30505933  0.69905361  0.49755975  1  1.588404  0  0.242017  0.645702  0  4.102086  0
C  C33  1  0.99587020  0.99433244  0.80881824  1  1.605749  0  0.239616  0.64373  0  4.112281  0
C  C34  1  0.69948199  0.30713685  0.49945352  1  1.58659  0  0.24096  0.643649  0  4.108729  0
C  C35  1  0.99521605  0.99561125  0.20213130  1  1.606923  0  0.241524  0.64384  0  4.106372  0
C  C36  1  0.00020197  0.40587200  0.49708068  1  0.048876  0  0.001157  -0.060986  0  3.92518  0
C  C37  1  0.98999478  0.60416169  0.49272377  1  0.047086  0  0.003539  -0.060626  0  3.914366  0
C  C38  1  0.09024228  0.44546262  0.43205712  1  0.162963  0  0.093719  0.068785  0  3.914229  0
C  C39  1  0.89992503  0.56469181  0.55735773  1  0.155549  0  0.096002  0.070508  0  3.919292  0
C  C40  1  0.08569702  0.54333123  0.42828857  1  0.052703  0  -0.058174  -0.115117  0  3.88484  0
C  C41  1  0.90419558  0.46719292  0.56064680  1  0.057892  0  -0.059961  -0.121992  0  3.89528  0
C  C42  1  0.40654454  0.99807356  0.10024235  1  0.0206  0  0.003115  -0.061235  0  3.915309  0
C  C43  1  0.59685601  0.99641526  0.90840822  1  0.075763  0  0.003973  -0.058198  0  3.911203  0
C  C44  1  0.45714353  0.07878917  0.04925998  1  0.183524  0  0.094952  0.071248  0  3.904136  0
C  C45  1  0.54530685  0.91662680  0.95838465  1  0.119248  0  0.09465  0.069498  0  3.905117  0
C  C46  1  0.55082869  0.07836367  0.95536651  1  0.074586  0  -0.059705  -0.115133  0  3.889754  0
C  C47  1  0.45237003  0.91625806  0.05306985  1  0.140975  0  -0.0587  -0.113405  0  3.888224  0
C  C48  1  0.99314975  0.99448734  0.91130723  1  0.042012  0  0.000632  -0.061808  0  3.918165  0
C  C49  1  0.99589827  0.99221738  0.10232528  1  0.07595  0  0.003763  -0.05795  0  3.911345  0
C  C50  1  0.90904558  0.07028399  0.96610341  1  0.15947  0  0.094302  0.066232  0  3.915114  0
C  C51  1  0.08028557  0.91657964  0.04736399  1  0.227288  0  0.094889  0.070225  0  3.905293  0
C  C52  1  0.90919003  0.06919836  0.06041032  1  -0.016907  0  -0.059685  -0.122291  0  3.905151  0
C  C53  1  0.07929991  0.91668214  0.95395586  1  0.077025  0  -0.061347  -0.121569  0  3.905171  0
C  C54  1  0.40673151  0.59852492  0.49624298  1  0.025019  0  0.00394  -0.057234  0  3.908164  0
C  C55  1  0.59794919  0.40782394  0.50085070  1  0.039522  0  0.004985  -0.055726  0  3.911191  0
C  C56  1  0.45687703  0.54555093  0.41797294  1  0.197077  0  0.095281  0.068228  0  3.912472  0
C  C57  1  0.54658831  0.45950623  0.58039090  1  0.190495  0  0.094806  0.06761  0  3.911352  0
C  C58  1  0.55120506  0.45266823  0.41891231  1  0.062034  0  -0.05759  -0.116013  0  3.889395  0
C  C59  1  0.45372999  0.55388808  0.57797188  1  0.048421  0  -0.057177  -0.116064  0  3.88809  0
C  C60  1  0.98649709  0.60257584  0.91301123  1  0.043526  0  -0.008172  -0.117181  0  3.906659  0
C  C61  1  0.99759875  0.50354679  0.90750444  1  -0.018755  0  0.005631  0.076379  0  3.944228  0
C  C62  1  0.97178232  0.60650433  0.01135076  1  0.090789  0  0.018521  0.073432  0  4.027513  0
C  C63  1  0.00738117  0.49813165  0.80943511  1  -0.025381  0  -0.09135  -0.127452  0  3.965871  0
C  C64  1  0.01701515  0.40171850  0.80684581  1  -0.041853  0  -0.086815  -0.064316  0  4.013316  0
C  C65  1  0.98739554  0.41158482  0.10354856  1  0.081558  0  -0.007775  -0.116623  0  3.904354  0
C  C66  1  0.97194694  0.51008257  0.10773783  1  0.117875  0  0.01881  0.07482  0  4.027616  0
C  C67  1  0.99825421  0.40617096  0.00453316  1  0.018329  0  0.004322  0.074457  0  3.947375  0
C  C68  1  0.00903126  0.30794197  0.99856503  1  -0.04615  0  -0.092923  -0.12878  0  3.963595  0
C  C69  1  0.01801539  0.30582855  0.90214412  1  0.014652  0  -0.089145  -0.068448  0  4.016224  0
C  C70  1  0.40730998  0.99373498  0.49864824  1  0.094119  0  0.004838  -0.056462  0  3.901219  0
C  C71  1  0.59464255  0.00179978  0.49821076  1  0.059143  0  0.003934  -0.059294  0  3.905666  0
C  C72  1  0.45428853  0.91806660  0.58261604  1  0.16051  0  0.095203  0.070101  0  3.895078  0
C  C73  1  0.54637668  0.07883630  0.41536168  1  0.144359  0  0.095002  0.069861  0  3.899078  0
C  C74  1  0.54592828  0.92144927  0.58338721  1  0.064867  0  -0.057745  -0.105933  0  3.893989  0
C  C75  1  0.45508597  0.07509665  0.41425277  1  0.06724  0  -0.057887  -0.109537  0  3.892061  0
N  N76  1  0.19792186  0.38139900  0.36928359  1  0.441214  0  0.063824  0.520284  0  4.230667  0
N  N77  1  0.79276702  0.62790419  0.62129855  1  0.4424  0  0.063463  0.518679  0  4.232123  0
N  N78  1  0.41383687  0.16993273  0.09175286  1  0.42419  0  0.064941  0.523092  0  4.232376  0
N  N79  1  0.58523431  0.82913484  0.91222337  1  0.451978  0  0.065264  0.522721  0  4.232792  0
N  N80  1  0.81561558  0.15762842  0.92626993  1  0.419173  0  0.064888  0.522557  0  4.237691  0
N  N81  1  0.17691439  0.83340534  0.08388641  1  0.430666  0  0.06438  0.521292  0  4.236604  0
N  N82  1  0.41136602  0.58415370  0.33041386  1  0.431205  0  0.06702  0.523543  0  4.237102  0
N  N83  1  0.58661708  0.41513784  0.67362689  1  0.441912  0  0.067628  0.525109  0  4.231727  0
N  N84  1  0.40920741  0.82929141  0.67573956  1  0.439317  0  0.066849  0.528501  0  4.223857  0
N  N85  1  0.58857803  0.17054724  0.32509919  1  0.438487  0  0.068054  0.531048  0  4.223264  0
Cl  Cl86  1  0.94797143  0.51846950  0.23042000  1  -0.173818  0  0.008239  -0.041645  0  1.574049  0
Cl  Cl87  1  0.94851752  0.72898395  0.01966509  1  -0.178629  0  0.009478  -0.041603  0  1.579492  0
O  O88  1  0.91648406  0.74040844  0.57377798  1  -1.171618  0  -0.345393  -0.61163  0  2.309065  0
O  O89  1  0.26468356  0.07401671  0.24008622  1  -1.166448  0  -0.348631  -0.607748  0  2.330132  0
O  O90  1  0.07574496  0.26534989  0.42121318  1  -1.181106  0  -0.346724  -0.610672  0  2.338363  0
O  O91  1  0.73724452  0.92219801  0.76709160  1  -1.164508  0  -0.3477  -0.607535  0  2.340035  0
O  O92  1  0.07123648  0.73758067  0.76948153  1  -1.164954  0  -0.349725  -0.613248  0  2.270462  0
O  O93  1  0.73810372  0.07503180  0.42073109  1  -1.167578  0  -0.3511  -0.61526  0  2.327547  0
O  O94  1  0.91500444  0.26835564  0.24439715  1  -1.177106  0  -0.355503  -0.614565  0  2.288261  0
O  O95  1  0.26635411  0.91775631  0.57454369  1  -1.175484  0  -0.350866  -0.614281  0  2.326634  0
O  O96  1  0.26537289  0.73862475  0.42106497  1  -1.167771  0  -0.346347  -0.608505  0  2.319309  0
O  O97  1  0.91981197  0.07110291  0.76890621  1  -1.17474  0  -0.348231  -0.609575  0  2.336607  0
O  O98  1  0.74078325  0.26870486  0.57445209  1  -1.168413  0  -0.347734  -0.610793  0  2.319751  0
O  O99  1  0.07181372  0.91995627  0.24160535  1  -1.182309  0  -0.347634  -0.605485  0  2.340418  0
O  O100  1  0.07447260  0.91913650  0.76888620  1  -1.17542  0  -0.341905  -0.600691  0  2.29809  0
O  O101  1  0.73543631  0.26738509  0.42417223  1  -1.157959  0  -0.339554  -0.592662  0  2.283845  0
O  O102  1  0.91966192  0.07453614  0.23823845  1  -1.182797  0  -0.340161  -0.598494  0  2.279557  0
O  O103  1  0.26551257  0.73594901  0.57600359  1  -1.170679  0  -0.341997  -0.595555  0  2.273968  0
O  O104  1  0.91517248  0.74303509  0.76912610  1  -1.169253  0  -0.347585  -0.600839  0  2.294275  0
O  O105  1  0.26816839  0.07115490  0.42038904  1  -1.173635  0  -0.340903  -0.59154  0  2.29073  0
O  O106  1  0.07104128  0.26833002  0.23939016  1  -1.162445  0  -0.341224  -0.599565  0  2.273941  0
O  O107  1  0.73404817  0.92350386  0.57653022  1  -1.169269  0  -0.34143  -0.594352  0  2.289327  0
O  O108  1  0.73653062  0.07544593  0.76847686  1  -1.167954  0  -0.344067  -0.598829  0  2.281377  0
O  O109  1  0.07074702  0.74009061  0.42046573  1  -1.167962  0  -0.343111  -0.593354  0  2.290176  0
O  O110  1  0.26600613  0.92017263  0.23925780  1  -1.168694  0  -0.344136  -0.59738  0  2.282575  0
O  O111  1  0.92334343  0.26509814  0.57636909  1  -1.178691  0  -0.343833  -0.59576  0  2.280645  0
O  O112  1  0.79680433  0.06840646  0.56867782  1  -1.255183  0  -0.695523  -1.07503  0  2.367488  0
O  O113  1  0.06782519  0.06612150  0.56876564  1  -1.222607  0  -0.691444  -1.070665  0  2.350676  0
O  O114  1  0.06605213  0.06797054  0.29855579  1  -1.231829  0  -0.692773  -1.072296  0  2.362009  0
O  O115  1  0.06542075  0.79694661  0.56895533  1  -1.225825  0  -0.693152  -1.074783  0  2.362344  0
O  O116  1  0.14730084  0.94990624  0.45190286  1  -1.199943  0  -0.791468  -1.153466  0  2.134407  0
O  O117  1  0.94889085  0.95087101  0.45163109  1  -1.203512  0  -0.791372  -1.152079  0  2.126932  0
O  O118  1  0.95007607  0.14846060  0.45201299  1  -1.196857  0  -0.791951  -1.149537  0  2.132002  0
O  O119  1  0.94949238  0.95033522  0.64981951  1  -1.195311  0  -0.790963  -1.148693  0  2.13165  0
O  O120  1  0.25264559  0.29715549  0.42598726  1  -0.447268  0  -0.126971  -0.326232  0  1.915107  0
O  O121  1  0.22600504  0.41901639  0.26752234  1  -0.409489  0  -0.095817  -0.27702  0  1.876407  0
O  O122  1  0.76811438  0.59237678  0.72280241  1  -0.422367  0  -0.095426  -0.278646  0  1.872953  0
O  O123  1  0.73506990  0.70914200  0.56596935  1  -0.433455  0  -0.116078  -0.31344  0  1.927358  0
O  O124  1  0.34640792  0.25649311  0.05353391  1  -0.400512  0  -0.111018  -0.295209  0  1.866096  0
O  O125  1  0.45305720  0.15259317  0.15790567  1  -0.43247  0  -0.11276  -0.306888  0  1.915878  0
O  O126  1  0.54749936  0.85407071  0.84157714  1  -0.444967  0  -0.119057  -0.315235  0  1.907911  0
O  O127  1  0.64808202  0.73845261  0.95143308  1  -0.419837  0  -0.10626  -0.287523  0  1.86776  0
O  O128  1  0.82892608  0.24777756  0.86168984  1  -0.411072  0  -0.107714  -0.298169  0  1.885923  0
O  O129  1  0.73110701  0.13425595  0.96536030  1  -0.423071  0  -0.104968  -0.298349  0  1.926723  0
O  O130  1  0.25621253  0.86450770  0.04675990  1  -0.442013  0  -0.113728  -0.308425  0  1.911164  0
O  O131  1  0.17162345  0.73964516  0.14366455  1  -0.412227  0  -0.10562  -0.293225  0  1.887038  0
O  O132  1  0.34081610  0.54607084  0.35574924  1  -0.435657  0  -0.113258  -0.309717  0  1.915438  0
O  O133  1  0.45136074  0.64629669  0.23892990  1  -0.419095  0  -0.104767  -0.295164  0  1.89847  0
O  O134  1  0.55074701  0.34356408  0.75737294  1  -0.431018  0  -0.109285  -0.302705  0  1.901033  0
O  O135  1  0.64777251  0.45724446  0.66153943  1  -0.423937  0  -0.108041  -0.302182  0  1.916858  0
O  O136  1  0.33946003  0.85154449  0.76057048  1  -0.431448  0  -0.117293  -0.313419  0  1.900599  0
O  O137  1  0.44853091  0.73939858  0.66229531  1  -0.432584  0  -0.11164  -0.306588  0  1.904627  0
O  O138  1  0.55262762  0.25588576  0.34588905  1  -0.426029  0  -0.116402  -0.313432  0  1.898403  0
O  O139  1  0.65222854  0.15565677  0.23564331  1  -0.442663  0  -0.112238  -0.307904  0  1.908598  0
