# generated using pymatgen
data_CdH18C16N2O5
_symmetry_space_group_name_H-M   'P 1'
_cell_length_a   8.42269960
_cell_length_b   9.87411981
_cell_length_c   9.87406225
_cell_angle_alpha   95.79010705
_cell_angle_beta   90.86628795
_cell_angle_gamma   90.86636740
_symmetry_Int_Tables_number   1
_chemical_formula_structural   CdH18C16N2O5
_chemical_formula_sum   'Cd2 H36 C32 N4 O10'
_cell_volume   816.79625103
_cell_formula_units_Z   2
loop_
 _symmetry_equiv_pos_site_id
 _symmetry_equiv_pos_as_xyz
  1  'x, y, z'
loop_
 _atom_site_type_symbol
 _atom_site_label
 _atom_site_symmetry_multiplicity
 _atom_site_fract_x
 _atom_site_fract_y
 _atom_site_fract_z
 _atom_site_occupancy
 _atom_site_hle17_bader_spin_density
 _atom_site_hle17_ddec_charge
 _atom_site_hle17_ddec_spin_density
 _atom_site_hle17_ddec_sum_bond_order
 _atom_site_hle17_magmom
 _atom_site_hse06_10hf_bader_spin_density
 _atom_site_hse06_10hf_ddec_charge
 _atom_site_hse06_10hf_ddec_spin_density
 _atom_site_hse06_10hf_ddec_sum_bond_order
 _atom_site_hse06_10hf_magmom
 _atom_site_hse06_bader_spin_density
 _atom_site_hse06_ddec_charge
 _atom_site_hse06_ddec_spin_density
 _atom_site_hse06_ddec_sum_bond_order
 _atom_site_hse06_magmom
 _atom_site_pbe_bader_spin_density
 _atom_site_pbe_cm5_charge
 _atom_site_pbe_ddec_charge
 _atom_site_pbe_ddec_spin_density
 _atom_site_pbe_ddec_sum_bond_order
 _atom_site_pbe_magmom
Cd  Cd0  1  0.24999670  0.89285437  0.10714789  1  0  1.147382  0  1.630843  0  0  0.943295  0  2.073251  0  0  1.002537  0  2.01912  0  0  0.768755  0.900569  0  2.11095  0
Cd  Cd1  1  0.74999684  0.10714532  0.89285559  1  0  1.14735  0  1.630887  0  0  0.943272  0  2.073288  0  0  1.002513  0  2.019159  0  0  0.768775  0.900547  0  2.110984  0
H  H2  1  0.49926651  0.97290295  0.36131346  1  0  0.068352  0  0.96422  0  0  0.076006  0  1.033605  0  0  0.077932  0  1.032182  0  0  0.11331  0.074652  0  1.034621  0
H  H3  1  0.00073967  0.63868680  0.02709907  1  0  0.068344  0  0.964213  0  0  0.076001  0  1.033596  0  0  0.077927  0  1.032174  0  0  0.11328  0.074645  0  1.034615  0
H  H4  1  0.50073796  0.02710480  0.63869107  1  0  0.068347  0  0.964116  0  0  0.076004  0  1.03352  0  0  0.077929  0  1.032098  0  0  0.113292  0.074649  0  1.034536  0
H  H5  1  0.99925857  0.36130676  0.97289072  1  0  0.068359  0  0.964177  0  0  0.076003  0  1.033615  0  0  0.077929  0  1.032194  0  0  0.113272  0.074648  0  1.034634  0
H  H6  1  0.59742464  0.17251636  0.51816141  1  0  0.121515  0  0.963981  0  0  0.130256  0  1.026809  0  0  0.133909  0  1.024969  0  0  0.110661  0.127658  0  1.027873  0
H  H7  1  0.90257796  0.48183866  0.82748715  1  0  0.121484  0  0.964017  0  0  0.130246  0  1.026797  0  0  0.133897  0  1.024962  0  0  0.110668  0.127647  0  1.027862  0
H  H8  1  0.40257985  0.82749241  0.48184424  1  0  0.121548  0  0.963903  0  0  0.13032  0  1.026669  0  0  0.133972  0  1.024832  0  0  0.110695  0.12772  0  1.027734  0
H  H9  1  0.09742152  0.51815592  0.17250074  1  0  0.121558  0  0.963822  0  0  0.130279  0  1.026652  0  0  0.133929  0  1.024818  0  0  0.11068  0.12768  0  1.027719  0
H  H10  1  0.31321626  0.42684189  0.28122254  1  0  0.112675  0  0.984897  0  0  0.11888  0  1.052338  0  0  0.122638  0  1.050307  0  0  0.105644  0.116108  0  1.054298  0
H  H11  1  0.18679249  0.71877153  0.57315581  1  0  0.112675  0  0.984909  0  0  0.118913  0  1.052312  0  0  0.122672  0  1.050281  0  0  0.105662  0.116137  0  1.054279  0
H  H12  1  0.68679054  0.57316381  0.71877980  1  0  0.112658  0  0.984958  0  0  0.118898  0  1.052339  0  0  0.122655  0  1.050313  0  0  0.105651  0.116122  0  1.054307  0
H  H13  1  0.81320828  0.28122812  0.42683769  1  0  0.112587  0  0.984969  0  0  0.118881  0  1.052311  0  0  0.122638  0  1.050281  0  0  0.105639  0.116103  0  1.054283  0
H  H14  1  0.22241885  0.21624991  0.14083566  1  0  0.074957  0  0.970414  0  0  0.0826  0  1.035923  0  0  0.085008  0  1.034083  0  0  0.110733  0.080841  0  1.03717  0
H  H15  1  0.27758599  0.85916139  0.78374860  1  0  0.074995  0  0.970404  0  0  0.082659  0  1.035889  0  0  0.085055  0  1.034061  0  0  0.110749  0.080898  0  1.037138  0
H  H16  1  0.77758566  0.78375784  0.85916481  1  0  0.074982  0  0.970399  0  0  0.082634  0  1.035911  0  0  0.085034  0  1.034076  0  0  0.110715  0.080869  0  1.037174  0
H  H17  1  0.72241587  0.14083520  0.21624562  1  0  0.075031  0  0.970364  0  0  0.082643  0  1.035903  0  0  0.085053  0  1.034063  0  0  0.110726  0.080882  0  1.037156  0
H  H18  1  0.58881544  0.40961083  0.59440825  1  0  0.104048  0  0.958961  0  0  0.115896  0  1.018476  0  0  0.118652  0  1.017556  0  0  0.106832  0.113773  0  1.019291  0
H  H19  1  0.91119673  0.40558991  0.59038645  1  0  0.104067  0  0.959012  0  0  0.115838  0  1.018613  0  0  0.118593  0  1.017694  0  0  0.106817  0.113732  0  1.019407  0
H  H20  1  0.41118559  0.59040001  0.40559449  1  0  0.103996  0  0.959001  0  0  0.115889  0  1.018472  0  0  0.118643  0  1.017548  0  0  0.10683  0.113715  0  1.01935  0
H  H21  1  0.08880413  0.59441077  0.40960107  1  0  0.10399  0  0.959075  0  0  0.115832  0  1.018603  0  0  0.118585  0  1.017679  0  0  0.106794  0.113723  0  1.019401  0
H  H22  1  0.87574488  0.79837829  0.48468938  1  0  0.131565  0  0.956545  0  0  0.14916  0  1.018716  0  0  0.150653  0  1.020517  0  0  0.09102  0.148034  0  1.017552  0
H  H23  1  0.62425641  0.51531721  0.20161930  1  0  0.131572  0  0.956606  0  0  0.149154  0  1.018789  0  0  0.150651  0  1.020585  0  0  0.091011  0.148029  0  1.01763  0
H  H24  1  0.12425665  0.20161217  0.51531737  1  0  0.131587  0  0.956644  0  0  0.149166  0  1.018825  0  0  0.150665  0  1.020617  0  0  0.09102  0.14804  0  1.017665  0
H  H25  1  0.37573598  0.48468351  0.79838325  1  0  0.131627  0  0.956628  0  0  0.149206  0  1.01881  0  0  0.150703  0  1.020605  0  0  0.091034  0.148081  0  1.017652  0
H  H26  1  0.76313512  0.83975730  0.33887940  1  0  0.124926  0  0.961591  0  0  0.143225  0  1.024123  0  0  0.145527  0  1.023462  0  0  0.090568  0.141658  0  1.024425  0
H  H27  1  0.73686906  0.66112723  0.16024135  1  0  0.124881  0  0.961554  0  0  0.14317  0  1.024116  0  0  0.145472  0  1.023455  0  0  0.090549  0.141604  0  1.024418  0
H  H28  1  0.23686528  0.16023419  0.66112541  1  0  0.124875  0  0.961635  0  0  0.143149  0  1.024212  0  0  0.145451  0  1.023551  0  0  0.090531  0.141582  0  1.024515  0
H  H29  1  0.26312922  0.33887242  0.83976324  1  0  0.124921  0  0.961512  0  0  0.143205  0  1.024084  0  0  0.145507  0  1.023421  0  0  0.090554  0.141639  0  1.024387  0
H  H30  1  0.85269351  0.97067133  0.45268711  1  0  0.148972  0  0.950126  0  0  0.168398  0  1.008674  0  0  0.17084  0  1.008618  0  0  0.099535  0.166779  0  1.00845  0
H  H31  1  0.64730725  0.54732090  0.02932480  1  0  0.148991  0  0.949961  0  0  0.168397  0  1.008533  0  0  0.170838  0  1.008478  0  0  0.099533  0.166781  0  1.008305  0
H  H32  1  0.14731045  0.02932013  0.54731777  1  0  0.149017  0  0.950106  0  0  0.168471  0  1.008586  0  0  0.170912  0  1.00853  0  0  0.099589  0.166856  0  1.008358  0
H  H33  1  0.35268875  0.45268081  0.97067691  1  0  0.149031  0  0.950063  0  0  0.168446  0  1.008606  0  0  0.170886  0  1.008551  0  0  0.099556  0.166832  0  1.008379  0
H  H34  1  0.15759740  0.07315975  0.88818218  1  0  0.427532  0  0.879608  0  0  0.393065  0  0.948551  0  0  0.4051  0  0.93117  0  0  0.281071  0.384364  0  0.96115  0
H  H35  1  0.34239827  0.11182036  0.92684300  1  0  0.427591  0  0.879531  0  0  0.393113  0  0.948495  0  0  0.405148  0  0.931113  0  0  0.281098  0.384412  0  0.961094  0
H  H36  1  0.84239946  0.92683177  0.11182054  1  0  0.427693  0  0.879417  0  0  0.393185  0  0.948432  0  0  0.405222  0  0.931045  0  0  0.281124  0.384483  0  0.961035  0
H  H37  1  0.65759642  0.88818134  0.07317083  1  0  0.427683  0  0.879422  0  0  0.393176  0  0.948434  0  0  0.405214  0  0.931047  0  0  0.281126  0.384475  0  0.961036  0
C  C38  1  0.45746692  0.07509990  0.35032987  1  0  0.131578  0  3.731588  0  0  0.101071  0  3.985755  0  0  0.108577  0  4.004338  0  0  0.045652  0.095869  0  3.973346  0
C  C39  1  0.04253379  0.64966886  0.92490056  1  0  0.131618  0  3.731562  0  0  0.101105  0  3.985721  0  0  0.108609  0  4.004306  0  0  0.045682  0.095904  0  3.97331  0
C  C40  1  0.54253515  0.92490685  0.64967451  1  0  0.131488  0  3.731551  0  0  0.100953  0  3.985736  0  0  0.108457  0  4.004321  0  0  0.045545  0.095751  0  3.973326  0
C  C41  1  0.95746334  0.35032777  0.07509053  1  0  0.131431  0  3.731585  0  0  0.100878  0  3.985771  0  0  0.108381  0  4.004357  0  0  0.045501  0.095677  0  3.973361  0
C  C42  1  0.51085579  0.18624312  0.43757310  1  0  -0.179752  0  3.688106  0  0  -0.193815  0  3.93216  0  0  -0.202369  0  3.952714  0  0  -0.081855  -0.187216  0  3.917065  0
C  C43  1  0.98914784  0.56242591  0.81375782  1  0  -0.179768  0  3.688165  0  0  -0.193803  0  3.932226  0  0  -0.202357  0  3.952782  0  0  -0.081862  -0.187204  0  3.917129  0
C  C44  1  0.48914866  0.81376361  0.56243031  1  0  -0.179757  0  3.688182  0  0  -0.193863  0  3.932259  0  0  -0.202419  0  3.952811  0  0  -0.081857  -0.187264  0  3.917163  0
C  C45  1  0.01085049  0.43757071  0.18623228  1  0  -0.179646  0  3.688171  0  0  -0.193692  0  3.932193  0  0  -0.202243  0  3.952745  0  0  -0.081817  -0.187095  0  3.9171  0
C  C46  1  0.45872155  0.31756285  0.41729284  1  0  0.135705  0  3.80677  0  0  0.149247  0  4.037323  0  0  0.154593  0  4.059934  0  0  0.007707  0.146094  0  4.021489  0
C  C47  1  0.04128186  0.58269851  0.68243603  1  0  0.135702  0  3.806849  0  0  0.149186  0  4.037474  0  0  0.15453  0  4.060086  0  0  0.007659  0.146032  0  4.02164  0
C  C48  1  0.54128419  0.68244693  0.58270990  1  0  0.135774  0  3.806839  0  0  0.149373  0  4.037294  0  0  0.154722  0  4.059905  0  0  0.007804  0.146221  0  4.021447  0
C  C49  1  0.95871891  0.41729911  0.31755119  1  0  0.135486  0  3.806964  0  0  0.149117  0  4.037418  0  0  0.154459  0  4.060026  0  0  0.007743  0.145963  0  4.021587  0
C  C50  1  0.35382922  0.32830879  0.30693727  1  0  -0.165393  0  3.688417  0  0  -0.180428  0  3.931429  0  0  -0.188384  0  3.952483  0  0  -0.082948  -0.176152  0  3.918185  0
C  C51  1  0.14617171  0.69305861  0.67169046  1  0  -0.165371  0  3.688385  0  0  -0.180426  0  3.931418  0  0  -0.188381  0  3.952471  0  0  -0.082933  -0.17615  0  3.918175  0
C  C52  1  0.64617290  0.67170102  0.69307046  1  0  -0.165407  0  3.688783  0  0  -0.180455  0  3.931719  0  0  -0.188415  0  3.952775  0  0  -0.082952  -0.176179  0  3.918476  0
C  C53  1  0.85383142  0.30694001  0.32830095  1  0  -0.165174  0  3.688519  0  0  -0.18031  0  3.931478  0  0  -0.188266  0  3.952536  0  0  -0.082922  -0.176035  0  3.918238  0
C  C54  1  0.30402405  0.21151442  0.22676525  1  0  0.131432  0  3.720861  0  0  0.102767  0  3.967739  0  0  0.109713  0  3.986995  0  0  0.042578  0.098314  0  3.954667  0
C  C55  1  0.19598137  0.77323181  0.78848818  1  0  0.131384  0  3.720835  0  0  0.102711  0  3.967701  0  0  0.109667  0  3.98696  0  0  0.042558  0.098257  0  3.954624  0
C  C56  1  0.69598158  0.78849231  0.77323919  1  0  0.131319  0  3.721125  0  0  0.102614  0  3.967986  0  0  0.109571  0  3.987242  0  0  0.042497  0.098158  0  3.954907  0
C  C57  1  0.80401936  0.22676682  0.21150623  1  0  0.131276  0  3.721005  0  0  0.102629  0  3.967889  0  0  0.109575  0  3.987138  0  0  0.042516  0.098173  0  3.954815  0
C  C58  1  0.51583700  0.43423306  0.50791252  1  0  -0.098151  0  3.691661  0  0  -0.116226  0  3.938293  0  0  -0.119302  0  3.958745  0  0  -0.077041  -0.114019  0  3.923902  0
C  C59  1  0.98416484  0.49208452  0.56576575  1  0  -0.098104  0  3.691869  0  0  -0.116096  0  3.938502  0  0  -0.119169  0  3.95895  0  0  -0.076988  -0.113901  0  3.924122  0
C  C60  1  0.48416392  0.56577370  0.49208778  1  0  -0.098006  0  3.691657  0  0  -0.116129  0  3.938229  0  0  -0.1192  0  3.958675  0  0  -0.07698  -0.113885  0  3.923872  0
C  C61  1  0.01583955  0.50791612  0.43422589  1  0  -0.097945  0  3.691692  0  0  -0.116038  0  3.938258  0  0  -0.119105  0  3.958699  0  0  -0.076951  -0.113843  0  3.923881  0
C  C62  1  0.01843557  0.86328444  0.32184390  1  0  0.736297  0  3.85973  0  0  0.69747  0  4.149934  0  0  0.731172  0  4.142763  0  0  0.199724  0.674584  0  4.153555  0
C  C63  1  0.48156202  0.67816137  0.13671253  1  0  0.736186  0  3.859946  0  0  0.697414  0  4.150046  0  0  0.731119  0  4.142872  0  0  0.199658  0.674529  0  4.15367  0
C  C64  1  0.98156599  0.13670603  0.67815981  1  0  0.736188  0  3.859889  0  0  0.697427  0  4.14999  0  0  0.731128  0  4.142814  0  0  0.199669  0.674539  0  4.153615  0
C  C65  1  0.51843164  0.32184138  0.86328823  1  0  0.736466  0  3.859484  0  0  0.697522  0  4.149854  0  0  0.731221  0  4.142684  0  0  0.199726  0.674636  0  4.153479  0
C  C66  1  0.86788832  0.86646143  0.40385244  1  0  -0.462293  0  3.65377  0  0  -0.534021  0  3.879009  0  0  -0.542105  0  3.882949  0  0  -0.252212  -0.528056  0  3.875752  0
C  C67  1  0.63211146  0.59615396  0.13353759  1  0  -0.46221  0  3.653615  0  0  -0.533941  0  3.878885  0  0  -0.542028  0  3.882824  0  0  -0.252163  -0.527981  0  3.875628  0
C  C68  1  0.13211086  0.13352905  0.59615225  1  0  -0.462302  0  3.653934  0  0  -0.534023  0  3.879172  0  0  -0.542109  0  3.883104  0  0  -0.252215  -0.528064  0  3.875915  0
C  C69  1  0.36788333  0.40384776  0.86646613  1  0  -0.462503  0  3.653764  0  0  -0.534164  0  3.879045  0  0  -0.542247  0  3.88298  0  0  -0.252258  -0.528206  0  3.875792  0
N  N70  1  0.35399820  0.08608045  0.24718469  1  0  -0.335974  0  3.230149  0  0  -0.25887  0  3.491797  0  0  -0.278787  0  3.510058  0  0  -0.327331  -0.245435  0  3.479591  0
N  N71  1  0.14600524  0.75281559  0.91392690  1  0  -0.335991  0  3.230138  0  0  -0.25888  0  3.49179  0  0  -0.278798  0  3.510049  0  0  -0.327323  -0.245444  0  3.479581  0
N  N72  1  0.64600395  0.91392834  0.75281787  1  0  -0.335817  0  3.230033  0  0  -0.25868  0  3.49165  0  0  -0.278598  0  3.509908  0  0  -0.327219  -0.245244  0  3.479441  0
N  N73  1  0.85399309  0.24718204  0.08606634  1  0  -0.335833  0  3.230053  0  0  -0.258688  0  3.491649  0  0  -0.278606  0  3.50991  0  0  -0.327182  -0.245252  0  3.479441  0
O  O74  1  0.14983238  0.83765684  0.37414158  1  0  -0.650244  0  1.91006  0  0  -0.603406  0  2.139057  0  0  -0.627443  0  2.129297  0  0  -0.329728  -0.586108  0  2.145009  0
O  O75  1  0.35016878  0.62585750  0.16234184  1  0  -0.650223  0  1.91004  0  0  -0.603383  0  2.138982  0  0  -0.627424  0  2.129225  0  0  -0.329724  -0.58608  0  2.144925  0
O  O76  1  0.85017170  0.16233768  0.62586058  1  0  -0.650194  0  1.910043  0  0  -0.603374  0  2.13902  0  0  -0.62741  0  2.129256  0  0  -0.329722  -0.586075  0  2.144973  0
O  O77  1  0.64982242  0.37413512  0.83763656  1  0  -0.650302  0  1.909883  0  0  -0.603396  0  2.138894  0  0  -0.627423  0  2.129126  0  0  -0.32974  -0.586096  0  2.144846  0
O  O78  1  0.00411372  0.89146357  0.19631745  1  0  -0.691513  0  2.02228  0  0  -0.606972  0  2.262364  0  0  -0.639602  0  2.250296  0  0  -0.336599  -0.584333  0  2.270037  0
O  O79  1  0.49588357  0.80369021  0.10854434  1  0  -0.691489  0  2.022535  0  0  -0.606956  0  2.262583  0  0  -0.639588  0  2.250512  0  0  -0.336549  -0.584318  0  2.270259  0
O  O80  1  0.99588187  0.10852592  0.80368706  1  0  -0.691456  0  2.022385  0  0  -0.606972  0  2.262434  0  0  -0.639602  0  2.250364  0  0  -0.336596  -0.584334  0  2.270108  0
O  O81  1  0.50411130  0.19632065  0.89147955  1  0  -0.691532  0  2.022228  0  0  -0.606973  0  2.262359  0  0  -0.639604  0  2.250292  0  0  -0.336581  -0.584335  0  2.270033  0
O  O82  1  0.24999774  0.05271919  0.94727908  1  0  -0.880059  0  1.869762  0  0  -0.812126  0  2.078411  0  0  -0.835404  0  2.041277  0  0  -0.60351  -0.795592  0  2.104783  0
O  O83  1  0.74999918  0.94727437  0.05272384  1  0  -0.880292  0  1.869508  0  0  -0.812309  0  2.07818  0  0  -0.835591  0  2.04105  0  0  -0.603561  -0.795775  0  2.104553  0
