# generated using pymatgen
data_Zn2H15C9N13O2
_symmetry_space_group_name_H-M   'P 1'
_cell_length_a   10.27807483
_cell_length_b   10.01455336
_cell_length_c   21.39429314
_cell_angle_alpha   89.99929234
_cell_angle_beta   89.99948836
_cell_angle_gamma   92.80302050
_symmetry_Int_Tables_number   1
_chemical_formula_structural   Zn2H15C9N13O2
_chemical_formula_sum   'Zn8 H60 C36 N52 O8'
_cell_volume   2199.48692119
_cell_formula_units_Z   4
loop_
 _symmetry_equiv_pos_site_id
 _symmetry_equiv_pos_as_xyz
  1  'x, y, z'
loop_
 _atom_site_type_symbol
 _atom_site_label
 _atom_site_symmetry_multiplicity
 _atom_site_fract_x
 _atom_site_fract_y
 _atom_site_fract_z
 _atom_site_occupancy
 _atom_site_pbe_bader_charge
 _atom_site_pbe_bader_spin_density
 _atom_site_pbe_cm5_charge
 _atom_site_pbe_ddec_charge
 _atom_site_pbe_ddec_spin_density
 _atom_site_pbe_ddec_sum_bond_order
 _atom_site_pbe_magmom
Zn  Zn0  1  0.50408294  0.68546791  0.58021895  1  1.239278  0  0.742422  0.719647  0  2.45145  0
Zn  Zn1  1  0.49590907  0.31454010  0.08022222  1  1.239371  0  0.742462  0.719768  0  2.451253  0
Zn  Zn2  1  0.47410714  0.51877488  0.35053442  1  1.228679  0  0.728002  0.68904  0  2.456181  0
Zn  Zn3  1  0.52590001  0.48122765  0.85053551  1  1.228723  0  0.728014  0.68903  0  2.456125  0
Zn  Zn4  1  0.01648855  0.98037842  0.52287722  1  1.231501  0  0.722407  0.694395  0  2.422209  0
Zn  Zn5  1  0.98351008  0.01962413  0.02287871  1  1.231667  0  0.722408  0.694398  0  2.422218  0
Zn  Zn6  1  0.98528903  0.81397770  0.29327514  1  1.238735  0  0.741  0.719531  0  2.452303  0
Zn  Zn7  1  0.01471992  0.18602039  0.79327266  1  1.23873  0  0.740949  0.71942  0  2.452564  0
H  H8  1  0.35080348  0.32021204  0.40737004  1  0.380935  0  0.303044  0.281557  0  0.932144  0
H  H9  1  0.64919557  0.67978597  0.90737273  1  0.38094  0  0.303068  0.281592  0  0.932065  0
H  H10  1  0.47855981  0.26315684  0.37295936  1  0.445252  0  0.311068  0.299651  0  0.924176  0
H  H11  1  0.52144777  0.73684308  0.87295758  1  0.445304  0  0.311041  0.299597  0  0.92428  0
H  H12  1  0.05258013  0.23701203  0.49877707  1  0.452537  0  0.306893  0.295221  0  0.936625  0
H  H13  1  0.94741751  0.76299149  0.99878127  1  0.45251  0  0.306876  0.295149  0  0.936701  0
H  H14  1  0.17318407  0.15616012  0.46992356  1  0.389909  0  0.300746  0.276256  0  0.952436  0
H  H15  1  0.82682224  0.84385015  0.96992453  1  0.39  0  0.300726  0.276302  0  0.952419  0
H  H16  1  0.38968763  0.80143363  0.44805605  1  0.112239  0  0.102846  0.163118  0  1.013693  0
H  H17  1  0.61027251  0.19854145  0.94806870  1  0.11207  0  0.102849  0.16318  0  1.013643  0
H  H18  1  0.25991237  0.91200209  0.43705120  1  0.07097  0  0.096905  0.151162  0  1.009291  0
H  H19  1  0.74004189  0.08796832  0.93706067  1  0.070747  0  0.09684  0.151028  0  1.009356  0
H  H20  1  0.40111500  0.96180122  0.48273677  1  0.088439  0  0.095463  0.136077  0  1.055105  0
H  H21  1  0.59885572  0.03818387  0.98276162  1  0.08763  0  0.095401  0.13599  0  1.055117  0
H  H22  1  0.41723418  0.42314747  0.63913047  1  0.059097  0  0.100591  0.158034  0  1.003988  0
H  H23  1  0.58275139  0.57686995  0.13913278  1  0.058962  0  0.100615  0.158075  0  1.003749  0
H  H24  1  0.43934868  0.35062262  0.71402070  1  0.082874  0  0.096783  0.141688  0  1.029743  0
H  H25  1  0.56063283  0.64938077  0.21402736  1  0.082816  0  0.096767  0.141731  0  1.029554  0
H  H26  1  0.30521969  0.45374422  0.69983279  1  0.108005  0  0.099721  0.150343  0  1.011858  0
H  H27  1  0.69476738  0.54626754  0.19983527  1  0.108218  0  0.09978  0.150369  0  1.011875  0
H  H28  1  0.76504304  0.58498977  0.54464845  1  0.089326  0  0.103828  0.15902  0  1.002433  0
H  H29  1  0.23495336  0.41501520  0.04464197  1  0.089326  0  0.103853  0.159024  0  1.002452  0
H  H30  1  0.88002428  0.65408543  0.48939542  1  0.078084  0  0.10314  0.156309  0  0.979065  0
H  H31  1  0.11997605  0.34591033  0.98939016  1  0.078143  0  0.103195  0.156424  0  0.978945  0
H  H32  1  0.91306316  0.66911901  0.57054218  1  0.103895  0  0.105727  0.154195  0  1.01821  0
H  H33  1  0.08693006  0.33089026  0.07053729  1  0.104027  0  0.105738  0.154199  0  1.018167  0
H  H34  1  0.90781464  0.93238991  0.73440662  1  0.097392  0  0.099875  0.158687  0  1.008455  0
H  H35  1  0.09217373  0.06760289  0.23440464  1  0.097495  0  0.099895  0.158739  0  1.008465  0
H  H36  1  0.79822977  0.96912705  0.67345872  1  0.098545  0  0.100319  0.151763  0  1.008203  0
H  H37  1  0.20176509  0.03087539  0.17345648  1  0.098613  0  0.100316  0.151829  0  1.008233  0
H  H38  1  0.92577287  0.85729616  0.65990095  1  0.079789  0  0.096768  0.140725  0  1.032432  0
H  H39  1  0.07421498  0.14269768  0.15989674  1  0.080129  0  0.096808  0.140755  0  1.032488  0
H  H40  1  0.09189723  0.67743943  0.42439092  1  0.104072  0  0.102295  0.157803  0  1.01028  0
H  H41  1  0.90811075  0.32256807  0.92438289  1  0.104138  0  0.102333  0.157836  0  1.010313  0
H  H42  1  0.08246814  0.52116766  0.38555534  1  0.066722  0  0.097373  0.140392  0  1.025686  0
H  H43  1  0.91754046  0.47883791  0.88554495  1  0.066453  0  0.097368  0.140418  0  1.025733  0
H  H44  1  0.22198794  0.56694956  0.43363408  1  0.081254  0  0.097049  0.152854  0  1.00867  0
H  H45  1  0.77801992  0.43305870  0.93362550  1  0.081057  0  0.09702  0.152771  0  1.008699  0
H  H46  1  0.55606355  0.82585866  0.34058911  1  0.11126  0  0.103289  0.150236  0  1.022074  0
H  H47  1  0.44395900  0.17413708  0.84059000  1  0.110953  0  0.103289  0.150128  0  1.022286  0
H  H48  1  0.68984075  0.88904629  0.38709637  1  0.086324  0  0.103627  0.157391  0  0.975122  0
H  H49  1  0.31019345  0.11092813  0.88709960  1  0.08613  0  0.10361  0.15738  0  0.974974  0
H  H50  1  0.69633206  0.90319836  0.30440137  1  0.075995  0  0.11137  0.164165  0  0.968311  0
H  H51  1  0.30369403  0.09679636  0.80440377  1  0.07645  0  0.111404  0.164206  0  0.968223  0
H  H52  1  0.62234734  0.34427680  0.45012612  1  0.077845  0  0.125231  0.094334  0  0.938776  0
H  H53  1  0.37765103  0.65574205  0.95012730  1  0.077779  0  0.12527  0.094403  0  0.938773  0
H  H54  1  0.53511595  0.24728063  0.55001304  1  0.095519  0  0.106777  0.159988  0  0.976567  0
H  H55  1  0.46488788  0.75273815  0.05001203  1  0.095723  0  0.106736  0.159877  0  0.97671  0
H  H56  1  0.37463029  0.24031608  0.51960763  1  0.000393  0  0.085719  0.116082  0  1.016048  0
H  H57  1  0.62537194  0.75969854  0.01960309  1  0.000381  0  0.085672  0.116009  0  1.016147  0
H  H58  1  0.49707771  0.13914641  0.48681995  1  0.056056  0  0.086988  0.119512  0  1.052074  0
H  H59  1  0.50292167  0.86086743  0.98681379  1  0.055914  0  0.086972  0.119443  0  1.052067  0
H  H60  1  0.07477142  0.21527703  0.37607708  1  0.056308  0  0.113088  0.073258  0  0.944156  0
H  H61  1  0.92523701  0.78472180  0.87608125  1  0.056713  0  0.113101  0.073259  0  0.944239  0
H  H62  1  0.83315098  0.20987435  0.36658789  1  0.079793  0  0.100781  0.146457  0  0.989149  0
H  H63  1  0.16685692  0.79012974  0.86658780  1  0.079817  0  0.100793  0.146464  0  0.989155  0
H  H64  1  0.81704927  0.15980526  0.44689641  1  0.078513  0  0.086941  0.11713  0  1.054489  0
H  H65  1  0.18296078  0.84019362  0.94689829  1  0.078477  0  0.08693  0.117088  0  1.054441  0
H  H66  1  0.88765185  0.32063337  0.42640995  1  0.010584  0  0.089596  0.124005  0  1.008345  0
H  H67  1  0.11235850  0.67936407  0.92641073  1  0.010534  0  0.089616  0.124032  0  1.008344  0
C  C68  1  0.26845034  0.82298851  0.52713761  1  1.000781  0  0.230556  0.386039  0  3.9793  0
C  C69  1  0.73153498  0.17700298  0.02714254  1  1.000096  0  0.23069  0.386212  0  3.979134  0
C  C70  1  0.33284247  0.87844862  0.47012538  1  -0.09008  0  -0.238311  -0.47489  0  3.918833  0
C  C71  1  0.66713121  0.12153280  0.97013731  1  -0.088835  0  -0.238248  -0.474818  0  3.918722  0
C  C72  1  0.49089107  0.55855416  0.70874989  1  0.98416  0  0.231444  0.392369  0  3.964292  0
C  C73  1  0.50910114  0.44144733  0.20875237  1  0.983999  0  0.231379  0.392398  0  3.964244  0
C  C74  1  0.40842018  0.43989253  0.68951350  1  -0.040547  0  -0.236051  -0.475692  0  3.933763  0
C  C75  1  0.59156592  0.56011551  0.18951728  1  -0.040512  0  -0.23609  -0.475758  0  3.933327  0
C  C76  1  0.76916260  0.79726276  0.53631243  1  0.976683  0  0.232779  0.380095  0  3.978601  0
C  C77  1  0.23083495  0.20274242  0.03631328  1  0.97668  0  0.232887  0.380234  0  3.978557  0
C  C78  1  0.83504605  0.66864875  0.53539045  1  -0.080845  0  -0.227579  -0.463097  0  3.905389  0
C  C79  1  0.16495146  0.33135546  0.03538710  1  -0.081149  0  -0.227726  -0.463297  0  3.905393  0
C  C80  1  0.98935167  0.06212140  0.66440012  1  0.976209  0  0.232082  0.395418  0  3.962174  0
C  C81  1  0.01064853  0.93786826  0.16439904  1  0.976127  0  0.232048  0.395514  0  3.962156  0
C  C82  1  0.90001559  0.94895172  0.68398988  1  -0.062817  0  -0.236609  -0.479458  0  3.938674  0
C  C83  1  0.09997864  0.05104243  0.18398609  1  -0.063498  0  -0.236615  -0.4796  0  3.938887  0
C  C84  1  0.21679479  0.66636852  0.34596510  1  0.970343  0  0.231711  0.385543  0  3.978298  0
C  C85  1  0.78321461  0.33363813  0.84595894  1  0.970301  0  0.231756  0.385601  0  3.978209  0
C  C86  1  0.14998253  0.60337473  0.40077303  1  -0.057442  0  -0.235825  -0.473664  0  3.922921  0
C  C87  1  0.85002690  0.39663342  0.90076528  1  -0.056765  0  -0.235782  -0.473565  0  3.923016  0
C  C88  1  0.72217286  0.70665872  0.33967811  1  1.016744  0  0.233858  0.378132  0  3.983102  0
C  C89  1  0.27784130  0.29332509  0.83968463  1  1.015689  0  0.233905  0.37825  0  3.982781  0
C  C90  1  0.66233523  0.83841599  0.34305259  1  -0.084934  0  -0.223173  -0.457418  0  3.914113  0
C  C91  1  0.33768680  0.16157068  0.84305541  1  -0.084422  0  -0.223231  -0.45738  0  3.913988  0
C  C92  1  0.50003526  0.48792652  0.48848339  1  1.583051  0  0.209588  0.556091  0  4.151733  0
C  C93  1  0.49995338  0.51208732  0.98848909  1  1.582664  0  0.209526  0.55603  0  4.151352  0
C  C94  1  0.51772583  0.34829026  0.46104186  1  0.297931  0  0.001146  0.094111  0  3.865066  0
C  C95  1  0.48227191  0.65172029  0.96104122  1  0.297846  0  0.001075  0.093913  0  3.865065  0
C  C96  1  0.47833669  0.23709680  0.50681195  1  -0.072199  0  -0.244894  -0.418996  0  3.933358  0
C  C97  1  0.52166565  0.76291517  0.00680830  1  -0.072159  0  -0.244825  -0.418783  0  3.93347  0
C  C98  1  0.00333923  0.01242511  0.38472592  1  1.550757  0  0.209398  0.558796  0  4.147872  0
C  C99  1  0.99666919  0.98757648  0.88472720  1  1.550349  0  0.209349  0.558685  0  4.147985  0
C  C100  1  0.01383811  0.15655455  0.40956248  1  0.333922  0  3.7e-05  0.098116  0  3.865995  0
C  C101  1  0.98616684  0.84344538  0.90956651  1  0.333934  0  -9e-06  0.098157  0  3.866169  0
C  C102  1  0.87924965  0.21478907  0.41276411  1  -0.084642  0  -0.243062  -0.409731  0  3.908433  0
C  C103  1  0.12075528  0.78521177  0.91276471  1  -0.084631  0  -0.24304  -0.409724  0  3.908433  0
N  N104  1  0.14646546  0.84310268  0.54593442  1  -0.813641  0  -0.253431  -0.286424  0  3.487097  0
N  N105  1  0.85352175  0.15689430  0.04593427  1  -0.813407  0  -0.253405  -0.286395  0  3.487188  0
N  N106  1  0.12710293  0.77332642  0.60021129  1  -0.10127  0  -0.0888  -0.069509  0  3.266579  0
N  N107  1  0.87289544  0.22668001  0.10020691  1  -0.101199  0  -0.088748  -0.069441  0  3.266754  0
N  N108  1  0.23248939  0.71345879  0.61398827  1  -0.087531  0  -0.092542  -0.066892  0  3.210431  0
N  N109  1  0.76751188  0.28655226  0.11398587  1  -0.087639  0  -0.092596  -0.066897  0  3.210652  0
N  N110  1  0.32317872  0.74301541  0.56903722  1  -0.797403  0  -0.25295  -0.280372  0  3.510885  0
N  N111  1  0.67681510  0.25698590  0.06904099  1  -0.797064  0  -0.253033  -0.280578  0  3.510895  0
N  N112  1  0.53484658  0.65840999  0.67106890  1  -0.796069  0  -0.25417  -0.27838  0  3.51103  0
N  N113  1  0.46514822  0.34159051  0.17107167  1  -0.79609  0  -0.254219  -0.278645  0  3.511206  0
N  N114  1  0.60430749  0.74866365  0.70670790  1  -0.102256  0  -0.100699  -0.068617  0  3.236787  0
N  N115  1  0.39569817  0.25133384  0.20671383  1  -0.102178  0  -0.100758  -0.068507  0  3.236805  0
N  N116  1  0.60328857  0.70534980  0.76410183  1  -0.135246  0  -0.121388  -0.121426  0  3.278842  0
N  N117  1  0.39671681  0.29464411  0.26410751  1  -0.135062  0  -0.12135  -0.12147  0  3.278776  0
N  N118  1  0.53328956  0.58642193  0.76674462  1  -0.789123  0  -0.253993  -0.294163  0  3.4842  0
N  N119  1  0.46670830  0.41357794  0.26674791  1  -0.789265  0  -0.253955  -0.294111  0  3.484207  0
N  N120  1  0.64164667  0.81281144  0.54604329  1  -0.77115  0  -0.249848  -0.280457  0  3.517604  0
N  N121  1  0.35834981  0.18719548  0.04604461  1  -0.771202  0  -0.249883  -0.280623  0  3.517588  0
N  N122  1  0.62183909  0.94572399  0.54213116  1  -0.136752  0  -0.091114  -0.074569  0  3.257421  0
N  N123  1  0.37815941  0.05428303  0.04213317  1  -0.136631  0  -0.091071  -0.074503  0  3.257359  0
N  N124  1  0.73270183  0.00911774  0.53064085  1  -0.09415  0  -0.094818  -0.081746  0  3.249964  0
N  N125  1  0.26729777  0.99088759  0.03064258  1  -0.093974  0  -0.094864  -0.081723  0  3.249929  0
N  N126  1  0.82690332  0.91867863  0.52684401  1  -0.785808  0  -0.249847  -0.273423  0  3.499126  0
N  N127  1  0.17309528  0.08132482  0.02684534  1  -0.785852  0  -0.249823  -0.273392  0  3.499034  0
N  N128  1  0.04221423  0.15767194  0.70214277  1  -0.805684  0  -0.253343  -0.280763  0  3.509522  0
N  N129  1  0.95779208  0.84231767  0.20214381  1  -0.805823  0  -0.253333  -0.28083  0  3.509725  0
N  N130  1  0.11652864  0.24329655  0.66620521  1  -0.076191  0  -0.099603  -0.06983  0  3.239889  0
N  N131  1  0.88347720  0.75669005  0.16620987  1  -0.075953  0  -0.099705  -0.069974  0  3.23991  0
N  N132  1  0.10981794  0.20136622  0.60864000  1  -0.152003  0  -0.116664  -0.114632  0  3.282987  0
N  N133  1  0.89018327  0.79862297  0.10864391  1  -0.152161  0  -0.116495  -0.114306  0  3.283011  0
N  N134  1  0.03102913  0.08810739  0.60608607  1  -0.780194  0  -0.252483  -0.294086  0  3.476165  0
N  N135  1  0.96896537  0.91188290  0.10608619  1  -0.779862  0  -0.25252  -0.294321  0  3.476243  0
N  N136  1  0.16418160  0.75081581  0.30543360  1  -0.807514  0  -0.252868  -0.281858  0  3.508544  0
N  N137  1  0.83582676  0.24919395  0.80542676  1  -0.807691  0  -0.252844  -0.281994  0  3.508765  0
N  N138  1  0.25762883  0.78693562  0.26273779  1  -0.072174  0  -0.090901  -0.062386  0  3.21366  0
N  N139  1  0.74237828  0.21307232  0.76273344  1  -0.072139  0  -0.090973  -0.062407  0  3.213733  0
N  N140  1  0.36285115  0.72679274  0.27646196  1  -0.10943  0  -0.090561  -0.073124  0  3.258545  0
N  N141  1  0.63715369  0.27321383  0.77645865  1  -0.109503  0  -0.090484  -0.07299  0  3.258313  0
N  N142  1  0.34037491  0.65038393  0.32850228  1  -0.793267  0  -0.255246  -0.284924  0  3.507589  0
N  N143  1  0.65963187  0.34962221  0.82849842  1  -0.79336  0  -0.255317  -0.284989  0  3.507465  0
N  N144  1  0.84821916  0.68746889  0.32788036  1  -0.793848  0  -0.251477  -0.2807  0  3.520702  0
N  N145  1  0.15179595  0.31251024  0.82788216  1  -0.793472  0  -0.251554  -0.280884  0  3.520505  0
N  N146  1  0.86459175  0.55363006  0.33106427  1  -0.103454  0  -0.091965  -0.072724  0  3.244792  0
N  N147  1  0.13542243  0.44635098  0.83106397  1  -0.103406  0  -0.09187  -0.072609  0  3.244669  0
N  N148  1  0.75294656  0.49345247  0.34402983  1  -0.131647  0  -0.0974  -0.088152  0  3.250605  0
N  N149  1  0.24706357  0.50653023  0.84403009  1  -0.131734  0  -0.097638  -0.08846  0  3.250931  0
N  N150  1  0.66167347  0.58677140  0.34950738  1  -0.793407  0  -0.251237  -0.272682  0  3.497672  0
N  N151  1  0.33833773  0.41321515  0.84951201  1  -0.793051  0  -0.251051  -0.272423  0  3.497714  0
N  N152  1  0.44844664  0.33925671  0.40047214  1  -1.098642  0  -0.613323  -0.568326  0  3.40787  0
N  N153  1  0.55155476  0.66074649  0.90047302  1  -1.098654  0  -0.61331  -0.568214  0  3.407844  0
N  N154  1  0.07389175  0.15574149  0.47236555  1  -1.128955  0  -0.613072  -0.574471  0  3.404519  0
N  N155  1  0.92611415  0.84426171  0.97236703  1  -1.129222  0  -0.613019  -0.57442  0  3.404608  0
O  O156  1  0.45617219  0.57779161  0.45426569  1  -1.19043  0  -0.311786  -0.554022  0  2.294728  0
O  O157  1  0.54382261  0.42221614  0.95427172  1  -1.190068  0  -0.311857  -0.554015  0  2.294099  0
O  O158  1  0.53362029  0.50376690  0.54570040  1  -1.177438  0  -0.317474  -0.519528  0  2.339144  0
O  O159  1  0.46636765  0.49624407  0.04570368  1  -1.177551  0  -0.317295  -0.519368  0  2.33926  0
O  O160  1  0.02154210  0.91644864  0.42142043  1  -1.17895  0  -0.312546  -0.551678  0  2.292188  0
O  O161  1  0.97847137  0.08355093  0.92141862  1  -1.178931  0  -0.312493  -0.551597  0  2.292307  0
O  O162  1  0.97545704  0.00004232  0.32672102  1  -1.169596  0  -0.319243  -0.52192  0  2.322974  0
O  O163  1  0.02454249  0.99995490  0.82671938  1  -1.169488  0  -0.319273  -0.521901  0  2.322891  0
