# generated using pymatgen
data_ZnH16C17(NO3)2
_symmetry_space_group_name_H-M   'P 1'
_cell_length_a   9.24918111
_cell_length_b   10.21038139
_cell_length_c   11.01406772
_cell_angle_alpha   107.86918697
_cell_angle_beta   100.94499631
_cell_angle_gamma   99.05616434
_symmetry_Int_Tables_number   1
_chemical_formula_structural   ZnH16C17(NO3)2
_chemical_formula_sum   'Zn2 H32 C34 N4 O12'
_cell_volume   945.71866561
_cell_formula_units_Z   2
loop_
 _symmetry_equiv_pos_site_id
 _symmetry_equiv_pos_as_xyz
  1  'x, y, z'
loop_
 _atom_site_type_symbol
 _atom_site_label
 _atom_site_symmetry_multiplicity
 _atom_site_fract_x
 _atom_site_fract_y
 _atom_site_fract_z
 _atom_site_occupancy
 _atom_site_hle17_bader_spin_density
 _atom_site_hle17_ddec_charge
 _atom_site_hle17_ddec_spin_density
 _atom_site_hle17_ddec_sum_bond_order
 _atom_site_hle17_magmom
 _atom_site_hse06_10hf_bader_spin_density
 _atom_site_hse06_10hf_ddec_charge
 _atom_site_hse06_10hf_ddec_spin_density
 _atom_site_hse06_10hf_ddec_sum_bond_order
 _atom_site_hse06_10hf_magmom
 _atom_site_hse06_bader_spin_density
 _atom_site_hse06_ddec_charge
 _atom_site_hse06_ddec_spin_density
 _atom_site_hse06_ddec_sum_bond_order
 _atom_site_hse06_magmom
 _atom_site_pbe_bader_spin_density
 _atom_site_pbe_cm5_charge
 _atom_site_pbe_ddec_charge
 _atom_site_pbe_ddec_spin_density
 _atom_site_pbe_ddec_sum_bond_order
 _atom_site_pbe_magmom
Zn  Zn0  1  0.78636709  0.64775540  0.55281828  1  0  1.057216  0  1.758555  0  0  0.878814  0  2.215724  0  0  0.927493  0  2.15918  0  0  0.688875  0.840969  0  2.25865  0
Zn  Zn1  1  0.21363375  0.35224419  0.44718167  1  0  1.057207  0  1.758609  0  0  0.878782  0  2.21579  0  0  0.927464  0  2.159247  0  0  0.688868  0.840941  0  2.258718  0
H  H2  1  0.85824770  0.68469907  0.30595881  1  0  0.102786  0  0.922789  0  0  0.110997  0  0.983618  0  0  0.114164  0  0.980537  0  0  0.126824  0.108685  0  0.985778  0
H  H3  1  0.14175095  0.31530051  0.69403897  1  0  0.102779  0  0.922828  0  0  0.110994  0  0.983646  0  0  0.114161  0  0.980566  0  0  0.126823  0.108682  0  0.985806  0
H  H4  1  0.99624552  0.56656420  0.62833065  1  0  0.405664  0  0.900579  0  0  0.372734  0  0.974979  0  0  0.384123  0  0.958757  0  0  0.287173  0.364599  0  0.98652  0
H  H5  1  0.00375559  0.43343216  0.37166667  1  0  0.405724  0  0.900526  0  0  0.372799  0  0.974894  0  0  0.384189  0  0.95867  0  0  0.287208  0.364664  0  0.986435  0
H  H6  1  0.05812504  0.66506822  0.55454366  1  0  0.430078  0  0.868011  0  0  0.400237  0  0.929015  0  0  0.410584  0  0.914228  0  0  0.29785  0.392624  0  0.939928  0
H  H7  1  0.94187827  0.33493241  0.44545789  1  0  0.430104  0  0.867976  0  0  0.400259  0  0.928986  0  0  0.410605  0  0.9142  0  0  0.297849  0.392645  0  0.9399  0
H  H8  1  0.75351894  0.55698167  0.06318387  1  0  0.114306  0  0.934891  0  0  0.126134  0  0.986388  0  0  0.129227  0  0.985815  0  0  0.114369  0.123914  0  0.987001  0
H  H9  1  0.24648053  0.44301686  0.93681466  1  0  0.114354  0  0.934924  0  0  0.126186  0  0.986411  0  0  0.129278  0  0.985837  0  0  0.114396  0.123967  0  0.987024  0
H  H10  1  0.53934319  0.34104378  0.98292687  1  0  0.117671  0  0.973153  0  0  0.12437  0  1.037872  0  0  0.127694  0  1.03596  0  0  0.110866  0.121866  0  1.039402  0
H  H11  1  0.46065573  0.65895265  0.01707192  1  0  0.117678  0  0.973157  0  0  0.124372  0  1.037872  0  0  0.127698  0  1.035958  0  0  0.110877  0.121869  0  1.039403  0
H  H12  1  0.56262231  0.39468895  0.39080908  1  0  0.10361  0  0.948699  0  0  0.110462  0  1.014913  0  0  0.113623  0  1.012328  0  0  0.122692  0.108026  0  1.017066  0
H  H13  1  0.43737279  0.60531809  0.60918920  1  0  0.103592  0  0.948653  0  0  0.11043  0  1.01489  0  0  0.113591  0  1.012301  0  0  0.122666  0.107993  0  1.017044  0
H  H14  1  0.16918105  0.10202686  0.15674879  1  0  0.064155  0  0.947306  0  0  0.077326  0  1.006305  0  0  0.078537  0  1.006796  0  0  0.098606  0.076306  0  1.006319  0
H  H15  1  0.83081952  0.89797591  0.84325197  1  0  0.064144  0  0.947272  0  0  0.077314  0  1.006288  0  0  0.078525  0  1.00678  0  0  0.098626  0.076294  0  1.006299  0
H  H16  1  0.11821996  0.92397246  0.86588571  1  0  0.080109  0  0.925099  0  0  0.097535  0  0.984765  0  0  0.099224  0  0.983976  0  0  0.092174  0.096198  0  0.985581  0
H  H17  1  0.88178252  0.07602500  0.13411485  1  0  0.080155  0  0.925138  0  0  0.097579  0  0.984793  0  0  0.099269  0  0.984003  0  0  0.092187  0.096241  0  0.98561  0
H  H18  1  0.22785986  0.89630062  0.00244276  1  0  0.068738  0  0.925498  0  0  0.086437  0  0.98442  0  0  0.08744  0  0.985022  0  0  0.087634  0.085764  0  0.983765  0
H  H19  1  0.77213933  0.10370123  0.99756297  1  0  0.0687  0  0.925538  0  0  0.086402  0  0.98445  0  0  0.087405  0  0.985052  0  0  0.087602  0.085726  0  0.983798  0
H  H20  1  0.96762546  0.73789593  0.92294743  1  0  0.070123  0  0.921956  0  0  0.089185  0  0.97794  0  0  0.090437  0  0.97787  0  0  0.088924  0.088264  0  0.977976  0
H  H21  1  0.03237455  0.26210478  0.07705542  1  0  0.070136  0  0.921956  0  0  0.08922  0  0.977938  0  0  0.090475  0  0.977866  0  0  0.088928  0.088297  0  0.977977  0
H  H22  1  0.00120625  0.85311129  0.08805088  1  0  0.071485  0  0.928742  0  0  0.088857  0  0.989588  0  0  0.090176  0  0.989576  0  0  0.090837  0.087799  0  0.989651  0
H  H23  1  0.99879185  0.14689051  0.91195194  1  0  0.071471  0  0.928778  0  0  0.088862  0  0.989624  0  0  0.090179  0  0.989614  0  0  0.090844  0.087806  0  0.989682  0
H  H24  1  0.49061013  0.93757130  0.69754784  1  0  0.096498  0  0.941296  0  0  0.10761  0  0.999925  0  0  0.110901  0  0.997903  0  0  0.104845  0.105151  0  1.00149  0
H  H25  1  0.50938989  0.06242934  0.30245136  1  0  0.096524  0  0.941297  0  0  0.107643  0  0.999913  0  0  0.110935  0  0.99789  0  0  0.104846  0.105184  0  1.001479  0
H  H26  1  0.40127882  0.16009944  0.76063289  1  0  0.114752  0  0.967165  0  0  0.123551  0  1.026682  0  0  0.127404  0  1.024636  0  0  0.106009  0.120783  0  1.028345  0
H  H27  1  0.59872010  0.83990128  0.23936887  1  0  0.11473  0  0.967196  0  0  0.123512  0  1.026729  0  0  0.127368  0  1.024681  0  0  0.105994  0.120746  0  1.028394  0
H  H28  1  0.53459028  0.37210559  0.72361400  1  0  0.086611  0  0.982923  0  0  0.092936  0  1.053104  0  0  0.094891  0  1.053495  0  0  0.097755  0.09175  0  1.052413  0
H  H29  1  0.46541412  0.62789506  0.27638955  1  0  0.086567  0  0.983012  0  0  0.092918  0  1.053164  0  0  0.094874  0  1.053555  0  0  0.097745  0.091729  0  1.052479  0
H  H30  1  0.84836063  0.13830356  0.57013839  1  0  0.119556  0  0.931151  0  0  0.128327  0  0.991727  0  0  0.132572  0  0.987864  0  0  0.112798  0.125186  0  0.994889  0
H  H31  1  0.15163609  0.86169285  0.42985731  1  0  0.119529  0  0.931225  0  0  0.128305  0  0.991797  0  0  0.132552  0  0.987933  0  0  0.112786  0.125164  0  0.994958  0
H  H32  1  0.38167036  0.22403025  0.23473065  1  0  0.297988  0  0.957237  0  0  0.275247  0  1.030914  0  0  0.28339  0  1.02486  0  0  0.300503  0.269313  0  1.035528  0
H  H33  1  0.61832720  0.77597363  0.76526991  1  0  0.29789  0  0.957268  0  0  0.275183  0  1.030922  0  0  0.283326  0  1.024869  0  0  0.300491  0.269253  0  1.035532  0
C  C34  1  0.76875410  0.58869227  0.26691987  1  0  0.123222  0  3.673501  0  0  0.084079  0  3.934924  0  0  0.090763  0  3.95239  0  0  0.043924  0.079873  0  3.922736  0
C  C35  1  0.23124510  0.41130946  0.73308039  1  0  0.123291  0  3.673476  0  0  0.084139  0  3.9349  0  0  0.090825  0  3.952367  0  0  0.043974  0.079931  0  3.922717  0
C  C36  1  0.70876587  0.51658605  0.13251090  1  0  -0.090164  0  3.739261  0  0  -0.100887  0  3.991136  0  0  -0.106259  0  4.011979  0  0  -0.075649  -0.098014  0  3.977776  0
C  C37  1  0.29123496  0.48341358  0.86749088  1  0  -0.090286  0  3.739338  0  0  -0.101022  0  3.991233  0  0  -0.106396  0  4.012076  0  0  -0.075708  -0.098149  0  3.977876  0
C  C38  1  0.58952661  0.39732690  0.08750902  1  0  -0.105822  0  3.664092  0  0  -0.13002  0  3.90871  0  0  -0.129364  0  3.926036  0  0  -0.069053  -0.130476  0  3.897851  0
C  C39  1  0.41047122  0.60267377  0.91248982  1  0  -0.105755  0  3.663952  0  0  -0.12993  0  3.908572  0  0  -0.12927  0  3.925892  0  0  -0.069026  -0.130387  0  3.897713  0
C  C40  1  0.53145286  0.35250229  0.18081377  1  0  0.22488  0  3.78437  0  0  0.22395  0  4.028199  0  0  0.228594  0  4.049623  0  0  0.108439  0.219897  0  4.014351  0
C  C41  1  0.46854443  0.64750047  0.81918373  1  0  0.22486  0  3.784324  0  0  0.223895  0  4.02819  0  0  0.228537  0  4.049613  0  0  0.108428  0.219847  0  4.014339  0
C  C42  1  0.60232270  0.42655422  0.31476482  1  0  0.028867  0  3.64986  0  0  -0.01095  0  3.905916  0  0  -0.005732  0  3.921009  0  0  0.042063  -0.014124  0  3.895858  0
C  C43  1  0.39767430  0.57344756  0.68523599  1  0  0.02877  0  3.649912  0  0  -0.011026  0  3.905981  0  0  -0.005807  0  3.921075  0  0  0.042044  -0.014198  0  3.895917  0
C  C44  1  0.29203640  0.18264169  0.03829545  1  0  0.56807  0  3.757978  0  0  0.526246  0  4.048772  0  0  0.554174  0  4.049033  0  0  0.245675  0.507505  0  4.047701  0
C  C45  1  0.70796613  0.81735971  0.96169164  1  0  0.567915  0  3.757404  0  0  0.526083  0  4.048238  0  0  0.554024  0  4.048492  0  0  0.245684  0.507342  0  4.047169  0
C  C46  1  0.15311595  0.09311910  0.05270272  1  0  -0.114007  0  3.653395  0  0  -0.117237  0  3.898348  0  0  -0.122143  0  3.913631  0  0  -0.089775  -0.114139  0  3.888362  0
C  C47  1  0.84688297  0.90688157  0.94729721  1  0  -0.113953  0  3.6534  0  0  -0.1172  0  3.898347  0  0  -0.122119  0  3.913638  0  0  -0.089808  -0.114097  0  3.888342  0
C  C48  1  0.12862596  0.93595844  0.97023177  1  0  -0.112407  0  3.658737  0  0  -0.15745  0  3.921562  0  0  -0.15834  0  3.935368  0  0  -0.160886  -0.156673  0  3.911922  0
C  C49  1  0.87137488  0.06404117  0.02976910  1  0  -0.112501  0  3.65874  0  0  -0.157516  0  3.92158  0  0  -0.158406  0  3.935385  0  0  -0.160901  -0.156736  0  3.911943  0
C  C50  1  0.98661086  0.84955403  0.98533850  1  0  -0.110456  0  3.660946  0  0  -0.155423  0  3.9244  0  0  -0.156142  0  3.938203  0  0  -0.16042  -0.154752  0  3.914827  0
C  C51  1  0.01339053  0.15044769  0.01466302  1  0  -0.11038  0  3.660879  0  0  -0.155422  0  3.924399  0  0  -0.156145  0  3.938209  0  0  -0.160401  -0.154749  0  3.914825  0
C  C52  1  0.72944373  0.89194676  0.59131721  1  0  0.626801  0  3.908654  0  0  0.575964  0  4.200911  0  0  0.609031  0  4.196647  0  0  0.200352  0.552901  0  4.203778  0
C  C53  1  0.27055354  0.10805181  0.40868188  1  0  0.626783  0  3.908688  0  0  0.575951  0  4.200945  0  0  0.609018  0  4.196682  0  0  0.200344  0.55289  0  4.203814  0
C  C54  1  0.67535582  0.02479503  0.63051505  1  0  -0.077743  0  3.778612  0  0  -0.051022  0  4.014185  0  0  -0.062063  0  4.040262  0  0  -0.019649  -0.044007  0  3.997342  0
C  C55  1  0.32464530  0.97520559  0.36948432  1  0  -0.077762  0  3.778503  0  0  -0.051053  0  4.014106  0  0  -0.062092  0  4.040181  0  0  -0.019662  -0.044038  0  3.997263  0
C  C56  1  0.54971157  0.03128286  0.68433989  1  0  -0.03965  0  3.700662  0  0  -0.06914  0  3.952487  0  0  -0.066164  0  3.971772  0  0  -0.073215  -0.069626  0  3.93834  0
C  C57  1  0.45028927  0.96871669  0.31565824  1  0  -0.039723  0  3.700551  0  0  -0.069213  0  3.952384  0  0  -0.066235  0  3.971666  0  0  -0.07322  -0.069699  0  3.938239  0
C  C58  1  0.49875582  0.15590686  0.71864061  1  0  -0.08372  0  3.748014  0  0  -0.094899  0  4.002328  0  0  -0.100489  0  4.023148  0  0  -0.087996  -0.091291  0  3.987472  0
C  C59  1  0.50124749  0.84409380  0.28136185  1  0  -0.083571  0  3.747895  0  0  -0.094736  0  4.002207  0  0  -0.100333  0  4.023029  0  0  -0.087934  -0.091133  0  3.987353  0
C  C60  1  0.57309331  0.27415887  0.69845853  1  0  -0.041144  0  3.704842  0  0  -0.068933  0  3.9551  0  0  -0.065864  0  3.974992  0  0  -0.077776  -0.069719  0  3.940611  0
C  C61  1  0.42690972  0.72584072  0.30154360  1  0  -0.041207  0  3.704909  0  0  -0.069044  0  3.955166  0  0  -0.065972  0  3.975057  0  0  -0.077808  -0.06983  0  3.940676  0
C  C62  1  0.69931610  0.26925278  0.64515979  1  0  -0.083851  0  3.774752  0  0  -0.058048  0  4.009806  0  0  -0.068924  0  4.034131  0  0  -0.023242  -0.051244  0  3.994156  0
C  C63  1  0.30068474  0.73074681  0.35484016  1  0  -0.083859  0  3.774788  0  0  -0.057982  0  4.009784  0  0  -0.06886  0  4.034112  0  0  -0.023249  -0.051178  0  3.994134  0
C  C64  1  0.77698603  0.39539084  0.62143328  1  0  0.657158  0  3.882977  0  0  0.606124  0  4.170274  0  0  0.640983  0  4.162754  0  0  0.214412  0.582209  0  4.174584  0
C  C65  1  0.22301728  0.60460976  0.37856644  1  0  0.657081  0  3.883049  0  0  0.605987  0  4.170411  0  0  0.640847  0  4.162895  0  0  0.214337  0.582073  0  4.174717  0
C  C66  1  0.75085546  0.14440764  0.61202663  1  0  -0.057016  0  3.675711  0  0  -0.093098  0  3.918576  0  0  -0.08988  0  3.93777  0  0  -0.069369  -0.095639  0  3.906995  0
C  C67  1  0.24914784  0.85559299  0.38797491  1  0  -0.056924  0  3.675707  0  0  -0.093027  0  3.918558  0  0  -0.089812  0  3.937754  0  0  -0.069325  -0.095567  0  3.906976  0
N  N68  1  0.71663256  0.54137746  0.35595403  1  0  -0.342051  0  3.38087  0  0  -0.256215  0  3.66658  0  0  -0.275455  0  3.682571  0  0  -0.340265  -0.242511  0  3.655091  0
N  N69  1  0.28336335  0.45862430  0.64404478  1  0  -0.342013  0  3.380845  0  0  -0.256153  0  3.666512  0  0  -0.275393  0  3.682507  0  0  -0.340244  -0.242451  0  3.655027  0
N  N70  1  0.40576869  0.24314299  0.15289215  1  0  -0.459997  0  3.342441  0  0  -0.405683  0  3.579497  0  0  -0.428831  0  3.589785  0  0  -0.403603  -0.389292  0  3.57187  0
N  N71  1  0.59422666  0.75685671  0.84710874  1  0  -0.459633  0  3.342594  0  0  -0.405349  0  3.579628  0  0  -0.428493  0  3.589918  0  0  -0.403508  -0.388976  0  3.572016  0
O  O72  1  0.66341638  0.78564071  0.62019187  1  0  -0.676835  0  2.069279  0  0  -0.599188  0  2.334618  0  0  -0.628412  0  2.321184  0  0  -0.33367  -0.577274  0  2.344957  0
O  O73  1  0.33658556  0.21435885  0.37980735  1  0  -0.676811  0  2.069185  0  0  -0.599158  0  2.334522  0  0  -0.628385  0  2.321094  0  0  -0.333688  -0.577243  0  2.344858  0
O  O74  1  0.01005487  0.66654185  0.62865086  1  0  -0.795597  0  1.889334  0  0  -0.727251  0  2.088081  0  0  -0.74998  0  2.05302  0  0  -0.568167  -0.711176  0  2.113645  0
O  O75  1  0.98994789  0.33345665  0.37134912  1  0  -0.795661  0  1.88926  0  0  -0.727314  0  2.087993  0  0  -0.750042  0  2.052931  0  0  -0.56819  -0.711238  0  2.113559  0
O  O76  1  0.83412351  0.87985738  0.53430614  1  0  -0.583102  0  1.888624  0  0  -0.531181  0  2.103786  0  0  -0.555347  0  2.094887  0  0  -0.305683  -0.513489  0  2.10933  0
O  O77  1  0.16587706  0.12014111  0.46569166  1  0  -0.583092  0  1.888725  0  0  -0.531167  0  2.103881  0  0  -0.555336  0  2.094987  0  0  -0.305656  -0.513476  0  2.109425  0
O  O78  1  0.90626141  0.39658696  0.59625475  1  0  -0.67435  0  2.048822  0  0  -0.609324  0  2.269226  0  0  -0.635729  0  2.259039  0  0  -0.316886  -0.589974  0  2.274964  0
O  O79  1  0.09374135  0.60341154  0.40374523  1  0  -0.67427  0  2.048855  0  0  -0.609254  0  2.269295  0  0  -0.635657  0  2.259107  0  0  -0.316855  -0.589903  0  2.275029  0
O  O80  1  0.70926443  0.49690889  0.62732577  1  0  -0.636188  0  2.01872  0  0  -0.5667  0  2.280229  0  0  -0.594847  0  2.267365  0  0  -0.320477  -0.546088  0  2.290151  0
O  O81  1  0.29073970  0.50309067  0.37267562  1  0  -0.636224  0  2.018648  0  0  -0.566696  0  2.28016  0  0  -0.594845  0  2.267299  0  0  -0.320468  -0.546086  0  2.290082  0
O  O82  1  0.29929483  0.20212677  0.93392438  1  0  -0.546225  0  1.929365  0  0  -0.504453  0  2.144955  0  0  -0.525434  0  2.139717  0  0  -0.287794  -0.490054  0  2.148085  0
O  O83  1  0.70070542  0.79786667  0.06608382  1  0  -0.546377  0  1.92837  0  0  -0.504572  0  2.143931  0  0  -0.52557  0  2.138709  0  0  -0.287916  -0.490166  0  2.147051  0
