# generated using pymatgen
data_CaH14C16(Cl2O3)3
_symmetry_space_group_name_H-M   'P 1'
_cell_length_a   7.75575412
_cell_length_b   7.89059321
_cell_length_c   19.39939516
_cell_angle_alpha   83.83580096
_cell_angle_beta   82.05520194
_cell_angle_gamma   85.05892439
_symmetry_Int_Tables_number   1
_chemical_formula_structural   CaH14C16(Cl2O3)3
_chemical_formula_sum   'Ca2 H28 C32 Cl12 O18'
_cell_volume   1165.93352133
_cell_formula_units_Z   2
loop_
 _symmetry_equiv_pos_site_id
 _symmetry_equiv_pos_as_xyz
  1  'x, y, z'
loop_
 _atom_site_type_symbol
 _atom_site_label
 _atom_site_symmetry_multiplicity
 _atom_site_fract_x
 _atom_site_fract_y
 _atom_site_fract_z
 _atom_site_occupancy
 _atom_site_hle17_bader_spin_density
 _atom_site_hle17_ddec_charge
 _atom_site_hle17_ddec_spin_density
 _atom_site_hle17_ddec_sum_bond_order
 _atom_site_hle17_magmom
 _atom_site_hse06_10hf_bader_spin_density
 _atom_site_hse06_10hf_ddec_charge
 _atom_site_hse06_10hf_ddec_spin_density
 _atom_site_hse06_10hf_ddec_sum_bond_order
 _atom_site_hse06_10hf_magmom
 _atom_site_hse06_bader_spin_density
 _atom_site_hse06_ddec_charge
 _atom_site_hse06_ddec_spin_density
 _atom_site_hse06_ddec_sum_bond_order
 _atom_site_hse06_magmom
 _atom_site_pbe_bader_spin_density
 _atom_site_pbe_cm5_charge
 _atom_site_pbe_ddec_charge
 _atom_site_pbe_ddec_spin_density
 _atom_site_pbe_ddec_sum_bond_order
 _atom_site_pbe_magmom
Ca  Ca0  1  0.66961073  0.14686236  0.51873091  1  0  1.573702  0  1.048772  0  0  1.442558  0  1.391504  0  0  1.486165  0  1.346355  0  0  0.87758  1.409529  0  1.423834  0
Ca  Ca1  1  0.33040097  0.85313802  0.48126449  1  0  1.57365  0  1.048827  0  0  1.442461  0  1.391579  0  0  1.486072  0  1.346429  0  0  0.877522  1.409431  0  1.423912  0
H  H2  1  0.09061705  0.22808203  0.47791941  1  0  0.405851  0  0.896225  0  0  0.371288  0  0.97201  0  0  0.382649  0  0.955489  0  0  0.294128  0.363256  0  0.983668  0
H  H3  1  0.90938554  0.77190933  0.52208575  1  0  0.405543  0  0.896578  0  0  0.371146  0  0.97211  0  0  0.382495  0  0.955604  0  0  0.29408  0.363114  0  0.983775  0
H  H4  1  0.94039650  0.37032233  0.46677086  1  0  0.392698  0  0.920174  0  0  0.364937  0  0.980365  0  0  0.375664  0  0.964482  0  0  0.28992  0.357352  0  0.991591  0
H  H5  1  0.05960635  0.62966624  0.53323240  1  0  0.392701  0  0.920098  0  0  0.364912  0  0.980396  0  0  0.375639  0  0.964511  0  0  0.289912  0.357329  0  0.991617  0
H  H6  1  0.82296636  0.51987951  0.54680890  1  0  0.427702  0  0.873068  0  0  0.399248  0  0.931374  0  0  0.41036  0  0.915282  0  0  0.293026  0.391313  0  0.942857  0
H  H7  1  0.17703528  0.48010891  0.45319288  1  0  0.427732  0  0.873043  0  0  0.399269  0  0.931366  0  0  0.410388  0  0.915264  0  0  0.293056  0.39133  0  0.942856  0
H  H8  1  0.67954778  0.52142289  0.49775600  1  0  0.416081  0  0.879213  0  0  0.387748  0  0.945723  0  0  0.398087  0  0.930549  0  0  0.304114  0.380354  0  0.956571  0
H  H9  1  0.32044555  0.47857005  0.50225053  1  0  0.416177  0  0.879054  0  0  0.387798  0  0.945675  0  0  0.398135  0  0.930504  0  0  0.304122  0.380394  0  0.956541  0
H  H10  1  0.37921799  0.38921532  0.59924201  1  0  0.454061  0  0.802885  0  0  0.4285  0  0.863325  0  0  0.438575  0  0.848474  0  0  0.328284  0.421173  0  0.874153  0
H  H11  1  0.62079354  0.61075310  0.40076571  1  0  0.453923  0  0.802924  0  0  0.428376  0  0.863462  0  0  0.438445  0  0.848619  0  0  0.328194  0.421044  0  0.874296  0
H  H12  1  0.30160102  0.22654085  0.57135612  1  0  0.431612  0  0.864218  0  0  0.399151  0  0.9297  0  0  0.409764  0  0.914341  0  0  0.308458  0.39158  0  0.940645  0
H  H13  1  0.69841309  0.77343677  0.42864264  1  0  0.431467  0  0.864403  0  0  0.399075  0  0.929808  0  0  0.409669  0  0.914463  0  0  0.308398  0.391508  0  0.940744  0
H  H14  1  0.09617493  0.02358298  0.94099242  1  0  0.120921  0  0.968202  0  0  0.127422  0  1.038105  0  0  0.130975  0  1.035557  0  0  0.093235  0.124847  0  1.040039  0
H  H15  1  0.90381675  0.97644637  0.05900677  1  0  0.120698  0  0.968299  0  0  0.127261  0  1.03812  0  0  0.130797  0  1.035617  0  0  0.093119  0.124697  0  1.040037  0
H  H16  1  0.08472745  0.51558425  0.87860871  1  0  0.12493  0  0.962136  0  0  0.129458  0  1.033317  0  0  0.133378  0  1.030435  0  0  0.094847  0.126616  0  1.03551  0
H  H17  1  0.91526806  0.48443254  0.12140451  1  0  0.125059  0  0.962014  0  0  0.129536  0  1.033225  0  0  0.133457  0  1.030338  0  0  0.094885  0.126692  0  1.035419  0
H  H18  1  0.16655738  0.86673496  0.66339081  1  0  0.099647  0  0.950489  0  0  0.103286  0  1.026884  0  0  0.105496  0  1.02524  0  0  0.110276  0.101716  0  1.028219  0
H  H19  1  0.83343538  0.13324743  0.33661331  1  0  0.099627  0  0.950459  0  0  0.103278  0  1.026816  0  0  0.105493  0  1.025164  0  0  0.110262  0.101704  0  1.028155  0
H  H20  1  0.18228449  0.07947194  0.68309043  1  0  0.076341  0  0.953027  0  0  0.08005  0  1.03028  0  0  0.08246  0  1.027487  0  0  0.096913  0.078322  0  1.032424  0
H  H21  1  0.81771339  0.92051053  0.31691500  1  0  0.07631  0  0.952983  0  0  0.080021  0  1.030247  0  0  0.082426  0  1.027461  0  0  0.096896  0.078292  0  1.032387  0
H  H22  1  0.59849826  0.06311957  0.88085800  1  0  0.125504  0  0.959336  0  0  0.130887  0  1.028402  0  0  0.134834  0  1.025496  0  0  0.09647  0.128011  0  1.03061  0
H  H23  1  0.40149843  0.93686615  0.11914211  1  0  0.125456  0  0.959447  0  0  0.130881  0  1.028402  0  0  0.134834  0  1.025489  0  0  0.096447  0.128003  0  1.030616  0
H  H24  1  0.59582038  0.52102364  0.94385558  1  0  0.122654  0  0.963388  0  0  0.129809  0  1.031755  0  0  0.133417  0  1.02905  0  0  0.095373  0.127226  0  1.033751  0
H  H25  1  0.40417468  0.47895456  0.05613475  1  0  0.122662  0  0.96336  0  0  0.129822  0  1.031707  0  0  0.133431  0  1.029002  0  0  0.095311  0.127235  0  1.033706  0
H  H26  1  0.65326500  0.58637512  0.66699265  1  0  0.092667  0  0.915016  0  0  0.099163  0  0.979983  0  0  0.102187  0  0.976798  0  0  0.103655  0.096897  0  0.982482  0
H  H27  1  0.34676468  0.41364853  0.33300615  1  0  0.092686  0  0.915216  0  0  0.099134  0  0.9802  0  0  0.102141  0  0.977027  0  0  0.103645  0.096892  0  0.982674  0
H  H28  1  0.68030859  0.80831899  0.67204016  1  0  0.101016  0  0.944475  0  0  0.101813  0  1.020828  0  0  0.104825  0  1.018099  0  0  0.107138  0.099647  0  1.022868  0
H  H29  1  0.31968464  0.19171101  0.32795376  1  0  0.100925  0  0.944491  0  0  0.10171  0  1.020885  0  0  0.104709  0  1.018159  0  0  0.107096  0.09951  0  1.022966  0
C  C30  1  0.09431686  0.76279672  0.91621537  1  0  0.163148  0  3.808512  0  0  0.175548  0  4.078792  0  0  0.178501  0  4.100553  0  0  0.009728  0.173315  0  4.064154  0
C  C31  1  0.90568643  0.23723033  0.08378755  1  0  0.163181  0  3.808497  0  0  0.175699  0  4.07863  0  0  0.178629  0  4.100421  0  0  0.009716  0.173468  0  4.063996  0
C  C32  1  0.07592012  0.93998972  0.90223963  1  0  -0.191504  0  3.752092  0  0  -0.228192  0  4.009777  0  0  -0.230891  0  4.029298  0  0  -0.112106  -0.226229  0  3.996707  0
C  C33  1  0.92407898  0.06004367  0.09776206  1  0  -0.191143  0  3.752201  0  0  -0.2279  0  4.009731  0  0  -0.230606  0  4.029298  0  0  -0.111796  -0.225949  0  3.996675  0
C  C34  1  0.06884062  0.65355868  0.86714242  1  0  -0.186212  0  3.729423  0  0  -0.223836  0  3.99014  0  0  -0.226495  0  4.009427  0  0  -0.109782  -0.221944  0  3.977282  0
C  C35  1  0.93115885  0.34646023  0.13286738  1  0  -0.186285  0  3.729555  0  0  -0.223938  0  3.990175  0  0  -0.226597  0  4.009452  0  0  -0.109788  -0.222032  0  3.977329  0
C  C36  1  0.02979080  0.00829673  0.83750748  1  0  0.07606  0  3.800086  0  0  0.083968  0  4.071055  0  0  0.085582  0  4.091593  0  0  0.005042  0.082617  0  4.057338  0
C  C37  1  0.97020296  0.99171850  0.16249198  1  0  0.075974  0  3.800335  0  0  0.083946  0  4.071343  0  0  0.085542  0  4.091898  0  0  0.004945  0.082602  0  4.057616  0
C  C38  1  0.02286410  0.72557886  0.80266099  1  0  0.081937  0  3.770039  0  0  0.087146  0  4.044992  0  0  0.089166  0  4.065311  0  0  0.010918  0.085532  0  4.031404  0
C  C39  1  0.97712511  0.27443995  0.19734672  1  0  0.081762  0  3.769978  0  0  0.087198  0  4.044709  0  0  0.089251  0  4.064982  0  0  0.010822  0.085551  0  4.031172  0
C  C40  1  0.00141759  0.90318823  0.78674981  1  0  0.136193  0  3.795253  0  0  0.115127  0  4.061288  0  0  0.120833  0  4.079164  0  0  0.066286  0.11124  0  4.049304  0
C  C41  1  0.99857395  0.09681713  0.21325294  1  0  0.136273  0  3.795045  0  0  0.11497  0  4.061193  0  0  0.120674  0  4.079062  0  0  0.066278  0.111112  0  4.049221  0
C  C42  1  0.09233250  0.99073023  0.66974357  1  0  -0.083507  0  3.627341  0  0  -0.139473  0  3.893168  0  0  -0.136684  0  3.891527  0  0  -0.070398  -0.141549  0  3.894754  0
C  C43  1  0.90766107  0.00925881  0.33026268  1  0  -0.083624  0  3.627205  0  0  -0.139565  0  3.892975  0  0  -0.136776  0  3.891334  0  0  -0.070456  -0.141617  0  3.894564  0
C  C44  1  0.03139193  0.05719991  0.60037952  1  0  0.723623  0  3.838914  0  0  0.67122  0  4.141708  0  0  0.704934  0  4.131713  0  0  0.235167  0.648085  0  4.147984  0
C  C45  1  0.96861713  0.94279370  0.39962366  1  0  0.723938  0  3.838602  0  0  0.671471  0  4.141547  0  0  0.705182  0  4.131554  0  0  0.235268  0.648343  0  4.14781  0
C  C46  1  0.60211698  0.79448402  0.91874599  1  0  0.162599  0  3.8087  0  0  0.176144  0  4.077727  0  0  0.179035  0  4.099596  0  0  0.010044  0.173953  0  4.063031  0
C  C47  1  0.39788023  0.20549727  0.08124921  1  0  0.16264  0  3.808533  0  0  0.176214  0  4.077531  0  0  0.179101  0  4.099409  0  0  0.010083  0.17402  0  4.062833  0
C  C48  1  0.57944950  0.93448662  0.86959439  1  0  -0.187057  0  3.735636  0  0  -0.225401  0  3.996288  0  0  -0.228122  0  4.016043  0  0  -0.110567  -0.223422  0  3.983104  0
C  C49  1  0.42054447  0.06550396  0.13040297  1  0  -0.186971  0  3.735681  0  0  -0.225317  0  3.996361  0  0  -0.228044  0  4.016114  0  0  -0.110502  -0.223332  0  3.983171  0
C  C50  1  0.57784889  0.62890545  0.90504831  1  0  -0.192896  0  3.754694  0  0  -0.229837  0  4.012484  0  0  -0.23237  0  4.031544  0  0  -0.113197  -0.228004  0  3.999697  0
C  C51  1  0.42214785  0.37108362  0.09494746  1  0  -0.192827  0  3.755134  0  0  -0.229746  0  4.012948  0  0  -0.232275  0  4.032003  0  0  -0.113083  -0.227924  0  4.0002  0
C  C52  1  0.53033814  0.90570898  0.80545479  1  0  0.079016  0  3.764371  0  0  0.084882  0  4.039299  0  0  0.086485  0  4.060044  0  0  0.010578  0.083527  0  4.025498  0
C  C53  1  0.46965520  0.09428968  0.19454571  1  0  0.078966  0  3.764792  0  0  0.084775  0  4.039751  0  0  0.086378  0  4.060491  0  0  0.010537  0.083418  0  4.025949  0
C  C54  1  0.53013585  0.60388319  0.84047517  1  0  0.075608  0  3.803941  0  0  0.083383  0  4.076415  0  0  0.08487  0  4.097151  0  0  0.004836  0.082141  0  4.062561  0
C  C55  1  0.46985160  0.39611902  0.15951094  1  0  0.075537  0  3.804071  0  0  0.083194  0  4.076685  0  0  0.084681  0  4.097419  0  0  0.004739  0.081949  0  4.062826  0
C  C56  1  0.50528924  0.74098167  0.78950707  1  0  0.139288  0  3.804821  0  0  0.117261  0  4.073715  0  0  0.122991  0  4.092103  0  0  0.067239  0.113283  0  4.061407  0
C  C57  1  0.49470230  0.25900635  0.21049004  1  0  0.139401  0  3.804561  0  0  0.117486  0  4.073384  0  0  0.123226  0  4.091764  0  0  0.067393  0.113513  0  4.061061  0
C  C58  1  0.58591718  0.71486580  0.66856993  1  0  -0.071571  0  3.575997  0  0  -0.127615  0  3.839997  0  0  -0.124743  0  3.837668  0  0  -0.068801  -0.129628  0  3.841766  0
C  C59  1  0.41408966  0.28515253  0.33142459  1  0  -0.071387  0  3.575853  0  0  -0.127349  0  3.839642  0  0  -0.124463  0  3.837375  0  0  -0.068723  -0.129384  0  3.841467  0
C  C60  1  0.49547560  0.76116465  0.60373574  1  0  0.706332  0  3.840549  0  0  0.662091  0  4.134722  0  0  0.695521  0  4.126224  0  0  0.218151  0.639275  0  4.139727  0
C  C61  1  0.50453590  0.23883841  0.39626054  1  0  0.706269  0  3.840485  0  0  0.662063  0  4.134596  0  0  0.695481  0  4.1261  0  0  0.218108  0.639261  0  4.139595  0
Cl  Cl62  1  0.14717000  0.67843176  0.99737479  1  0  -0.090436  0  1.39399  0  0  -0.075609  0  1.639086  0  0  -0.079628  0  1.635356  0  0  0.006566  -0.072583  0  1.641735  0
Cl  Cl63  1  0.85284151  0.32160715  0.00263166  1  0  -0.090438  0  1.394004  0  0  -0.075654  0  1.639037  0  0  -0.079662  0  1.635317  0  0  0.006572  -0.072629  0  1.641683  0
Cl  Cl64  1  0.00653441  0.22606821  0.81776552  1  0  -0.08709  0  1.482555  0  0  -0.078805  0  1.73499  0  0  -0.081065  0  1.72828  0  0  -0.001713  -0.077043  0  1.739727  0
Cl  Cl65  1  0.99345945  0.77394684  0.18223239  1  0  -0.087144  0  1.482704  0  0  -0.078901  0  1.735126  0  0  -0.081149  0  1.728423  0  0  -0.001741  -0.077136  0  1.739852  0
Cl  Cl66  1  0.99027380  0.59747878  0.73980908  1  0  -0.032456  0  1.42281  0  0  -0.0143  0  1.665084  0  0  -0.017137  0  1.658389  0  0  0.030221  -0.012125  0  1.669857  0
Cl  Cl67  1  0.00970297  0.40252306  0.26020594  1  0  -0.032417  0  1.422697  0  0  -0.014328  0  1.664863  0  0  -0.017175  0  1.658156  0  0  0.030237  -0.012142  0  1.669646  0
Cl  Cl68  1  0.65946134  0.82385257  0.99949535  1  0  -0.090196  0  1.408241  0  0  -0.075307  0  1.654351  0  0  -0.079362  0  1.650851  0  0  0.00696  -0.072259  0  1.656849  0
Cl  Cl69  1  0.34053228  0.17612132  0.00050203  1  0  -0.090227  0  1.408251  0  0  -0.075345  0  1.654355  0  0  -0.079402  0  1.65085  0  0  0.006945  -0.07229  0  1.656863  0
Cl  Cl70  1  0.49731932  0.07462604  0.74342178  1  0  -0.038849  0  1.442069  0  0  -0.021821  0  1.691858  0  0  -0.023819  0  1.68418  0  0  0.039934  -0.020234  0  1.697306  0
Cl  Cl71  1  0.50267110  0.92537899  0.25657795  1  0  -0.038804  0  1.44215  0  0  -0.021786  0  1.691953  0  0  -0.023778  0  1.684275  0  0  0.039951  -0.0202  0  1.697394  0
Cl  Cl72  1  0.50098725  0.40175104  0.82117035  1  0  -0.083025  0  1.482395  0  0  -0.07528  0  1.735108  0  0  -0.077424  0  1.728341  0  0  -0.000542  -0.07361  0  1.739868  0
Cl  Cl73  1  0.49900431  0.59824726  0.17881581  1  0  -0.0831  0  1.482351  0  0  -0.075357  0  1.735114  0  0  -0.077499  0  1.728346  0  0  -0.000632  -0.073688  0  1.739878  0
O  O74  1  0.94858953  0.97259711  0.72447816  1  0  -0.265128  0  2.369798  0  0  -0.204903  0  2.613128  0  0  -0.218166  0  2.614552  0  0  -0.196914  -0.195633  0  2.612147  0
O  O75  1  0.05140519  0.02739793  0.27552457  1  0  -0.265111  0  2.369627  0  0  -0.204735  0  2.612924  0  0  -0.217992  0  2.614341  0  0  -0.196881  -0.19552  0  2.61197  0
O  O76  1  0.15754885  0.07820751  0.54948497  1  0  -0.75428  0  1.996618  0  0  -0.68231  0  2.231745  0  0  -0.710839  0  2.220072  0  0  -0.342729  -0.661822  0  2.239067  0
O  O77  1  0.84247425  0.92178868  0.45051996  1  0  -0.754252  0  1.99665  0  0  -0.682407  0  2.231845  0  0  -0.710933  0  2.220175  0  0  -0.342825  -0.661926  0  2.239162  0
O  O78  1  0.87309661  0.08897066  0.59494818  1  0  -0.661835  0  1.976555  0  0  -0.607872  0  2.223116  0  0  -0.634188  0  2.211238  0  0  -0.364126  -0.589173  0  2.230816  0
O  O79  1  0.12691901  0.91102849  0.40504815  1  0  -0.661934  0  1.976487  0  0  -0.607962  0  2.223118  0  0  -0.634281  0  2.211239  0  0  -0.364111  -0.589266  0  2.230809  0
O  O80  1  0.44930209  0.71423626  0.72795148  1  0  -0.278281  0  2.351495  0  0  -0.220568  0  2.598346  0  0  -0.234276  0  2.600386  0  0  -0.19852  -0.210832  0  2.596719  0
O  O81  1  0.55070037  0.28577142  0.27203926  1  0  -0.278404  0  2.351485  0  0  -0.220695  0  2.598193  0  0  -0.234416  0  2.600234  0  0  -0.198574  -0.210935  0  2.596557  0
O  O82  1  0.53491042  0.89692109  0.56425813  1  0  -0.76356  0  1.993944  0  0  -0.699582  0  2.247933  0  0  -0.729794  0  2.238292  0  0  -0.406833  -0.67786  0  2.253827  0
O  O83  1  0.46509526  0.10307505  0.43573317  1  0  -0.763556  0  1.993951  0  0  -0.699564  0  2.24791  0  0  -0.729769  0  2.238271  0  0  -0.406757  -0.677847  0  2.253803  0
O  O84  1  0.38264418  0.66664985  0.59024894  1  0  -0.681542  0  1.907462  0  0  -0.629341  0  2.137009  0  0  -0.655539  0  2.126419  0  0  -0.347068  -0.6108  0  2.143808  0
O  O85  1  0.61736358  0.33335067  0.40974716  1  0  -0.681504  0  1.907407  0  0  -0.629412  0  2.137065  0  0  -0.655603  0  2.126478  0  0  -0.347095  -0.610871  0  2.143861  0
O  O86  1  0.05297637  0.32193066  0.44351704  1  0  -0.806756  0  1.820462  0  0  -0.751839  0  1.972503  0  0  -0.771942  0  1.942288  0  0  -0.575518  -0.737595  0  1.993632  0
O  O87  1  0.94702414  0.67805285  0.55648665  1  0  -0.806466  0  1.820672  0  0  -0.751617  0  1.972708  0  0  -0.771713  0  1.942529  0  0  -0.575445  -0.737381  0  1.993826  0
O  O88  1  0.75292453  0.44105147  0.52592520  1  0  -0.888464  0  1.876228  0  0  -0.827234  0  2.050304  0  0  -0.849654  0  2.018769  0  0  -0.605902  -0.811096  0  2.072377  0
O  O89  1  0.24707694  0.55894072  0.47407584  1  0  -0.888556  0  1.876037  0  0  -0.827287  0  2.05013  0  0  -0.849713  0  2.018592  0  0  -0.605901  -0.811139  0  2.072209  0
O  O90  1  0.40114698  0.30041227  0.56673711  1  0  -0.874626  0  1.845675  0  0  -0.813032  0  2.026706  0  0  -0.834675  0  1.994628  0  0  -0.590396  -0.797417  0  2.04933  0
O  O91  1  0.59886418  0.69957063  0.43326250  1  0  -0.874329  0  1.845888  0  0  -0.812761  0  2.026761  0  0  -0.834374  0  1.994756  0  0  -0.590203  -0.797151  0  2.049372  0
