# generated using pymatgen
data_AlH15C21(N2O3)2
_symmetry_space_group_name_H-M   'P 1'
_cell_length_a   4.11387435
_cell_length_b   23.36949606
_cell_length_c   23.36936001
_cell_angle_alpha   119.99928429
_cell_angle_beta   90.00022223
_cell_angle_gamma   89.99929249
_symmetry_Int_Tables_number   1
_chemical_formula_structural   AlH15C21(N2O3)2
_chemical_formula_sum   'Al3 H45 C63 N12 O18'
_cell_volume   1945.72273256
_cell_formula_units_Z   3
loop_
 _symmetry_equiv_pos_site_id
 _symmetry_equiv_pos_as_xyz
  1  'x, y, z'
loop_
 _atom_site_type_symbol
 _atom_site_label
 _atom_site_symmetry_multiplicity
 _atom_site_fract_x
 _atom_site_fract_y
 _atom_site_fract_z
 _atom_site_occupancy
 _atom_site_pbe_bader_charge
 _atom_site_pbe_bader_spin_density
 _atom_site_pbe_cm5_charge
 _atom_site_pbe_ddec_charge
 _atom_site_pbe_ddec_spin_density
 _atom_site_pbe_ddec_sum_bond_order
 _atom_site_pbe_magmom
Al  Al0  1  0.99885865  0.99966151  0.49983557  1  2.506479  0  0.437023  1.607459  0  2.564408  0
Al  Al1  1  0.99882234  0.33350377  0.16648449  1  2.506195  0  0.436891  1.607824  0  2.563961  0
Al  Al2  1  0.99878652  0.66681873  0.83366406  1  2.506154  0  0.436947  1.607554  0  2.564377  0
H  H3  1  0.19589496  0.86742916  0.91848880  1  0.083564  0  0.105467  0.109951  0  0.982408  0
H  H4  1  0.19663993  0.97448395  0.92123957  1  0.053992  0  0.096447  0.103742  0  1.048715  0
H  H5  1  0.79394894  0.88976285  0.74691132  1  0.04231  0  0.101443  0.11653  0  1.043342  0
H  H6  1  0.79392797  0.02379513  0.94357048  1  0.041543  0  0.101365  0.116437  0  1.043456  0
H  H7  1  0.19595956  0.21770591  0.96587499  1  0.083015  0  0.105495  0.109881  0  0.982545  0
H  H8  1  0.19667667  0.11339632  0.85882868  1  0.061984  0  0.096321  0.103647  0  1.048766  0
H  H9  1  0.79402152  0.08640762  0.80952875  1  0.041769  0  0.101365  0.116347  0  1.043587  0
H  H10  1  0.19594097  0.91483606  0.61562024  1  0.048794  0  0.105535  0.109966  0  0.982556  0
H  H11  1  0.19665202  0.91208834  0.71992858  1  0.060025  0  0.096352  0.103612  0  1.048745  0
H  H12  1  0.80601797  0.41798873  0.36710680  1  0.077074  0  0.105907  0.111038  0  0.981727  0
H  H13  1  0.80492035  0.42086141  0.47421420  1  0.058226  0  0.096389  0.103649  0  1.048858  0
H  H14  1  0.20701468  0.24663139  0.38970044  1  0.041172  0  0.101404  0.116554  0  1.043057  0
H  H15  1  0.20701900  0.44361212  0.52357833  1  0.039963  0  0.101384  0.11643  0  1.042994  0
H  H16  1  0.80594971  0.46619635  0.71753783  1  0.079651  0  0.10586  0.111025  0  0.981606  0
H  H17  1  0.80485600  0.35909100  0.61330439  1  0.057516  0  0.096375  0.103582  0  1.04882  0
H  H18  1  0.20698307  0.30973539  0.58668039  1  0.068938  0  0.101412  0.116546  0  1.043153  0
H  H19  1  0.80604368  0.11578494  0.41533355  1  0.053856  0  0.105915  0.111023  0  0.981811  0
H  H20  1  0.80494614  0.22001801  0.41245406  1  0.058146  0  0.096347  0.103576  0  1.048629  0
H  H21  1  0.80650472  0.44923417  0.08220886  1  0.056558  0  0.105845  0.110287  0  0.982872  0
H  H22  1  0.80473142  0.55342910  0.07920920  1  0.058557  0  0.09623  0.103542  0  1.04886  0
H  H23  1  0.20666626  0.64309744  0.25342552  1  0.066776  0  0.101302  0.116253  0  1.043178  0
H  H24  1  0.20664682  0.57992050  0.05634991  1  0.039504  0  0.101306  0.116317  0  1.043094  0
H  H25  1  0.80645228  0.75112818  0.03368171  1  0.075155  0  0.105801  0.110185  0  0.98276  0
H  H26  1  0.80470077  0.75413343  0.14087820  1  0.059544  0  0.096378  0.103653  0  1.048795  0
H  H27  1  0.20661711  0.77700440  0.19025043  1  0.038884  0  0.101371  0.116356  0  1.043131  0
H  H28  1  0.80657847  0.79965976  0.38410713  1  0.075888  0  0.105848  0.110246  0  0.982824  0
H  H29  1  0.80479442  0.69246847  0.27991770  1  0.059326  0  0.096327  0.103775  0  1.048817  0
H  H30  1  0.96646789  0.74310441  0.75033515  1  0.447483  0  0.292358  0.294422  0  0.991395  0
H  H31  1  0.00572202  0.78399300  0.70931881  1  0.422914  0  0.301551  0.297999  0  0.937604  0
H  H32  1  0.96650232  0.17389039  0.09021449  1  0.451543  0  0.292303  0.294317  0  0.991696  0
H  H33  1  0.00574860  0.09198507  0.04933908  1  0.424057  0  0.301595  0.298064  0  0.937691  0
H  H34  1  0.96653131  0.08299098  0.65944971  1  0.454314  0  0.292404  0.294553  0  0.991575  0
H  H35  1  0.00578681  0.12400351  0.74135428  1  0.421685  0  0.301592  0.298046  0  0.937824  0
H  H36  1  0.03531833  0.24990315  0.24287546  1  0.452587  0  0.292158  0.29427  0  0.991001  0
H  H37  1  0.99515994  0.20894606  0.28380798  1  0.423183  0  0.301554  0.298804  0  0.936753  0
H  H38  1  0.03527232  0.59043710  0.67367336  1  0.447688  0  0.292233  0.294372  0  0.99098  0
H  H39  1  0.99515875  0.54950556  0.59178109  1  0.423972  0  0.301706  0.299035  0  0.936177  0
H  H40  1  0.03530341  0.15964615  0.58342329  1  0.459476  0  0.292183  0.294318  0  0.991053  0
H  H41  1  0.99513100  0.24153579  0.62437344  1  0.424476  0  0.301698  0.299025  0  0.936584  0
H  H42  1  0.03971938  0.49301218  0.25084737  1  0.461358  0  0.293255  0.296359  0  0.986884  0
H  H43  1  0.99386132  0.57477188  0.29078410  1  0.423954  0  0.300958  0.297947  0  0.937638  0
H  H44  1  0.03967741  0.58248111  0.90883478  1  0.461945  0  0.293296  0.296422  0  0.986737  0
H  H45  1  0.99383578  0.54255403  0.95066885  1  0.421361  0  0.30089  0.297734  0  0.937857  0
H  H46  1  0.03970041  0.92451164  0.34032560  1  0.456684  0  0.293285  0.296339  0  0.986917  0
H  H47  1  0.99381858  0.88267870  0.25856707  1  0.421101  0  0.300984  0.297894  0  0.937645  0
C  C48  1  0.49759603  0.91202022  0.41138622  1  1.560554  0  0.285845  0.702288  0  4.011559  0
C  C49  1  0.50173312  0.00008947  0.58833955  1  1.542544  0  0.285573  0.702927  0  4.009595  0
C  C50  1  0.49713970  0.08854505  0.50055926  1  1.577277  0  0.285247  0.703205  0  4.009619  0
C  C51  1  0.50170427  0.24499486  0.07841664  1  1.532499  0  0.28563  0.703069  0  4.009043  0
C  C52  1  0.49755455  0.42195575  0.16729424  1  1.581255  0  0.286057  0.702943  0  4.010786  0
C  C53  1  0.49710652  0.33277636  0.25464471  1  1.579404  0  0.285015  0.702991  0  4.009871  0
C  C54  1  0.50164866  0.75488924  0.83322666  1  1.582096  0  0.285929  0.703933  0  4.009128  0
C  C55  1  0.49752040  0.66602304  0.92131574  1  1.579932  0  0.286109  0.70294  0  4.010995  0
C  C56  1  0.49707908  0.57866569  0.74477905  1  1.564231  0  0.28524  0.703306  0  4.010214  0
C  C57  1  0.33433320  0.87288859  0.88168857  1  -0.053301  0  -0.090108  -0.070327  0  4.043369  0
C  C58  1  0.32981955  0.93291469  0.88287343  1  0.056316  0  -0.11663  -0.21462  0  4.042736  0
C  C59  1  0.49259964  0.93930205  0.83350451  1  0.28232  0  0.092712  0.209101  0  4.037768  0
C  C60  1  0.66253570  0.88489807  0.78465308  1  0.004732  0  -0.113028  -0.304793  0  3.962849  0
C  C61  1  0.67816783  0.82465958  0.78404345  1  0.359222  0  0.094039  0.291252  0  4.101744  0
C  C62  1  0.50570343  0.81867267  0.83309239  1  -0.020145  0  -0.037297  -0.191007  0  3.973289  0
C  C63  1  0.66255159  0.06640522  0.94842724  1  0.060647  0  -0.112934  -0.304722  0  3.962936  0
C  C64  1  0.67822495  0.12603818  0.00865930  1  0.372859  0  0.093879  0.291244  0  4.101583  0
C  C65  1  0.50577252  0.18107121  0.01463379  1  -0.011654  0  -0.037213  -0.190714  0  3.972828  0
C  C66  1  0.33438767  0.17544636  0.96042207  1  -0.001541  0  -0.09014  -0.070375  0  4.04413  0
C  C67  1  0.32985562  0.11660610  0.90039893  1  0.031851  0  -0.116546  -0.21441  0  4.042439  0
C  C68  1  0.49261891  0.06084558  0.89402056  1  0.235286  0  0.092746  0.208985  0  4.037579  0
C  C69  1  0.66259151  0.04866567  0.76692235  1  0.061817  0  -0.112903  -0.304622  0  3.962885  0
C  C70  1  0.67823301  0.04927730  0.70729493  1  0.37944  0  0.093849  0.291261  0  4.101663  0
C  C71  1  0.50578354  0.00022481  0.65226068  1  -0.023163  0  -0.037165  -0.190508  0  3.972942  0
C  C72  1  0.33438629  0.95163624  0.65788126  1  0.027776  0  -0.09021  -0.070607  0  4.044223  0
C  C73  1  0.32984625  0.95044839  0.71671901  1  -0.004175  0  -0.116509  -0.214353  0  4.042592  0
C  C74  1  0.49262358  0.99982145  0.77247850  1  0.270773  0  0.092813  0.209074  0  4.037686  0
C  C75  1  0.66733254  0.38123432  0.37259697  1  -0.003617  0  -0.090185  -0.070245  0  4.042588  0
C  C76  1  0.67165999  0.38249891  0.43265882  1  -0.022564  0  -0.11566  -0.213172  0  4.041555  0
C  C77  1  0.50827322  0.33326708  0.43918341  1  0.263878  0  0.092136  0.207732  0  4.037903  0
C  C78  1  0.33847575  0.28434740  0.38479684  1  0.070149  0  -0.112594  -0.304379  0  3.962684  0
C  C79  1  0.32299578  0.28367052  0.32452471  1  0.348949  0  0.093395  0.290729  0  4.102282  0
C  C80  1  0.49541783  0.33267359  0.31845224  1  -0.017951  0  -0.037001  -0.189713  0  3.9722  0
C  C81  1  0.33846717  0.44851798  0.56620479  1  0.060143  0  -0.112737  -0.304439  0  3.96298  0
C  C82  1  0.32297911  0.50878607  0.62579544  1  0.3729  0  0.093456  0.290818  0  4.102881  0
C  C83  1  0.49538633  0.51485576  0.68086880  1  -0.025011  0  -0.037001  -0.189941  0  3.972808  0
C  C84  1  0.66727966  0.46071396  0.67529192  1  -0.0191  0  -0.090187  -0.070264  0  4.042796  0
C  C85  1  0.67162737  0.40064868  0.61649208  1  -0.004731  0  -0.115563  -0.212982  0  4.04154  0
C  C86  1  0.50826273  0.39413045  0.56073843  1  0.280067  0  0.092485  0.208172  0  4.037692  0
C  C87  1  0.33845875  0.26711469  0.54896946  1  0.031019  0  -0.112744  -0.304457  0  3.963077  0
C  C88  1  0.32300582  0.20752353  0.54965096  1  0.363289  0  0.093407  0.290583  0  4.10296  0
C  C89  1  0.49544319  0.15245161  0.50065188  1  -0.01877  0  -0.037057  -0.189795  0  3.972423  0
C  C90  1  0.66736312  0.15803091  0.45209015  1  0.027044  0  -0.090249  -0.07025  0  4.042716  0
C  C91  1  0.67167328  0.21682768  0.45082178  1  -0.016979  0  -0.115616  -0.213081  0  4.041431  0
C  C92  1  0.50827846  0.27258156  0.50004775  1  0.267518  0  0.092517  0.208051  0  4.038012  0
C  C93  1  0.66762726  0.49147190  0.11890781  1  0.024592  0  -0.090407  -0.070532  0  4.044584  0
C  C94  1  0.67158739  0.55023261  0.11757965  1  -0.01604  0  -0.115708  -0.213516  0  4.042221  0
C  C95  1  0.50782309  0.60595014  0.16676581  1  0.265377  0  0.092412  0.208024  0  4.038275  0
C  C96  1  0.33829993  0.60050099  0.21571858  1  0.033734  0  -0.112692  -0.303787  0  3.963009  0
C  C97  1  0.32358111  0.54096784  0.21650553  1  0.363483  0  0.092934  0.289994  0  4.102888  0
C  C98  1  0.49597716  0.48591903  0.16750387  1  -0.029945  0  -0.03672  -0.189637  0  3.973052  0
C  C99  1  0.33828535  0.61762657  0.05145711  1  0.073296  0  -0.112692  -0.303823  0  3.963009  0
C  C100  1  0.32355551  0.61683243  0.99113074  1  0.37417  0  0.092867  0.289888  0  4.103095  0
C  C101  1  0.49593624  0.66582744  0.98507146  1  -0.045671  0  -0.036887  -0.189973  0  3.973265  0
C  C102  1  0.66756995  0.71443081  0.03922695  1  0.001815  0  -0.090185  -0.070015  0  4.043914  0
C  C103  1  0.67153278  0.71576462  0.09931799  1  -0.02679  0  -0.115984  -0.213907  0  4.042542  0
C  C104  1  0.50779355  0.66658231  0.10585554  1  0.261571  0  0.092384  0.208014  0  4.038513  0
C  C105  1  0.33828405  0.78189175  0.23284406  1  0.055581  0  -0.112626  -0.303802  0  3.962999  0
C  C106  1  0.32357141  0.84221685  0.29237855  1  0.386595  0  0.092797  0.289726  0  4.103339  0
C  C107  1  0.49597621  0.84827013  0.34742810  1  -0.036156  0  -0.036778  -0.189589  0  3.973219  0
C  C108  1  0.66765076  0.79411888  0.34187437  1  -0.01575  0  -0.090306  -0.070127  0  4.043908  0
C  C109  1  0.67159496  0.73402893  0.28311459  1  -0.008368  0  -0.115844  -0.214081  0  4.042468  0
C  C110  1  0.50780979  0.72749177  0.22739785  1  0.281289  0  0.09234  0.208074  0  4.038076  0
N  N111  1  0.48639168  0.99999002  0.83333429  1  -1.169994  0  -0.245462  -0.144794  0  3.59455  0
N  N112  1  0.51388418  0.33332530  0.49998864  1  -1.172369  0  -0.24482  -0.143998  0  3.594477  0
N  N113  1  0.51301801  0.66667500  0.16667251  1  -1.171775  0  -0.246109  -0.144588  0  3.5963  0
N  N114  1  0.84862161  0.77134063  0.73472061  1  -1.187455  0  -0.606722  -0.622617  0  3.259467  0
N  N115  1  0.84865599  0.13003879  0.06198226  1  -1.211594  0  -0.60659  -0.622539  0  3.259939  0
N  N116  1  0.84868370  0.09860015  0.70329980  1  -1.213586  0  -0.606747  -0.622865  0  3.26017  0
N  N117  1  0.15264412  0.23431712  0.27118377  1  -1.195412  0  -0.606409  -0.623587  0  3.259779  0
N  N118  1  0.15261963  0.56212852  0.62978139  1  -1.203421  0  -0.60662  -0.623895  0  3.259377  0
N  N119  1  0.15261725  0.20354254  0.59900808  1  -1.220104  0  -0.606604  -0.623831  0  3.259874  0
N  N120  1  0.15395581  0.53713786  0.26603342  1  -1.215367  0  -0.607024  -0.625955  0  3.256821  0
N  N121  1  0.15392823  0.56730078  0.93777806  1  -1.203528  0  -0.607021  -0.625796  0  3.256997  0
N  N122  1  0.15393388  0.89556856  0.29620034  1  -1.207527  0  -0.607091  -0.625819  0  3.256984  0
O  O123  1  0.73439364  0.07739909  0.52918048  1  -1.261985  0  -0.234154  -0.608351  0  2.363029  0
O  O124  1  0.73419168  0.95189413  0.42244461  1  -1.257872  0  -0.232685  -0.604851  0  2.35486  0
O  O125  1  0.73540537  0.97136350  0.54812825  1  -1.260462  0  -0.236055  -0.603615  0  2.33912  0
O  O126  1  0.26177627  0.04874420  0.47202063  1  -1.260555  0  -0.237753  -0.606371  0  2.345753  0
O  O127  1  0.26350644  0.02873441  0.57752577  1  -1.255881  0  -0.233571  -0.606696  0  2.361942  0
O  O128  1  0.26283685  0.92306549  0.45123458  1  -1.249469  0  -0.235839  -0.602153  0  2.337069  0
O  O129  1  0.26175791  0.36131419  0.24338091  1  -1.255559  0  -0.237568  -0.606184  0  2.345759  0
O  O130  1  0.26345447  0.25581232  0.11787065  1  -1.255264  0  -0.233577  -0.6068  0  2.361955  0
O  O131  1  0.26278667  0.38211196  0.13849132  1  -1.258649  0  -0.235817  -0.602439  0  2.336991  0
O  O132  1  0.73436275  0.30415631  0.21487751  1  -1.267937  0  -0.234147  -0.608465  0  2.363068  0
O  O133  1  0.73415461  0.41089230  0.19610767  1  -1.262024  0  -0.232809  -0.605265  0  2.35494  0
O  O134  1  0.73536836  0.28520762  0.08989787  1  -1.255125  0  -0.236058  -0.603758  0  2.338851  0
O  O135  1  0.26173407  0.58992517  0.78457924  1  -1.252871  0  -0.237669  -0.606257  0  2.345899  0
O  O136  1  0.26344361  0.71543197  0.80458494  1  -1.264343  0  -0.233769  -0.607187  0  2.361926  0
O  O137  1  0.26273815  0.69481386  0.91026195  1  -1.252705  0  -0.235919  -0.602377  0  2.337208  0
O  O138  1  0.73434806  0.61843022  0.75592373  1  -1.261369  0  -0.234242  -0.608488  0  2.363008  0
O  O139  1  0.73410087  0.63720042  0.88143788  1  -1.26639  0  -0.23275  -0.605124  0  2.354725  0
O  O140  1  0.73531962  0.74340603  0.86195236  1  -1.257624  0  -0.236159  -0.603997  0  2.339016  0
