# generated using pymatgen
data_ZnH7C9SN2O3F
_symmetry_space_group_name_H-M   'P 1'
_cell_length_a   6.10212996
_cell_length_b   8.08836785
_cell_length_c   23.22600398
_cell_angle_alpha   87.16110618
_cell_angle_beta   82.46578786
_cell_angle_gamma   67.86843045
_symmetry_Int_Tables_number   1
_chemical_formula_structural   ZnH7C9SN2O3F
_chemical_formula_sum   'Zn4 H28 C36 S4 N8 O12 F4'
_cell_volume   1052.71978612
_cell_formula_units_Z   4
loop_
 _symmetry_equiv_pos_site_id
 _symmetry_equiv_pos_as_xyz
  1  'x, y, z'
loop_
 _atom_site_type_symbol
 _atom_site_label
 _atom_site_symmetry_multiplicity
 _atom_site_fract_x
 _atom_site_fract_y
 _atom_site_fract_z
 _atom_site_occupancy
 _atom_site_hle17_bader_spin_density
 _atom_site_hle17_ddec_charge
 _atom_site_hle17_ddec_spin_density
 _atom_site_hle17_ddec_sum_bond_order
 _atom_site_hle17_magmom
 _atom_site_hse06_10hf_bader_spin_density
 _atom_site_hse06_10hf_ddec_charge
 _atom_site_hse06_10hf_ddec_spin_density
 _atom_site_hse06_10hf_ddec_sum_bond_order
 _atom_site_hse06_10hf_magmom
 _atom_site_hse06_bader_spin_density
 _atom_site_hse06_ddec_charge
 _atom_site_hse06_ddec_spin_density
 _atom_site_hse06_ddec_sum_bond_order
 _atom_site_hse06_magmom
 _atom_site_pbe_bader_spin_density
 _atom_site_pbe_cm5_charge
 _atom_site_pbe_ddec_charge
 _atom_site_pbe_ddec_spin_density
 _atom_site_pbe_ddec_sum_bond_order
 _atom_site_pbe_magmom
Zn  Zn0  1  0.48399598  0.62628610  0.75097946  1  0  1.148679  0  1.74984  0  0  0.970523  0  2.220281  0  0  1.021371  0  2.154359  0  0  0.653605  0.934721  0  2.265913  0
Zn  Zn1  1  0.86367585  0.37320822  0.24900789  1  0  1.148643  0  1.750095  0  0  0.970556  0  2.220818  0  0  1.021435  0  2.154776  0  0  0.653242  0.934663  0  2.266593  0
Zn  Zn2  1  0.98455997  0.12615641  0.74923485  1  0  1.149086  0  1.750197  0  0  0.97119  0  2.220647  0  0  1.022005  0  2.154712  0  0  0.653644  0.93539  0  2.266297  0
Zn  Zn3  1  0.86105020  0.87363018  0.25065681  1  0  1.148767  0  1.750955  0  0  0.971028  0  2.221476  0  0  1.021808  0  2.15556  0  0  0.653613  0.935194  0  2.267226  0
H  H4  1  0.70480641  0.72371855  0.15337704  1  0  0.16936  0  0.958817  0  0  0.1724  0  1.02381  0  0  0.176993  0  1.020017  0  0  0.118403  0.16896  0  1.026756  0
H  H5  1  0.58109627  0.27577377  0.84641137  1  0  0.170037  0  0.959288  0  0  0.172947  0  1.024469  0  0  0.177535  0  1.020702  0  0  0.118355  0.169494  0  1.027457  0
H  H6  1  0.60747543  0.22592421  0.34697991  1  0  0.170686  0  0.957484  0  0  0.173781  0  1.022081  0  0  0.178377  0  1.018261  0  0  0.119184  0.170304  0  1.025127  0
H  H7  1  0.17654493  0.77508950  0.65323008  1  0  0.170233  0  0.957332  0  0  0.172893  0  1.02266  0  0  0.177505  0  1.018826  0  0  0.118685  0.169415  0  1.025692  0
H  H8  1  0.89411154  0.62105511  0.93181333  1  0  0.106392  0  0.957396  0  0  0.117564  0  1.018059  0  0  0.120174  0  1.018421  0  0  0.103037  0.115669  0  1.017962  0
H  H9  1  0.44902072  0.37795072  0.06811179  1  0  0.106008  0  0.956747  0  0  0.116916  0  1.01791  0  0  0.119529  0  1.018275  0  0  0.102705  0.115055  0  1.017789  0
H  H10  1  0.57497083  0.12119331  0.56850193  1  0  0.106313  0  0.957509  0  0  0.116891  0  1.019018  0  0  0.119496  0  1.019327  0  0  0.103014  0.115094  0  1.018779  0
H  H11  1  0.26222222  0.87989776  0.43184946  1  0  0.106008  0  0.958346  0  0  0.117448  0  1.018652  0  0  0.120073  0  1.018989  0  0  0.102779  0.115594  0  1.018523  0
H  H12  1  0.86898151  0.58580191  0.82759268  1  0  0.088816  0  0.956809  0  0  0.096025  0  1.023216  0  0  0.099152  0  1.019885  0  0  0.117516  0.093626  0  1.025764  0
H  H13  1  0.28556360  0.41252357  0.17236185  1  0  0.088035  0  0.957113  0  0  0.095064  0  1.023648  0  0  0.098129  0  1.020394  0  0  0.117393  0.092724  0  1.026162  0
H  H14  1  0.44544026  0.08552521  0.67267252  1  0  0.089015  0  0.956627  0  0  0.095888  0  1.023273  0  0  0.098949  0  1.020045  0  0  0.117429  0.093562  0  1.025767  0
H  H15  1  0.20305584  0.91480258  0.32753503  1  0  0.088441  0  0.956699  0  0  0.096004  0  1.022783  0  0  0.099138  0  1.019438  0  0  0.117582  0.093634  0  1.025319  0
H  H16  1  0.13117188  0.79265365  0.85263865  1  0  0.092397  0  0.931359  0  0  0.101544  0  0.99191  0  0  0.104238  0  0.989362  0  0  0.120951  0.09948  0  0.993942  0
H  H17  1  0.77771687  0.20727110  0.14739008  1  0  0.092846  0  0.932865  0  0  0.102049  0  0.993035  0  0  0.104721  0  0.990477  0  0  0.121297  0.100025  0  0.995013  0
H  H18  1  0.73281646  0.29230797  0.64741289  1  0  0.093003  0  0.932288  0  0  0.102178  0  0.992482  0  0  0.104874  0  0.989905  0  0  0.121151  0.100125  0  0.994481  0
H  H19  1  0.67189214  0.70783835  0.35230761  1  0  0.092948  0  0.932084  0  0  0.102616  0  0.991598  0  0  0.105316  0  0.989031  0  0  0.121374  0.100552  0  0.993631  0
H  H20  1  0.12354968  0.84261542  0.95885668  1  0  0.116391  0  0.944631  0  0  0.121927  0  1.01295  0  0  0.126203  0  1.010002  0  0  0.107974  0.118887  0  1.01515  0
H  H21  1  0.92532171  0.15763456  0.04115458  1  0  0.116535  0  0.944074  0  0  0.122102  0  1.012356  0  0  0.126339  0  1.009441  0  0  0.107884  0.1191  0  1.014536  0
H  H22  1  0.83173945  0.34249426  0.54123128  1  0  0.116246  0  0.945032  0  0  0.121604  0  1.013581  0  0  0.125874  0  1.010651  0  0  0.107463  0.118554  0  1.015797  0
H  H23  1  0.71323698  0.65810300  0.45857273  1  0  0.11735  0  0.943983  0  0  0.122616  0  1.012642  0  0  0.12692  0  1.009664  0  0  0.108086  0.119547  0  1.014875  0
H  H24  1  0.06998747  0.59251287  0.73749785  1  0  0.437038  0  0.862364  0  0  0.403294  0  0.929556  0  0  0.414127  0  0.913865  0  0  0.294155  0.395673  0  0.940585  0
H  H25  1  0.40239797  0.40727881  0.26248650  1  0  0.437088  0  0.862458  0  0  0.404103  0  0.928538  0  0  0.414933  0  0.912832  0  0  0.294133  0.396464  0  0.939607  0
H  H26  1  0.55732005  0.09214481  0.76249864  1  0  0.436808  0  0.862845  0  0  0.403646  0  0.92913  0  0  0.414452  0  0.913479  0  0  0.293811  0.396037  0  0.940135  0
H  H27  1  0.41297704  0.90766551  0.23756390  1  0  0.436652  0  0.863181  0  0  0.403786  0  0.929024  0  0  0.414606  0  0.913361  0  0  0.294326  0.396184  0  0.940024  0
H  H28  1  0.24177217  0.40796289  0.76595296  1  0  0.433568  0  0.869056  0  0  0.400181  0  0.935786  0  0  0.410896  0  0.920338  0  0  0.292617  0.392626  0  0.946672  0
H  H29  1  0.41822155  0.59178634  0.23399483  1  0  0.434151  0  0.868362  0  0  0.401377  0  0.934025  0  0  0.41206  0  0.918612  0  0  0.292985  0.393858  0  0.944869  0
H  H30  1  0.75752170  0.90734611  0.73408707  1  0  0.435359  0  0.866797  0  0  0.402383  0  0.932832  0  0  0.413078  0  0.91739  0  0  0.293306  0.394836  0  0.943719  0
H  H31  1  0.40070157  0.09222709  0.26605982  1  0  0.434647  0  0.867675  0  0  0.401944  0  0.933241  0  0  0.412642  0  0.91781  0  0  0.293604  0.394408  0  0.944102  0
C  C32  1  0.19174164  0.81719180  0.16173190  1  0  0.630921  0  3.896755  0  0  0.576251  0  4.187711  0  0  0.610337  0  4.181552  0  0  0.211331  0.553163  0  4.191225  0
C  C33  1  0.16954447  0.18269905  0.83829007  1  0  0.630708  0  3.898126  0  0  0.57543  0  4.18944  0  0  0.609494  0  4.183283  0  0  0.210865  0.552339  0  4.192963  0
C  C34  1  0.10312317  0.31765166  0.33843561  1  0  0.629923  0  3.898766  0  0  0.575223  0  4.189613  0  0  0.609275  0  4.183457  0  0  0.209768  0.552139  0  4.193137  0
C  C35  1  0.75650672  0.68249434  0.66158101  1  0  0.630602  0  3.898991  0  0  0.575621  0  4.19017  0  0  0.609723  0  4.184034  0  0  0.210912  0.552535  0  4.193671  0
C  C36  1  0.37660404  0.77914579  0.11056048  1  0  0.04788  0  3.805417  0  0  0.057194  0  4.06187  0  0  0.051002  0  4.08529  0  0  0.076143  0.061004  0  4.04607  0
C  C37  1  0.26565481  0.22066313  0.88941554  1  0  0.048021  0  3.805475  0  0  0.058324  0  4.060644  0  0  0.052074  0  4.084139  0  0  0.075898  0.062114  0  4.044922  0
C  C38  1  0.23670833  0.27992448  0.38964081  1  0  0.04833  0  3.805693  0  0  0.058229  0  4.061198  0  0  0.05205  0  4.084569  0  0  0.076381  0.061977  0  4.045511  0
C  C39  1  0.90307865  0.72073059  0.61038813  1  0  0.047893  0  3.806608  0  0  0.057955  0  4.062221  0  0  0.051696  0  4.085756  0  0  0.076132  0.06175  0  4.046465  0
C  C40  1  0.61602827  0.73830678  0.11468361  1  0  -0.16  0  3.583729  0  0  -0.188453  0  3.856525  0  0  -0.186989  0  3.872526  0  0  -0.072465  -0.189064  0  3.845918  0
C  C41  1  0.46852171  0.26134328  0.88518263  1  0  -0.161194  0  3.585237  0  0  -0.189835  0  3.857528  0  0  -0.18841  0  3.873623  0  0  -0.072737  -0.190431  0  3.846903  0
C  C42  1  0.48000844  0.23976178  0.38561785  1  0  -0.160913  0  3.584904  0  0  -0.189373  0  3.857178  0  0  -0.18794  0  3.873253  0  0  -0.072468  -0.189951  0  3.84654  0
C  C43  1  0.10188057  0.76129435  0.61451198  1  0  -0.161319  0  3.583856  0  0  -0.189621  0  3.856843  0  0  -0.188155  0  3.872879  0  0  -0.072656  -0.190217  0  3.846223  0
C  C44  1  0.51001471  0.74869759  0.01679028  1  0  0.093605  0  3.7681  0  0  0.088319  0  4.051623  0  0  0.094929  0  4.067915  0  0  0.11195  0.084166  0  4.039953  0
C  C45  1  0.27567247  0.25134233  0.98314810  1  0  0.095915  0  3.764796  0  0  0.089657  0  4.049623  0  0  0.096221  0  4.065955  0  0  0.112449  0.085502  0  4.037961  0
C  C46  1  0.27610936  0.24890461  0.48343916  1  0  0.096548  0  3.766883  0  0  0.090131  0  4.050758  0  0  0.096712  0  4.067091  0  0  0.112848  0.085968  0  4.039095  0
C  C47  1  0.00551638  0.75195847  0.51662865  1  0  0.096242  0  3.766339  0  0  0.089742  0  4.051364  0  0  0.096397  0  4.067624  0  0  0.112544  0.085561  0  4.039712  0
C  C48  1  0.50846635  0.73394362  0.95447511  1  0  0.078382  0  3.823435  0  0  0.08722  0  4.063518  0  0  0.09098  0  4.084823  0  0  0.00568  0.084836  0  4.048767  0
C  C49  1  0.19769290  0.26592710  0.04547497  1  0  0.07765  0  3.824133  0  0  0.086467  0  4.064571  0  0  0.090259  0  4.08587  0  0  0.004974  0.084074  0  4.049828  0
C  C50  1  0.21208583  0.23383956  0.54572236  1  0  0.077151  0  3.826445  0  0  0.087749  0  4.063987  0  0  0.091532  0  4.085268  0  0  0.00532  0.085347  0  4.049297  0
C  C51  1  0.98929680  0.76692280  0.45432176  1  0  0.076881  0  3.826782  0  0  0.086385  0  4.066569  0  0  0.0901  0  4.08793  0  0  0.005068  0.084029  0  4.051791  0
C  C52  1  0.72003574  0.66378412  0.91630804  1  0  -0.164053  0  3.710753  0  0  -0.183724  0  3.959581  0  0  -0.19115  0  3.980432  0  0  -0.089282  -0.178857  0  3.945634  0
C  C53  1  0.30190738  0.33546843  0.08362238  1  0  -0.1636  0  3.709589  0  0  -0.182834  0  3.958488  0  0  -0.190259  0  3.979331  0  0  -0.088439  -0.178  0  3.944484  0
C  C54  1  0.38544004  0.16371418  0.58392803  1  0  -0.163415  0  3.711098  0  0  -0.183134  0  3.959526  0  0  -0.190511  0  3.980343  0  0  -0.089336  -0.17833  0  3.945605  0
C  C55  1  0.13116009  0.83703241  0.41625178  1  0  -0.164004  0  3.711531  0  0  -0.184007  0  3.960274  0  0  -0.191422  0  3.981108  0  0  -0.089261  -0.179188  0  3.946305  0
C  C56  1  0.70789567  0.64151613  0.85812798  1  0  0.145912  0  3.682834  0  0  0.115437  0  3.933601  0  0  0.122963  0  3.950271  0  0  0.048368  0.110492  0  3.922488  0
C  C57  1  0.20997694  0.35731612  0.14184241  1  0  0.146643  0  3.683902  0  0  0.116388  0  3.934855  0  0  0.123973  0  3.951515  0  0  0.048464  0.11138  0  3.923719  0
C  C58  1  0.31506031  0.14128882  0.64208946  1  0  0.14576  0  3.682244  0  0  0.115604  0  3.933446  0  0  0.123171  0  3.950089  0  0  0.049412  0.110574  0  3.922361  0
C  C59  1  0.09751100  0.85907082  0.35802804  1  0  0.145884  0  3.682799  0  0  0.1153  0  3.933653  0  0  0.122826  0  3.950337  0  0  0.048666  0.110317  0  3.922537  0
C  C60  1  0.29508128  0.75568595  0.87250027  1  0  0.139636  0  3.692558  0  0  0.108301  0  3.947239  0  0  0.115655  0  3.964747  0  0  0.049989  0.103509  0  3.935348  0
C  C61  1  0.92465154  0.24404515  0.12752842  1  0  0.137096  0  3.697828  0  0  0.105838  0  3.952637  0  0  0.113235  0  3.970159  0  0  0.048741  0.101013  0  3.940746  0
C  C62  1  0.91667541  0.25535165  0.62763216  1  0  0.137382  0  3.697359  0  0  0.106177  0  3.952053  0  0  0.113536  0  3.9696  0  0  0.049342  0.101389  0  3.940137  0
C  C63  1  0.79870252  0.74488134  0.37220792  1  0  0.138015  0  3.696172  0  0  0.106703  0  3.950703  0  0  0.114074  0  3.968231  0  0  0.049289  0.101912  0  3.938779  0
C  C64  1  0.29161730  0.78303481  0.93117714  1  0  -0.136013  0  3.680752  0  0  -0.160227  0  3.940418  0  0  -0.166522  0  3.959145  0  0  -0.080774  -0.156199  0  3.927858  0
C  C65  1  0.00655947  0.21697355  0.06883359  1  0  -0.134936  0  3.681924  0  0  -0.158908  0  3.941364  0  0  -0.165163  0  3.96008  0  0  -0.079802  -0.154928  0  3.928797  0
C  C66  1  0.97196457  0.28271081  0.56896762  1  0  -0.134937  0  3.681686  0  0  -0.15921  0  3.939911  0  0  -0.165549  0  3.958738  0  0  -0.079803  -0.155159  0  3.927315  0
C  C67  1  0.82181242  0.71774818  0.43092072  1  0  -0.135596  0  3.682493  0  0  -0.159748  0  3.941637  0  0  -0.166082  0  3.960375  0  0  -0.080042  -0.155687  0  3.929018  0
S  S68  1  0.77248382  0.71025010  0.04750470  1  0  0.170124  0  2.571696  0  0  0.174621  0  2.902017  0  0  0.173419  0  2.907942  0  0  0.125724  0.174682  0  2.898495  0
S  S69  1  0.53040525  0.28949855  0.95230315  1  0  0.169801  0  2.572512  0  0  0.174589  0  2.903252  0  0  0.173415  0  2.909194  0  0  0.125651  0.174646  0  2.899751  0
S  S70  1  0.56907228  0.21154497  0.45284822  1  0  0.169113  0  2.57273  0  0  0.173762  0  2.903518  0  0  0.172564  0  2.909463  0  0  0.125261  0.173823  0  2.899997  0
S  S71  1  0.23018385  0.78961061  0.54733249  1  0  0.169279  0  2.572153  0  0  0.174066  0  2.902968  0  0  0.172865  0  2.908885  0  0  0.125537  0.174124  0  2.89947  0
N  N72  1  0.31922044  0.78471008  0.05516764  1  0  -0.314053  0  3.070244  0  0  -0.293885  0  3.341653  0  0  -0.303223  0  3.359289  0  0  -0.30989  -0.286956  0  3.329692  0
N  N73  1  0.15869740  0.21545846  0.94484339  1  0  -0.315422  0  3.068401  0  0  -0.295286  0  3.340293  0  0  -0.304581  0  3.357926  0  0  -0.310241  -0.28836  0  3.328363  0
N  N74  1  0.12387856  0.28475344  0.44500302  1  0  -0.315815  0  3.069178  0  0  -0.295694  0  3.340963  0  0  -0.305009  0  3.358569  0  0  -0.310495  -0.288747  0  3.329058  0
N  N75  1  0.85064018  0.71594565  0.55500546  1  0  -0.314691  0  3.069048  0  0  -0.294522  0  3.34093  0  0  -0.303834  0  3.358546  0  0  -0.31011  -0.287597  0  3.329021  0
N  N76  1  0.49901963  0.68517620  0.83647229  1  0  -0.333772  0  3.279789  0  0  -0.257377  0  3.555169  0  0  -0.276187  0  3.569455  0  0  -0.325329  -0.244592  0  3.54532  0
N  N77  1  0.02292211  0.31397654  0.16354793  1  0  -0.332645  0  3.282113  0  0  -0.256482  0  3.557521  0  0  -0.275366  0  3.571893  0  0  -0.325165  -0.24367  0  3.547685  0
N  N78  1  0.08456158  0.18493037  0.66369474  1  0  -0.332946  0  3.281544  0  0  -0.256902  0  3.556956  0  0  -0.275732  0  3.571296  0  0  -0.325907  -0.244101  0  3.547089  0
N  N79  1  0.93266356  0.81520608  0.33627480  1  0  -0.332055  0  3.281396  0  0  -0.256187  0  3.557171  0  0  -0.275042  0  3.571563  0  0  -0.325224  -0.243398  0  3.547315  0
O  O80  1  0.97390438  0.86875356  0.15559921  1  0  -0.585341  0  2.004015  0  0  -0.528927  0  2.252798  0  0  -0.55544  0  2.242232  0  0  -0.292458  -0.510461  0  2.259671  0
O  O81  1  0.99684756  0.13141693  0.84443645  1  0  -0.585806  0  2.005911  0  0  -0.528947  0  2.254541  0  0  -0.555441  0  2.244  0  0  -0.292093  -0.510494  0  2.261393  0
O  O82  1  0.87926895  0.36867544  0.34446329  1  0  -0.585536  0  2.003109  0  0  -0.528806  0  2.251374  0  0  -0.555289  0  2.240899  0  0  -0.291764  -0.510362  0  2.25821  0
O  O83  1  0.58980260  0.63126877  0.65555160  1  0  -0.585135  0  2.002784  0  0  -0.528827  0  2.251203  0  0  -0.555273  0  2.240625  0  0  -0.292243  -0.510395  0  2.258059  0
O  O84  1  0.26158698  0.79620445  0.21289599  1  0  -0.68225  0  2.081572  0  0  -0.601807  0  2.309208  0  0  -0.630603  0  2.296914  0  0  -0.313108  -0.581825  0  2.31733  0
O  O85  1  0.26947821  0.20350065  0.78708556  1  0  -0.682209  0  2.082047  0  0  -0.60166  0  2.310461  0  0  -0.630263  0  2.297946  0  0  -0.312821  -0.58162  0  2.3185  0
O  O86  1  0.22426955  0.29693294  0.28728367  1  0  -0.6819  0  2.082272  0  0  -0.602265  0  2.311045  0  0  -0.630987  0  2.298618  0  0  -0.312585  -0.582201  0  2.319139  0
O  O87  1  0.80604790  0.70295308  0.71275008  1  0  -0.683507  0  2.082557  0  0  -0.602453  0  2.310759  0  0  -0.631215  0  2.298236  0  0  -0.313237  -0.582433  0  2.31894  0
O  O88  1  0.21096641  0.53686405  0.75896785  1  0  -0.848027  0  1.924764  0  0  -0.782021  0  2.150007  0  0  -0.804349  0  2.112032  0  0  -0.582492  -0.766209  0  2.176262  0
O  O89  1  0.50921480  0.46294097  0.24103316  1  0  -0.849051  0  1.924874  0  0  -0.784078  0  2.149144  0  0  -0.806325  0  2.111157  0  0  -0.582952  -0.768311  0  2.175443  0
O  O90  1  0.72028969  0.03596633  0.74133531  1  0  -0.850171  0  1.923793  0  0  -0.785017  0  2.148662  0  0  -0.807312  0  2.110736  0  0  -0.583168  -0.769214  0  2.17493  0
O  O91  1  0.49877671  0.96352283  0.25883656  1  0  -0.849567  0  1.923287  0  0  -0.784987  0  2.147934  0  0  -0.807276  0  2.109917  0  0  -0.584024  -0.769125  0  2.174055  0
F  F92  1  0.72145950  0.37433565  0.76194559  1  0  -0.674375  0  0.842814  0  0  -0.593701  0  1.068804  0  0  -0.617327  0  1.041241  0  0  -0.371169  -0.576679  0  1.087673  0
F  F93  1  0.86014847  0.62514023  0.23777158  1  0  -0.674759  0  0.843836  0  0  -0.593772  0  1.06964  0  0  -0.617287  0  1.04195  0  0  -0.371134  -0.576686  0  1.088449  0
F  F94  1  0.23420478  0.87470976  0.73830275  1  0  -0.674819  0  0.842171  0  0  -0.593933  0  1.067846  0  0  -0.617671  0  1.040473  0  0  -0.371718  -0.576867  0  1.086704  0
F  F95  1  0.84897418  0.12500237  0.26171512  1  0  -0.675009  0  0.842565  0  0  -0.594538  0  1.068792  0  0  -0.618241  0  1.04135  0  0  -0.371614  -0.577506  0  1.087733  0
