# generated using pymatgen
data_Cd3H36C20S6N4(Cl3O4)2
_symmetry_space_group_name_H-M   'P 1'
_cell_length_a   10.01195934
_cell_length_b   10.15742789
_cell_length_c   11.52294598
_cell_angle_alpha   66.86256135
_cell_angle_beta   73.53690670
_cell_angle_gamma   62.89478659
_symmetry_Int_Tables_number   1
_chemical_formula_structural   Cd3H36C20S6N4(Cl3O4)2
_chemical_formula_sum   'Cd3 H36 C20 S6 N4 Cl6 O8'
_cell_volume   951.40089082
_cell_formula_units_Z   1
loop_
 _symmetry_equiv_pos_site_id
 _symmetry_equiv_pos_as_xyz
  1  'x, y, z'
loop_
 _atom_site_type_symbol
 _atom_site_label
 _atom_site_symmetry_multiplicity
 _atom_site_fract_x
 _atom_site_fract_y
 _atom_site_fract_z
 _atom_site_occupancy
 _atom_site_hle17_bader_spin_density
 _atom_site_hle17_ddec_charge
 _atom_site_hle17_ddec_spin_density
 _atom_site_hle17_ddec_sum_bond_order
 _atom_site_hle17_magmom
 _atom_site_hse06_10hf_bader_spin_density
 _atom_site_hse06_10hf_ddec_charge
 _atom_site_hse06_10hf_ddec_spin_density
 _atom_site_hse06_10hf_ddec_sum_bond_order
 _atom_site_hse06_10hf_magmom
 _atom_site_hse06_bader_spin_density
 _atom_site_hse06_ddec_charge
 _atom_site_hse06_ddec_spin_density
 _atom_site_hse06_ddec_sum_bond_order
 _atom_site_hse06_magmom
 _atom_site_pbe_bader_spin_density
 _atom_site_pbe_cm5_charge
 _atom_site_pbe_ddec_charge
 _atom_site_pbe_ddec_spin_density
 _atom_site_pbe_ddec_sum_bond_order
 _atom_site_pbe_magmom
Cd  Cd0  1  0.49999921  0.50000330  0.49999942  1  0  0.953256  0  1.921142  0  0  0.78119  0  2.380726  0  0  0.828392  0  2.341379  0  0  0.596249  0.747271  0  2.408852  0
Cd  Cd1  1  0.55712335  0.84517296  0.43131212  1  0  0.97815  0  1.970452  0  0  0.827448  0  2.427802  0  0  0.873463  0  2.385278  0  0  0.573505  0.794236  0  2.45763  0
Cd  Cd2  1  0.44288505  0.15482892  0.56868222  1  0  0.978132  0  1.970435  0  0  0.827436  0  2.427787  0  0  0.873449  0  2.385261  0  0  0.573493  0.794222  0  2.457619  0
H  H3  1  0.49473524  0.11283299  0.20150163  1  0  0.430004  0  0.807394  0  0  0.410987  0  0.864698  0  0  0.419663  0  0.854854  0  0  0.316665  0.404464  0  0.87267  0
H  H4  1  0.50525725  0.88717839  0.79849541  1  0  0.429968  0  0.807741  0  0  0.410959  0  0.865012  0  0  0.419634  0  0.855171  0  0  0.316659  0.404439  0  0.87298  0
H  H5  1  0.58708249  0.13471612  0.27435153  1  0  0.412299  0  0.869434  0  0  0.383269  0  0.94352  0  0  0.392558  0  0.929951  0  0  0.277181  0.376105  0  0.953947  0
H  H6  1  0.41291239  0.86529167  0.72564870  1  0  0.412306  0  0.86934  0  0  0.383289  0  0.943459  0  0  0.392581  0  0.929886  0  0  0.277166  0.376122  0  0.953888  0
H  H7  1  0.90414173  0.03704803  0.34292055  1  0  0.100646  0  0.973426  0  0  0.111602  0  1.046057  0  0  0.113305  0  1.045663  0  0  0.087794  0.11032  0  1.045663  0
H  H8  1  0.09586976  0.96294309  0.65708700  1  0  0.100634  0  0.973384  0  0  0.111593  0  1.046015  0  0  0.113293  0  1.045625  0  0  0.087804  0.110313  0  1.045617  0
H  H9  1  0.83710742  0.23552757  0.25005901  1  0  0.095183  0  0.963562  0  0  0.109426  0  1.028144  0  0  0.110513  0  1.028196  0  0  0.091402  0.108295  0  1.02824  0
H  H10  1  0.16288957  0.76446041  0.74995250  1  0  0.095148  0  0.963534  0  0  0.109452  0  1.02807  0  0  0.11053  0  1.02813  0  0  0.091419  0.108322  0  1.028167  0
H  H11  1  0.10270099  0.22768919  0.20187522  1  0  0.045235  0  0.981566  0  0  0.05462  0  1.055813  0  0  0.055756  0  1.054244  0  0  0.085595  0.053431  0  1.057166  0
H  H12  1  0.89729618  0.77231263  0.79813162  1  0  0.045251  0  0.981538  0  0  0.054612  0  1.05579  0  0  0.055748  0  1.05422  0  0  0.085632  0.053426  0  1.057137  0
H  H13  1  0.16978274  0.03047758  0.30107032  1  0  0.046476  0  0.973003  0  0  0.054033  0  1.052549  0  0  0.054959  0  1.052017  0  0  0.07481  0.053014  0  1.053452  0
H  H14  1  0.83022740  0.96951960  0.69892687  1  0  0.046489  0  0.972982  0  0  0.054052  0  1.052535  0  0  0.05498  0  1.052003  0  0  0.074814  0.053033  0  1.053437  0
H  H15  1  0.23086578  0.00677376  0.98230963  1  0  0.061913  0  0.944974  0  0  0.074518  0  1.014008  0  0  0.074688  0  1.013367  0  0  0.100194  0.074152  0  1.014659  0
H  H16  1  0.76911432  0.99323365  0.01767895  1  0  0.061931  0  0.94491  0  0  0.074508  0  1.013974  0  0  0.074678  0  1.013335  0  0  0.100147  0.074145  0  1.014622  0
H  H17  1  0.32619823  0.01366915  0.08810434  1  0  0.059339  0  0.925677  0  0  0.07469  0  0.987403  0  0  0.075724  0  0.986117  0  0  0.091862  0.073795  0  0.988454  0
H  H18  1  0.67378885  0.98632771  0.91188683  1  0  0.059231  0  0.925639  0  0  0.074629  0  0.987327  0  0  0.0757  0  0.986003  0  0  0.09187  0.073736  0  0.988374  0
H  H19  1  0.28460470  0.22498446  0.86552222  1  0  0.048475  0  0.956027  0  0  0.059493  0  1.028328  0  0  0.059746  0  1.028659  0  0  0.082821  0.058938  0  1.028593  0
H  H20  1  0.71538405  0.77502004  0.13447897  1  0  0.04846  0  0.956015  0  0  0.0595  0  1.028296  0  0  0.059752  0  1.028626  0  0  0.082813  0.058945  0  1.028559  0
H  H21  1  0.09060727  0.30224040  0.93162173  1  0  0.047072  0  0.964265  0  0  0.052021  0  1.047252  0  0  0.053235  0  1.046189  0  0  0.088769  0.050685  0  1.048857  0
H  H22  1  0.90938542  0.69777079  0.06838140  1  0  0.047098  0  0.964276  0  0  0.052051  0  1.047219  0  0  0.053262  0  1.046151  0  0  0.08882  0.050715  0  1.048829  0
H  H23  1  0.10391035  0.53629813  0.92164471  1  0  0.052271  0  0.92541  0  0  0.066638  0  0.991825  0  0  0.066666  0  0.992171  0  0  0.095528  0.066184  0  0.992619  0
H  H24  1  0.89610349  0.46369444  0.07835045  1  0  0.052308  0  0.925361  0  0  0.066648  0  0.99174  0  0  0.066672  0  0.992085  0  0  0.09552  0.066193  0  0.992535  0
H  H25  1  0.28575387  0.46276168  0.83366927  1  0  0.052764  0  0.93867  0  0  0.063098  0  1.012905  0  0  0.062854  0  1.013749  0  0  0.08873  0.063251  0  1.012481  0
H  H26  1  0.71426965  0.53723048  0.16633045  1  0  0.052721  0  0.938742  0  0  0.063073  0  1.012899  0  0  0.062825  0  1.013742  0  0  0.088738  0.063227  0  1.012477  0
H  H27  1  0.40755794  0.46614596  0.99373010  1  0  0.044049  0  0.939419  0  0  0.057589  0  1.00834  0  0  0.05846  0  1.006824  0  0  0.093526  0.056738  0  1.010179  0
H  H28  1  0.59243806  0.53384523  0.00628928  1  0  0.043934  0  0.939474  0  0  0.05748  0  1.008356  0  0  0.058339  0  1.006848  0  0  0.093484  0.056628  0  1.010198  0
H  H29  1  0.28862821  0.65119739  0.90279824  1  0  0.047153  0  0.94639  0  0  0.06152  0  1.015402  0  0  0.062051  0  1.014327  0  0  0.093367  0.061811  0  1.015559  0
H  H30  1  0.71139189  0.34879259  0.09720137  1  0  0.047125  0  0.946384  0  0  0.061455  0  1.015395  0  0  0.061985  0  1.014317  0  0  0.093354  0.061733  0  1.015569  0
H  H31  1  0.19625413  0.79562841  0.04642057  1  0  0.052266  0  0.930863  0  0  0.066987  0  0.994933  0  0  0.06825  0  0.99332  0  0  0.097826  0.065839  0  0.99632  0
H  H32  1  0.80375207  0.20437111  0.95357860  1  0  0.052307  0  0.930821  0  0  0.066988  0  0.994917  0  0  0.06825  0  0.993303  0  0  0.097841  0.065843  0  0.996301  0
H  H33  1  0.36234253  0.63997081  0.11156181  1  0  0.054237  0  0.925648  0  0  0.069497  0  0.990417  0  0  0.069605  0  0.990419  0  0  0.096435  0.069131  0  0.991037  0
H  H34  1  0.63765357  0.36003355  0.88843751  1  0  0.054248  0  0.92563  0  0  0.069466  0  0.990425  0  0  0.06959  0  0.990411  0  0  0.096448  0.069102  0  0.991044  0
H  H35  1  0.20648747  0.76512716  0.26935122  1  0  0.122114  0  0.953141  0  0  0.137992  0  1.012145  0  0  0.139272  0  1.012141  0  0  0.098502  0.136384  0  1.013556  0
H  H36  1  0.79350083  0.23487853  0.73064882  1  0  0.122084  0  0.953065  0  0  0.13796  0  1.012071  0  0  0.13924  0  1.012065  0  0  0.098514  0.136348  0  1.013487  0
H  H37  1  0.21441072  0.57304393  0.32165137  1  0  0.107661  0  0.959828  0  0  0.117086  0  1.031098  0  0  0.117826  0  1.031715  0  0  0.090994  0.116302  0  1.031276  0
H  H38  1  0.78558026  0.42695714  0.67834778  1  0  0.107649  0  0.959794  0  0  0.11706  0  1.031061  0  0  0.117801  0  1.031677  0  0  0.090975  0.116274  0  1.031242  0
C  C39  1  0.92026165  0.61258143  0.33892650  1  0  0.075805  0  3.770474  0  0  0.063567  0  4.086745  0  0  0.076434  0  4.101572  0  0  0.119778  0.054219  0  4.075922  0
C  C40  1  0.07973923  0.38741827  0.66107140  1  0  0.075745  0  3.770556  0  0  0.06348  0  4.086862  0  0  0.07635  0  4.101691  0  0  0.119768  0.054134  0  4.076037  0
C  C41  1  0.88370830  0.37318861  0.40648885  1  0  0.073382  0  3.751752  0  0  0.065708  0  4.060955  0  0  0.076403  0  4.075516  0  0  0.11606  0.057897  0  4.051657  0
C  C42  1  0.11629017  0.62681219  0.59351278  1  0  0.073185  0  3.752061  0  0  0.065566  0  4.061185  0  0  0.076255  0  4.07575  0  0  0.116012  0.05776  0  4.051878  0
C  C43  1  0.92493714  0.14430546  0.30937244  1  0  -0.177441  0  3.664658  0  0  -0.21437  0  3.924961  0  0  -0.214902  0  3.935589  0  0  -0.157191  -0.213303  0  3.916432  0
C  C44  1  0.07507103  0.85568588  0.69063069  1  0  -0.17743  0  3.66473  0  0  -0.214357  0  3.92491  0  0  -0.214885  0  3.935539  0  0  -0.157243  -0.213297  0  3.916389  0
C  C45  1  0.08293147  0.11931451  0.23862031  1  0  0.076253  0  3.663813  0  0  0.019628  0  3.933378  0  0  0.025986  0  3.939767  0  0  -0.092612  0.015187  0  3.929286  0
C  C46  1  0.91707588  0.88067913  0.76138313  1  0  0.076173  0  3.663738  0  0  0.019578  0  3.933331  0  0  0.025937  0  3.939712  0  0  -0.092656  0.015136  0  3.929244  0
C  C47  1  0.22219516  0.07306128  0.04181070  1  0  0.055883  0  3.656526  0  0  -0.001816  0  3.924307  0  0  0.00459  0  3.930129  0  0  -0.077866  -0.005822  0  3.919796  0
C  C48  1  0.77779601  0.92693885  0.95818177  1  0  0.055949  0  3.656203  0  0  -0.001742  0  3.923981  0  0  0.004636  0  3.929794  0  0  -0.077827  -0.005759  0  3.919477  0
C  C49  1  0.20793483  0.23436926  0.95491105  1  0  0.034705  0  3.681411  0  0  -0.022554  0  3.954572  0  0  -0.016788  0  3.960732  0  0  -0.089792  -0.02638  0  3.950383  0
C  C50  1  0.79205773  0.76563630  0.04508966  1  0  0.03473  0  3.681236  0  0  -0.022527  0  3.954378  0  0  -0.016752  0  3.960533  0  0  -0.089779  -0.02635  0  3.950198  0
C  C51  1  0.22575382  0.46618169  0.92992645  1  0  0.058245  0  3.675339  0  0  0.00036  0  3.950788  0  0  0.006769  0  3.956748  0  0  -0.080957  -0.003814  0  3.946705  0
C  C52  1  0.77425992  0.53381424  0.07007109  1  0  0.058099  0  3.675585  0  0  0.000342  0  3.950755  0  0  0.00676  0  3.956694  0  0  -0.08099  -0.003833  0  3.946669  0
C  C53  1  0.28875055  0.54197685  0.97756853  1  0  0.064837  0  3.683306  0  0  0.002176  0  3.960923  0  0  0.009111  0  3.965676  0  0  -0.076523  -0.002503  0  3.956935  0
C  C54  1  0.71125800  0.45801913  0.02243209  1  0  0.065051  0  3.683528  0  0  0.002503  0  3.960863  0  0  0.00945  0  3.965603  0  0  -0.076406  -0.002169  0  3.956873  0
C  C55  1  0.23837995  0.67987963  0.11756983  1  0  0.100558  0  3.680432  0  0  0.04183  0  3.954012  0  0  0.048294  0  3.960833  0  0  -0.075488  0.037428  0  3.949273  0
C  C56  1  0.76161626  0.32011560  0.88242905  1  0  0.100624  0  3.680245  0  0  0.041978  0  3.953724  0  0  0.048438  0  3.960532  0  0  -0.075477  0.037565  0  3.948985  0
C  C57  1  0.17183269  0.68790343  0.25070673  1  0  -0.191694  0  3.644637  0  0  -0.229842  0  3.907721  0  0  -0.229766  0  3.917895  0  0  -0.155899  -0.230057  0  3.901136  0
C  C58  1  0.82816224  0.31209857  0.74929629  1  0  -0.191707  0  3.644532  0  0  -0.229774  0  3.907454  0  0  -0.229705  0  3.917637  0  0  -0.155892  -0.229984  0  3.900868  0
S  S59  1  0.03659854  0.42660441  0.33159209  1  0  0.204726  0  2.564842  0  0  0.19665  0  2.912819  0  0  0.199958  0  2.911124  0  0  0.159932  0.19416  0  2.913769  0
S  S60  1  0.96340141  0.57340019  0.66839573  1  0  0.204844  0  2.564878  0  0  0.19676  0  2.91285  0  0  0.200071  0  2.91115  0  0  0.159944  0.194262  0  2.913799  0
S  S61  1  0.88863550  0.18633349  0.45695653  1  0  0.047246  0  2.54894  0  0  0.044076  0  2.922289  0  0  0.038865  0  2.924126  0  0  0.030111  0.047426  0  2.920403  0
S  S62  1  0.11136809  0.81366482  0.54304720  1  0  0.047338  0  2.549149  0  0  0.044159  0  2.922469  0  0  0.038962  0  2.92429  0  0  0.03015  0.047507  0  2.920582  0
S  S63  1  0.96679706  0.77293056  0.27865033  1  0  0.124432  0  2.43872  0  0  0.120343  0  2.792403  0  0  0.115092  0  2.792144  0  0  0.077572  0.126658  0  2.789032  0
S  S64  1  0.03320119  0.22707620  0.72134329  1  0  0.124448  0  2.438795  0  0  0.120329  0  2.792469  0  0  0.115079  0  2.792205  0  0  0.077545  0.12664  0  2.789096  0
N  N65  1  0.76064200  0.49027528  0.43145533  1  0  -0.221842  0  3.242432  0  0  -0.170235  0  3.51686  0  0  -0.182926  0  3.53692  0  0  -0.224836  -0.160545  0  3.502839  0
N  N66  1  0.23935296  0.50972918  0.56854165  1  0  -0.22181  0  3.242439  0  0  -0.17022  0  3.516832  0  0  -0.182921  0  3.536922  0  0  -0.224853  -0.160532  0  3.502804  0
N  N67  1  0.78141803  0.62448713  0.39608018  1  0  -0.251299  0  3.230427  0  0  -0.202348  0  3.514075  0  0  -0.218334  0  3.533724  0  0  -0.239951  -0.190493  0  3.499946  0
N  N68  1  0.21858086  0.37551500  0.60391482  1  0  -0.251201  0  3.230349  0  0  -0.202259  0  3.514032  0  0  -0.218233  0  3.533643  0  0  -0.239879  -0.190405  0  3.499898  0
Cl  Cl69  1  0.48798365  0.65006408  0.65046087  1  0  -0.566453  0  0.99579  0  0  -0.501698  0  1.272384  0  0  -0.520466  0  1.252487  0  0  -0.290499  -0.488492  0  1.287554  0
Cl  Cl70  1  0.51201919  0.34993896  0.34953800  1  0  -0.566425  0  0.995805  0  0  -0.501649  0  1.272381  0  0  -0.520419  0  1.25249  0  0  -0.290472  -0.488439  0  1.287545  0
Cl  Cl71  1  0.45221371  0.75823059  0.30551298  1  0  -0.532533  0  1.046718  0  0  -0.468965  0  1.329551  0  0  -0.488806  0  1.31036  0  0  -0.275147  -0.454729  0  1.345125  0
Cl  Cl72  1  0.54778504  0.24176668  0.69449150  1  0  -0.532536  0  1.046655  0  0  -0.468967  0  1.329478  0  0  -0.488806  0  1.310291  0  0  -0.275151  -0.454733  0  1.345058  0
Cl  Cl73  1  0.30213170  0.07553439  0.46965661  1  0  -0.582695  0  1.143897  0  0  -0.523085  0  1.449179  0  0  -0.544572  0  1.430913  0  0  -0.295053  -0.507701  0  1.460835  0
Cl  Cl74  1  0.69787511  0.92445803  0.53034999  1  0  -0.582681  0  1.14386  0  0  -0.523085  0  1.449178  0  0  -0.54457  0  1.430912  0  0  -0.295052  -0.507699  0  1.460835  0
O  O75  1  0.09296432  0.06897163  0.13508864  1  0  -0.307089  0  2.191908  0  0  -0.235811  0  2.43815  0  0  -0.251263  0  2.43902  0  0  -0.242376  -0.224735  0  2.436019  0
O  O76  1  0.90703044  0.93103053  0.86490916  1  0  -0.307023  0  2.191714  0  0  -0.235809  0  2.437966  0  0  -0.251266  0  2.438844  0  0  -0.242387  -0.224732  0  2.435839  0
O  O77  1  0.24737016  0.31222925  0.01232716  1  0  -0.314857  0  2.215598  0  0  -0.246078  0  2.463323  0  0  -0.26063  0  2.462404  0  0  -0.24374  -0.235588  0  2.463629  0
O  O78  1  0.75263217  0.68776352  0.98767181  1  0  -0.314867  0  2.215597  0  0  -0.246168  0  2.463309  0  0  -0.260725  0  2.462383  0  0  -0.243809  -0.235676  0  2.463614  0
O  O79  1  0.20210531  0.57421045  0.09220785  1  0  -0.318399  0  2.270415  0  0  -0.247422  0  2.524876  0  0  -0.263473  0  2.526701  0  0  -0.237136  -0.235751  0  2.5231  0
O  O80  1  0.79788427  0.42579750  0.90779197  1  0  -0.318486  0  2.270447  0  0  -0.247603  0  2.524903  0  0  -0.263662  0  2.526722  0  0  -0.237171  -0.235914  0  2.523113  0
O  O81  1  0.59056990  0.06110705  0.23665202  1  0  -0.785705  0  1.838392  0  0  -0.733289  0  2.017945  0  0  -0.75244  0  1.992738  0  0  -0.572017  -0.719838  0  2.037288  0
O  O82  1  0.40943540  0.93890137  0.76335570  1  0  -0.785675  0  1.838621  0  0  -0.733273  0  2.01823  0  0  -0.752424  0  1.993009  0  0  -0.57201  -0.71982  0  2.037574  0
