# generated using pymatgen
data_Cu5H18C26I5N4
_symmetry_space_group_name_H-M   'P 1'
_cell_length_a   9.99397375
_cell_length_b   14.45996262
_cell_length_c   15.17259870
_cell_angle_alpha   118.12178775
_cell_angle_beta   95.77820146
_cell_angle_gamma   103.51662798
_symmetry_Int_Tables_number   1
_chemical_formula_structural   Cu5H18C26I5N4
_chemical_formula_sum   'Cu10 H36 C52 I10 N8'
_cell_volume   1822.50216159
_cell_formula_units_Z   2
loop_
 _symmetry_equiv_pos_site_id
 _symmetry_equiv_pos_as_xyz
  1  'x, y, z'
loop_
 _atom_site_type_symbol
 _atom_site_label
 _atom_site_symmetry_multiplicity
 _atom_site_fract_x
 _atom_site_fract_y
 _atom_site_fract_z
 _atom_site_occupancy
 _atom_site_pbe_bader_charge
 _atom_site_pbe_bader_spin_density
 _atom_site_pbe_cm5_charge
 _atom_site_pbe_ddec_charge
 _atom_site_pbe_ddec_spin_density
 _atom_site_pbe_ddec_sum_bond_order
 _atom_site_pbe_magmom
Cu  Cu0  1  0.94120218  0.57458137  0.53540968  1  0.403217  0  0.251546  0.162059  0  2.694015  0
Cu  Cu1  1  0.92568510  0.61487978  0.73893058  1  0.286315  0  0.128164  0.087093  0  2.763677  0
Cu  Cu2  1  0.73877535  0.72131744  0.78008137  1  0.400426  0  0.243072  0.145689  0  2.774671  0
Cu  Cu3  1  0.67509549  0.51421884  0.75117758  1  0.398442  0  0.238334  0.14904  0  2.766236  0
Cu  Cu4  1  0.84864882  0.68134667  0.90941255  1  0.372264  0  0.238633  0.143404  0  2.800103  0
Cu  Cu5  1  0.05879652  0.42542122  0.46459247  1  0.40294  0  0.251546  0.162039  0  2.694066  0
Cu  Cu6  1  0.07431180  0.38511618  0.26107047  1  0.286385  0  0.128185  0.087128  0  2.763671  0
Cu  Cu7  1  0.26122423  0.27867766  0.21991420  1  0.400356  0  0.24307  0.145675  0  2.774701  0
Cu  Cu8  1  0.32490352  0.48578208  0.24882319  1  0.398377  0  0.238335  0.149036  0  2.766232  0
Cu  Cu9  1  0.15135490  0.31865587  0.09058663  1  0.372259  0  0.238639  0.143403  0  2.800149  0
H  H10  1  0.10450888  0.80857796  0.68588671  1  0.100412  0  0.093262  0.07345  0  1.062411  0
H  H11  1  0.30647441  0.94515193  0.68333896  1  0.066112  0  0.10943  0.120028  0  0.986731  0
H  H12  1  0.18320287  0.74504442  0.35017340  1  0.082991  0  0.094979  0.108685  0  1.037159  0
H  H13  1  0.98667571  0.61816833  0.36641116  1  0.133425  0  0.089949  0.0725  0  1.074161  0
H  H14  1  0.25669056  0.94215242  0.39817953  1  0.069019  0  0.100374  0.101305  0  1.047556  0
H  H15  1  0.42105617  0.74368508  0.51887000  1  0.110145  0  0.102578  0.117833  0  1.024616  0
H  H16  1  0.50590843  0.66117180  0.61266815  1  0.082107  0  0.089843  0.076146  0  1.059168  0
H  H17  1  0.80171291  0.96049686  0.83701183  1  0.129047  0  0.104984  0.079531  0  1.025478  0
H  H18  1  0.72110445  0.05990038  0.75674087  1  0.074532  0  0.10955  0.122347  0  0.987443  0
H  H19  1  0.09105822  0.08893718  0.93134725  1  0.089096  0  0.094453  0.07625  0  1.05117  0
H  H20  1  0.05620863  0.98003553  0.74184414  1  0.078348  0  0.099566  0.106741  0  1.048007  0
H  H21  1  0.08620714  0.28156626  0.73790362  1  0.066924  0  0.105478  0.119807  0  1.012947  0
H  H22  1  0.11459573  0.37721924  0.92773694  1  0.126675  0  0.104091  0.086487  0  1.017719  0
H  H23  1  0.87128386  0.93004000  0.59801701  1  0.092512  0  0.102707  0.106207  0  1.026765  0
H  H24  1  0.18585543  0.27440210  0.51798433  1  0.110605  0  0.101567  0.111749  0  1.051802  0
H  H25  1  0.40840757  0.43071596  0.59870714  1  0.109332  0  0.094308  0.077461  0  1.041226  0
H  H26  1  0.57598775  0.30934536  0.76726759  1  0.093617  0  0.108584  0.082422  0  1.003381  0
H  H27  1  0.35368516  0.14991229  0.69889566  1  0.066061  0  0.107061  0.116507  0  1.000854  0
H  H28  1  0.89549113  0.19142295  0.31411412  1  0.10041  0  0.093261  0.073468  0  1.062423  0
H  H29  1  0.69352661  0.05484897  0.31666194  1  0.06612  0  0.109431  0.120002  0  0.986769  0
H  H30  1  0.81679781  0.25495565  0.64982381  1  0.083029  0  0.094966  0.108687  0  1.037126  0
H  H31  1  0.01332466  0.38183341  0.63358941  1  0.133396  0  0.089941  0.072502  0  1.074154  0
H  H32  1  0.74331080  0.05784931  0.60182242  1  0.06901  0  0.100369  0.101307  0  1.04755  0
H  H33  1  0.57894349  0.25631500  0.48112978  1  0.110181  0  0.102581  0.117849  0  1.024603  0
H  H34  1  0.49408888  0.33882747  0.38733176  1  0.082068  0  0.089867  0.076183  0  1.059145  0
H  H35  1  0.19828706  0.03950156  0.16298723  1  0.128983  0  0.104994  0.079535  0  1.02548  0
H  H36  1  0.27889487  0.94009888  0.24325918  1  0.07453  0  0.109567  0.122395  0  0.987419  0
H  H37  1  0.90894079  0.91106374  0.06865352  1  0.08908  0  0.094452  0.07626  0  1.051142  0
H  H38  1  0.94378972  0.01996622  0.25815629  1  0.078592  0  0.099572  0.106724  0  1.047966  0
H  H39  1  0.91379317  0.71843299  0.26209782  1  0.066912  0  0.10549  0.119778  0  1.012917  0
H  H40  1  0.88540529  0.62278167  0.07226330  1  0.126677  0  0.104094  0.086483  0  1.017746  0
H  H41  1  0.12871911  0.06995840  0.40198422  1  0.092791  0  0.102709  0.106235  0  1.026735  0
H  H42  1  0.81414323  0.72559798  0.48201406  1  0.110632  0  0.10158  0.111749  0  1.051829  0
H  H43  1  0.59159176  0.56928329  0.40129093  1  0.109351  0  0.094319  0.077479  0  1.041222  0
H  H44  1  0.42401226  0.69065555  0.23273192  1  0.093595  0  0.108584  0.082404  0  1.003387  0
H  H45  1  0.64631385  0.85008863  0.30110445  1  0.066056  0  0.107086  0.116527  0  1.000776  0
C  C46  1  0.12522569  0.79875027  0.61316823  1  0.433946  0  0.030518  0.087773  0  3.938964  0
C  C47  1  0.23774404  0.87407631  0.61106077  1  0.015592  0  -0.08682  -0.174007  0  3.960369  0
C  C48  1  0.26366299  0.85588881  0.51594728  1  -0.046522  0  0.004814  0.103197  0  4.012706  0
C  C49  1  0.16803848  0.76470871  0.42647147  1  0.001171  0  -0.090524  -0.175245  0  3.951512  0
C  C50  1  0.05843507  0.69286533  0.43491841  1  0.414247  0  0.030938  0.086806  0  3.943301  0
C  C51  1  0.38748837  0.92733860  0.50815693  1  -0.0147  0  -0.00225  0.029121  0  3.976656  0
C  C52  1  0.36520646  0.96547554  0.44048819  1  -0.045606  0  -0.083302  -0.164097  0  3.9594  0
C  C53  1  0.52623526  0.96068173  0.56826945  1  0.010215  0  -0.002177  0.025476  0  3.965336  0
C  C54  1  0.56454832  0.91053863  0.62833477  1  0.013212  0  0.00596  0.100339  0  3.997949  0
C  C55  1  0.50345047  0.79694810  0.59031894  1  -0.045326  0  -0.086432  -0.165881  0  3.947594  0
C  C56  1  0.55213714  0.74931567  0.64195141  1  0.491556  0  0.032287  0.095058  0  3.92963  0
C  C57  1  0.71632567  0.91620709  0.76680731  1  0.46224  0  0.040349  0.093481  0  3.925381  0
C  C58  1  0.67136801  0.97077447  0.72072076  1  -0.068543  0  -0.087478  -0.181852  0  3.949308  0
C  C59  1  0.08941965  0.12848077  0.88539736  1  0.566095  0  0.035661  0.093349  0  3.92771  0
C  C60  1  0.07026231  0.06821866  0.77937511  1  -0.067306  0  -0.091788  -0.18454  0  3.965173  0
C  C61  1  0.07046038  0.12160914  0.72251759  1  0.016024  0  0.0047  0.099104  0  4.010658  0
C  C62  1  0.08788540  0.23532105  0.77736163  1  -0.116788  0  -0.087288  -0.175995  0  3.945955  0
C  C63  1  0.10374769  0.28942358  0.88337360  1  0.473176  0  0.041638  0.098691  0  3.908009  0
C  C64  1  0.04313262  0.05913975  0.60900653  1  -0.028937  0  -0.002244  0.024585  0  3.962483  0
C  C65  1  0.93038016  0.95919422  0.55433233  1  -0.085266  0  -0.081924  -0.159267  0  3.945513  0
C  C66  1  0.11687630  0.10028102  0.55326800  1  0.055238  0  0.00013  0.030322  0  3.947193  0
C  C67  1  0.24786574  0.19741866  0.60191449  1  -0.063873  0  0.008182  0.104959  0  3.980081  0
C  C68  1  0.26790977  0.27797431  0.57346119  1  0.008332  0  -0.086839  -0.170205  0  3.92833  0
C  C69  1  0.39354396  0.36607693  0.61821303  1  0.446405  0  0.037138  0.099204  0  3.927682  0
C  C70  1  0.48541866  0.29876369  0.71272676  1  0.475387  0  0.041016  0.094271  0  3.917243  0
C  C71  1  0.36103844  0.21006272  0.67411225  1  -0.001393  0  -0.084056  -0.171025  0  3.944922  0
C  C72  1  0.87477467  0.20125147  0.38683234  1  0.433949  0  0.030563  0.087843  0  3.939001  0
C  C73  1  0.76225763  0.12592375  0.38893849  1  0.015645  0  -0.086797  -0.17395  0  3.960458  0
C  C74  1  0.73633533  0.14411044  0.48405072  1  -0.04655  0  0.004718  0.103033  0  4.012762  0
C  C75  1  0.83196419  0.23529135  0.57352851  1  0.000686  0  -0.090511  -0.175215  0  3.951434  0
C  C76  1  0.94156495  0.30713557  0.56508045  1  0.414702  0  0.030921  0.086768  0  3.943402  0
C  C77  1  0.61251129  0.07266148  0.49184351  1  -0.014652  0  -0.002197  0.029168  0  3.976684  0
C  C78  1  0.63479421  0.03452453  0.55951232  1  -0.04557  0  -0.083267  -0.164036  0  3.959364  0
C  C79  1  0.47376475  0.03931919  0.43173139  1  0.010212  0  -0.002153  0.025561  0  3.965361  0
C  C80  1  0.43545335  0.08946143  0.37166515  1  0.013224  0  0.005974  0.100332  0  3.99798  0
C  C81  1  0.49654784  0.20305116  0.40968104  1  -0.045391  0  -0.08643  -0.165889  0  3.947618  0
C  C82  1  0.44786217  0.25068359  0.35804930  1  0.491606  0  0.032269  0.095022  0  3.929619  0
C  C83  1  0.28367330  0.08379134  0.23319301  1  0.462305  0  0.040337  0.093472  0  3.925439  0
C  C84  1  0.32863231  0.02922478  0.27927870  1  -0.068552  0  -0.087519  -0.181935  0  3.949347  0
C  C85  1  0.91057836  0.87152015  0.11460335  1  0.566134  0  0.035638  0.093331  0  3.927586  0
C  C86  1  0.92973670  0.93178226  0.22062698  1  -0.067625  0  -0.091744  -0.184476  0  3.965052  0
C  C87  1  0.92953924  0.87838845  0.27748042  1  0.016178  0  0.004643  0.099007  0  4.010812  0
C  C88  1  0.91211392  0.76467820  0.22263710  1  -0.116782  0  -0.087229  -0.175835  0  3.945957  0
C  C89  1  0.89625363  0.71057567  0.11662658  1  0.473134  0  0.041639  0.098689  0  3.907999  0
C  C90  1  0.95687136  0.94085864  0.39099412  1  -0.028997  0  -0.002227  0.024632  0  3.962441  0
C  C91  1  0.06962346  0.04080335  0.44566858  1  -0.085628  0  -0.081945  -0.159328  0  3.945555  0
C  C92  1  0.88312602  0.89971821  0.44673225  1  0.055173  0  0.000109  0.030265  0  3.947195  0
C  C93  1  0.75213192  0.80258143  0.39808516  1  -0.063821  0  0.00815  0.104966  0  3.979947  0
C  C94  1  0.73208855  0.72202495  0.42653748  1  0.008369  0  -0.086874  -0.17024  0  3.928438  0
C  C95  1  0.60645571  0.63392315  0.38178610  1  0.446024  0  0.037138  0.099198  0  3.927767  0
C  C96  1  0.51458105  0.70123888  0.28727281  1  0.475315  0  0.04101  0.094288  0  3.917199  0
C  C97  1  0.63895952  0.78993572  0.32588734  1  -0.001496  0  -0.084028  -0.170992  0  3.944765  0
I  I98  1  0.70069226  0.53018091  0.58098122  1  -0.361639  0  -0.130183  -0.218372  0  2.46687  0
I  I99  1  0.15233505  0.58798382  0.66834929  1  -0.374154  0  -0.169235  -0.23452  0  2.124203  0
I  I100  1  0.01044074  0.83607167  0.87222829  1  -0.408638  0  -0.181714  -0.27506  0  1.923481  0
I  I101  1  0.89470827  0.48881023  0.83981237  1  -0.412488  0  -0.19509  -0.294098  0  1.877568  0
I  I102  1  0.56140856  0.66426439  0.87465324  1  -0.388049  0  -0.226893  -0.284467  0  1.752472  0
I  I103  1  0.29930540  0.46981918  0.41901777  1  -0.361716  0  -0.130191  -0.218367  0  2.466875  0
I  I104  1  0.84766496  0.41201709  0.33165089  1  -0.374169  0  -0.169242  -0.234531  0  2.124219  0
I  I105  1  0.98955827  0.16392925  0.12777182  1  -0.40862  0  -0.181708  -0.275061  0  1.923516  0
I  I106  1  0.10529104  0.51118903  0.16018834  1  -0.41242  0  -0.195083  -0.294088  0  1.87758  0
I  I107  1  0.43859110  0.33573570  0.12534720  1  -0.388028  0  -0.226885  -0.284464  0  1.75251  0
N  N108  1  0.03821660  0.70701953  0.52652221  1  -1.222229  0  -0.369495  -0.190483  0  3.633717  0
N  N109  1  0.66021433  0.80625084  0.72724268  1  -1.236153  0  -0.360248  -0.161718  0  3.613601  0
N  N110  1  0.10536533  0.23749760  0.93741370  1  -1.215649  0  -0.362691  -0.157538  0  3.623579  0
N  N111  1  0.50263070  0.37695304  0.68611663  1  -1.220995  0  -0.357237  -0.170179  0  3.610838  0
N  N112  1  0.96178377  0.29298221  0.47347836  1  -1.222286  0  -0.369489  -0.190488  0  3.633753  0
N  N113  1  0.33978529  0.19374675  0.27275665  1  -1.236132  0  -0.360245  -0.161686  0  3.613581  0
N  N114  1  0.89463603  0.76250413  0.06258759  1  -1.215587  0  -0.362696  -0.15759  0  3.623556  0
N  N115  1  0.49737032  0.62304786  0.31388229  1  -1.220566  0  -0.357224  -0.170182  0  3.610827  0
