# generated using pymatgen
data_DyH6C3(NO)6
_symmetry_space_group_name_H-M   'P 1'
_cell_length_a   8.84273412
_cell_length_b   10.08727194
_cell_length_c   12.68688272
_cell_angle_alpha   89.99965304
_cell_angle_beta   90.00019000
_cell_angle_gamma   106.84948773
_symmetry_Int_Tables_number   1
_chemical_formula_structural   DyH6C3(NO)6
_chemical_formula_sum   'Dy4 H24 C12 N24 O24'
_cell_volume   1083.07541106
_cell_formula_units_Z   4
loop_
 _symmetry_equiv_pos_site_id
 _symmetry_equiv_pos_as_xyz
  1  'x, y, z'
loop_
 _atom_site_type_symbol
 _atom_site_label
 _atom_site_symmetry_multiplicity
 _atom_site_fract_x
 _atom_site_fract_y
 _atom_site_fract_z
 _atom_site_occupancy
 _atom_site_hle17_bader_spin_density
 _atom_site_hle17_ddec_charge
 _atom_site_hle17_ddec_spin_density
 _atom_site_hle17_ddec_sum_bond_order
 _atom_site_hle17_magmom
 _atom_site_hse06_10hf_bader_spin_density
 _atom_site_hse06_10hf_ddec_charge
 _atom_site_hse06_10hf_ddec_spin_density
 _atom_site_hse06_10hf_ddec_sum_bond_order
 _atom_site_hse06_10hf_magmom
 _atom_site_hse06_bader_spin_density
 _atom_site_hse06_ddec_charge
 _atom_site_hse06_ddec_spin_density
 _atom_site_hse06_ddec_sum_bond_order
 _atom_site_hse06_magmom
 _atom_site_pbe_bader_spin_density
 _atom_site_pbe_cm5_charge
 _atom_site_pbe_ddec_charge
 _atom_site_pbe_ddec_spin_density
 _atom_site_pbe_ddec_sum_bond_order
 _atom_site_pbe_magmom
Dy  Dy0  1  0.22166175  0.13071768  0.32301939  1  0  2.124025  0  1.693792  0  0  1.928428  0  2.210557  0  0  1.980287  0  2.169171  0  0  1.531692  1.889245  0  2.243092  0
Dy  Dy1  1  0.72166743  0.13071218  0.67698321  1  0  2.123963  0  1.693899  0  0  1.928272  0  2.21077  0  0  1.980178  0  2.169304  0  0  1.531649  1.889137  0  2.24318  0
Dy  Dy2  1  0.85009669  0.57978506  0.17631155  1  0  2.303436  0  1.52703  0  0  2.229481  0  1.846133  0  0  2.269814  0  1.80871  0  0  1.51787  2.117961  0  2.024813  0
Dy  Dy3  1  0.35010272  0.57978808  0.82368591  1  0  2.303389  0  1.527041  0  0  2.229422  0  1.846154  0  0  2.269753  0  1.80873  0  0  1.51784  2.117901  0  2.024847  0
H  H4  1  0.84790838  0.51576829  0.42150197  1  0  0.423944  0  0.877923  0  0  0.381461  0  0.959855  0  0  0.392919  0  0.943197  0  0  0.304957  0.372352  0  0.973059  0
H  H5  1  0.34792053  0.51577276  0.57849345  1  0  0.423852  0  0.878047  0  0  0.381359  0  0.959993  0  0  0.392819  0  0.943333  0  0  0.304893  0.372249  0  0.973201  0
H  H6  1  0.81077161  0.65879688  0.39454222  1  0  0.466791  0  0.782579  0  0  0.451062  0  0.824078  0  0  0.460223  0  0.81074  0  0  0.340017  0.443533  0  0.835013  0
H  H7  1  0.31077225  0.65879727  0.60545081  1  0  0.466773  0  0.782648  0  0  0.451052  0  0.824095  0  0  0.460211  0  0.810761  0  0  0.340031  0.443526  0  0.835029  0
H  H8  1  0.74256622  0.84341268  0.24042816  1  0  0.466854  0  0.77191  0  0  0.450726  0  0.817801  0  0  0.458808  0  0.806183  0  0  0.348691  0.44344  0  0.82829  0
H  H9  1  0.24256015  0.84340805  0.75957244  1  0  0.466872  0  0.771842  0  0  0.450741  0  0.81777  0  0  0.458822  0  0.806151  0  0  0.348702  0.443451  0  0.828264  0
H  H10  1  0.92012958  0.85535941  0.27260803  1  0  0.453183  0  0.838872  0  0  0.418713  0  0.908705  0  0  0.429981  0  0.891899  0  0  0.314714  0.410671  0  0.920283  0
H  H11  1  0.42011669  0.85536142  0.72737873  1  0  0.453271  0  0.838756  0  0  0.418756  0  0.908665  0  0  0.430025  0  0.891861  0  0  0.314714  0.410695  0  0.920263  0
H  H12  1  0.89803829  0.35994068  0.01012950  1  0  0.428637  0  0.862953  0  0  0.387483  0  0.942899  0  0  0.398655  0  0.92654  0  0  0.304115  0.378177  0  0.956308  0
H  H13  1  0.39804323  0.35994473  0.98986525  1  0  0.4286  0  0.862991  0  0  0.387464  0  0.942915  0  0  0.398635  0  0.926557  0  0  0.304098  0.378157  0  0.956326  0
H  H14  1  0.93452473  0.50565242  0.95712540  1  0  0.450947  0  0.822913  0  0  0.425869  0  0.880151  0  0  0.436056  0  0.864948  0  0  0.314379  0.417798  0  0.892059  0
H  H15  1  0.43453593  0.50565516  0.04287501  1  0  0.450915  0  0.822911  0  0  0.425839  0  0.880185  0  0  0.436026  0  0.864983  0  0  0.314361  0.417766  0  0.892101  0
H  H16  1  0.07618960  0.48501541  0.30897152  1  0  0.403326  0  0.916891  0  0  0.359072  0  1.002533  0  0  0.370763  0  0.985616  0  0  0.299639  0.35058  0  1.014522  0
H  H17  1  0.57619755  0.48501289  0.69102893  1  0  0.403278  0  0.916949  0  0  0.359018  0  1.002603  0  0  0.370709  0  0.985687  0  0  0.299621  0.350524  0  1.014595  0
H  H18  1  0.15727535  0.49194779  0.19789152  1  0  0.462267  0  0.793463  0  0  0.442315  0  0.840853  0  0  0.452037  0  0.826493  0  0  0.32656  0.434503  0  0.852269  0
H  H19  1  0.65728319  0.49194977  0.80211146  1  0  0.462176  0  0.793561  0  0  0.442237  0  0.840951  0  0  0.451957  0  0.826593  0  0  0.326515  0.434422  0  0.852366  0
H  H20  1  0.68779726  0.67455166  0.98896623  1  0  0.447597  0  0.83353  0  0  0.422653  0  0.886596  0  0  0.432805  0  0.871588  0  0  0.313874  0.414896  0  0.897863  0
H  H21  1  0.18780464  0.67455679  0.01102880  1  0  0.447475  0  0.833652  0  0  0.422515  0  0.886786  0  0  0.432671  0  0.871774  0  0  0.313833  0.41476  0  0.89805  0
H  H22  1  0.83018441  0.79436528  0.02645936  1  0  0.404505  0  0.91602  0  0  0.359677  0  1.003834  0  0  0.371406  0  0.986901  0  0  0.290847  0.350926  0  1.016192  0
H  H23  1  0.33019192  0.79437356  0.97354169  1  0  0.404484  0  0.916085  0  0  0.359632  0  1.003911  0  0  0.371363  0  0.986977  0  0  0.290857  0.35088  0  1.01627  0
H  H24  1  0.00016140  0.12096165  0.14216464  1  0  0.398186  0  0.923966  0  0  0.353274  0  1.011499  0  0  0.364641  0  0.995062  0  0  0.289664  0.345286  0  1.023037  0
H  H25  1  0.50015560  0.12093749  0.85783039  1  0  0.398205  0  0.923915  0  0  0.353288  0  1.01146  0  0  0.364654  0  0.995024  0  0  0.289663  0.345291  0  1.023012  0
H  H26  1  0.92312942  0.17477888  0.24003045  1  0  0.392853  0  0.933967  0  0  0.346939  0  1.023007  0  0  0.358126  0  1.00705  0  0  0.290741  0.339082  0  1.034196  0
H  H27  1  0.42312638  0.17475434  0.75996294  1  0  0.393  0  0.933821  0  0  0.347043  0  1.022891  0  0  0.358228  0  1.006937  0  0  0.290736  0.339183  0  1.034082  0
C  C28  1  0.46080258  0.19391132  0.52022241  1  0  0.144216  0  3.878753  0  0  0.124362  0  4.148701  0  0  0.127818  0  4.165133  0  0  0.211455  0.122079  0  4.137188  0
C  C29  1  0.96080326  0.19391661  0.47978201  1  0  0.14443  0  3.878668  0  0  0.124479  0  4.148714  0  0  0.127931  0  4.16515  0  0  0.211473  0.122199  0  4.1372  0
C  C30  1  0.43677639  0.04381054  0.50347318  1  0  0.643346  0  3.964986  0  0  0.594378  0  4.269388  0  0  0.629241  0  4.256882  0  0  0.21957  0.570739  0  4.276858  0
C  C31  1  0.93676814  0.04381907  0.49654220  1  0  0.643293  0  3.964714  0  0  0.594434  0  4.269016  0  0  0.629299  0  4.25651  0  0  0.219703  0.57079  0  4.276484  0
C  C32  1  0.26687440  0.97306433  0.09553510  1  0  0.142633  0  3.795704  0  0  0.126789  0  4.062481  0  0  0.128486  0  4.078992  0  0  0.212703  0.12521  0  4.052608  0
C  C33  1  0.76687466  0.97305956  0.90446569  1  0  0.14259  0  3.795756  0  0  0.126714  0  4.062619  0  0  0.128471  0  4.079051  0  0  0.212689  0.125109  0  4.052771  0
C  C34  1  0.15287354  0.86558750  0.15851604  1  0  0.677849  0  3.880704  0  0  0.626116  0  4.176078  0  0  0.661936  0  4.163804  0  0  0.2479  0.601642  0  4.180324  0
C  C35  1  0.65287927  0.86557675  0.84149370  1  0  0.677919  0  3.880633  0  0  0.626086  0  4.176186  0  0  0.661892  0  4.163902  0  0  0.247716  0.601638  0  4.180398  0
C  C36  1  0.57277351  0.31101494  0.24566780  1  0  0.145245  0  3.901762  0  0  0.123187  0  4.177494  0  0  0.127038  0  4.192866  0  0  0.20605  0.121841  0  4.160486  0
C  C37  1  0.07278424  0.31101307  0.75433274  1  0  0.145374  0  3.901405  0  0  0.1233  0  4.177151  0  0  0.12715  0  4.19253  0  0  0.206199  0.121955  0  4.160143  0
C  C38  1  0.48160317  0.40885594  0.22165603  1  0  0.644625  0  3.949356  0  0  0.593814  0  4.259792  0  0  0.629044  0  4.246016  0  0  0.224936  0.569871  0  4.264775  0
C  C39  1  0.98160050  0.40885102  0.77834498  1  0  0.644771  0  3.949315  0  0  0.593999  0  4.259688  0  0  0.629226  0  4.245912  0  0  0.225032  0.57005  0  4.264675  0
N  N40  1  0.37597846  0.26818993  0.47447329  1  0  -0.377869  0  3.202892  0  0  -0.345651  0  3.498395  0  0  -0.359112  0  3.517625  0  0  -0.286015  -0.336188  0  3.485269  0
N  N41  1  0.87597328  0.26819088  0.52552976  1  0  -0.378016  0  3.202927  0  0  -0.34577  0  3.498483  0  0  -0.359241  0  3.517718  0  0  -0.286109  -0.336304  0  3.485334  0
N  N42  1  0.43115756  0.39584249  0.51494160  1  0  -0.057346  0  2.972716  0  0  -0.042496  0  3.256869  0  0  -0.042243  0  3.266323  0  0  -0.077463  -0.042426  0  3.251217  0
N  N43  1  0.93115116  0.39584374  0.48505936  1  0  -0.057337  0  2.972733  0  0  -0.042525  0  3.256889  0  0  -0.04227  0  3.266344  0  0  -0.077454  -0.042457  0  3.251231  0
N  N44  1  0.54703413  0.39717330  0.58158143  1  0  -0.055599  0  3.040946  0  0  -0.025382  0  3.314035  0  0  -0.027025  0  3.323595  0  0  -0.073878  -0.024403  0  3.308295  0
N  N45  1  0.04703242  0.39717914  0.41842098  1  0  -0.055522  0  3.04061  0  0  -0.025239  0  3.313604  0  0  -0.026882  0  3.32316  0  0  -0.073809  -0.024264  0  3.307874  0
N  N46  1  0.56716729  0.27135932  0.58665000  1  0  -0.347518  0  3.195101  0  0  -0.309213  0  3.4752  0  0  -0.321119  0  3.492111  0  0  -0.284772  -0.300896  0  3.463866  0
N  N47  1  0.06716707  0.27136306  0.41335625  1  0  -0.347585  0  3.194853  0  0  -0.309289  0  3.474982  0  0  -0.321188  0  3.491884  0  0  -0.284776  -0.300978  0  3.463675  0
N  N48  1  0.29280246  0.10711207  0.12083590  1  0  -0.347291  0  3.162001  0  0  -0.312397  0  3.442281  0  0  -0.324348  0  3.461881  0  0  -0.251163  -0.303995  0  3.429101  0
N  N49  1  0.79280004  0.10710648  0.87916225  1  0  -0.347181  0  3.161846  0  0  -0.312261  0  3.442118  0  0  -0.324235  0  3.461703  0  0  -0.251122  -0.303859  0  3.428943  0
N  N50  1  0.38953462  0.17829151  0.04607910  1  0  -0.076044  0  2.984693  0  0  -0.056966  0  3.268317  0  0  -0.059355  0  3.280507  0  0  -0.076132  -0.054913  0  3.260583  0
N  N51  1  0.88953313  0.17828751  0.95391814  1  0  -0.076102  0  2.98463  0  0  -0.057002  0  3.268248  0  0  -0.059392  0  3.280445  0  0  -0.076105  -0.054944  0  3.260519  0
N  N52  1  0.42349211  0.08911941  0.97989504  1  0  -0.06495  0  3.035476  0  0  -0.039234  0  3.31777  0  0  -0.041176  0  3.328738  0  0  -0.074882  -0.037835  0  3.310675  0
N  N53  1  0.92348756  0.08911632  0.02010273  1  0  -0.064912  0  3.03565  0  0  -0.039239  0  3.31798  0  0  -0.041182  0  3.32895  0  0  -0.074932  -0.037863  0  3.31091  0
N  N54  1  0.34691800  0.95962031  0.00827423  1  0  -0.25453  0  3.029742  0  0  -0.220069  0  3.291749  0  0  -0.22937  0  3.304083  0  0  -0.197024  -0.213855  0  3.284672  0
N  N55  1  0.84691436  0.95961925  0.99172838  1  0  -0.254529  0  3.029895  0  0  -0.220032  0  3.291913  0  0  -0.229347  0  3.304229  0  0  -0.196992  -0.213809  0  3.28485  0
N  N56  1  0.72692604  0.33619580  0.22588764  1  0  -0.401427  0  3.172113  0  0  -0.376861  0  3.458141  0  0  -0.388836  0  3.473659  0  0  -0.311542  -0.357016  0  3.444465  0
N  N57  1  0.22693906  0.33619689  0.77410841  1  0  -0.401532  0  3.172259  0  0  -0.377018  0  3.458313  0  0  -0.388996  0  3.473832  0  0  -0.311696  -0.357179  0  3.444638  0
N  N58  1  0.76032730  0.21996643  0.25470751  1  0  -0.040316  0  3.052129  0  0  -0.00479  0  3.337105  0  0  -0.007425  0  3.34845  0  0  -0.07042  -0.003455  0  3.326552  0
N  N59  1  0.26033427  0.21996680  0.74529157  1  0  -0.040313  0  3.052283  0  0  -0.004665  0  3.337105  0  0  -0.007296  0  3.348445  0  0  -0.07035  -0.003331  0  3.326554  0
N  N60  1  0.63149073  0.12734448  0.28919676  1  0  -0.029552  0  2.854887  0  0  -0.037366  0  3.138646  0  0  -0.033636  0  3.148112  0  0  -0.081373  -0.039995  0  3.133625  0
N  N61  1  0.13149724  0.12734405  0.71080722  1  0  -0.02961  0  2.855327  0  0  -0.037472  0  3.13909  0  0  -0.033744  0  3.148557  0  0  -0.081358  -0.040107  0  3.134076  0
N  N62  1  0.51165858  0.18359779  0.28435210  1  0  -0.387481  0  3.248477  0  0  -0.34226  0  3.533109  0  0  -0.356633  0  3.552588  0  0  -0.288938  -0.332728  0  3.520457  0
N  N63  1  0.01166399  0.18359422  0.71565131  1  0  -0.387503  0  3.24881  0  0  -0.34228  0  3.533458  0  0  -0.356661  0  3.552948  0  0  -0.289033  -0.332755  0  3.520802  0
O  O64  1  0.82091491  0.57302859  0.36415358  1  0  -0.916162  0  1.862405  0  0  -0.873352  0  2.04718  0  0  -0.892661  0  2.015791  0  0  -0.632606  -0.848732  0  2.077415  0
O  O65  1  0.32092309  0.57303383  0.63584227  1  0  -0.916047  0  1.862544  0  0  -0.873234  0  2.047306  0  0  -0.892543  0  2.015913  0  0  -0.63254  -0.848612  0  2.077539  0
O  O66  1  0.81558788  0.78978680  0.25471322  1  0  -0.902841  0  1.831261  0  0  -0.864735  0  2.010085  0  0  -0.882138  0  1.977699  0  0  -0.613817  -0.841622  0  2.040329  0
O  O67  1  0.31558252  0.78978434  0.74528388  1  0  -0.902925  0  1.831047  0  0  -0.864799  0  2.009924  0  0  -0.882209  0  1.977531  0  0  -0.613853  -0.841662  0  2.040205  0
O  O68  1  0.90009807  0.45745794  0.02436128  1  0  -0.917056  0  1.850539  0  0  -0.876947  0  2.039907  0  0  -0.894637  0  2.005962  0  0  -0.632463  -0.852114  0  2.072899  0
O  O69  1  0.40010112  0.45746004  0.97563692  1  0  -0.916992  0  1.8506  0  0  -0.876903  0  2.039982  0  0  -0.894585  0  2.006022  0  0  -0.632434  -0.852066  0  2.072977  0
O  O70  1  0.07295685  0.51869448  0.23380640  1  0  -0.933853  0  1.884743  0  0  -0.896167  0  2.081233  0  0  -0.913639  0  2.046868  0  0  -0.653237  -0.871235  0  2.112693  0
O  O71  1  0.57296572  0.51869980  0.76619072  1  0  -0.933673  0  1.884783  0  0  -0.896014  0  2.081298  0  0  -0.913488  0  2.046937  0  0  -0.653188  -0.871091  0  2.112756  0
O  O72  1  0.78584934  0.69006001  0.02972988  1  0  -0.933286  0  1.921589  0  0  -0.893044  0  2.120165  0  0  -0.91142  0  2.085885  0  0  -0.667922  -0.868303  0  2.151309  0
O  O73  1  0.28585348  0.69006839  0.97026924  1  0  -0.933119  0  1.921616  0  0  -0.89285  0  2.120313  0  0  -0.911211  0  2.085989  0  0  -0.66788  -0.868119  0  2.151471  0
O  O74  1  0.01253651  0.13618387  0.22024132  1  0  -0.971174  0  2.06368  0  0  -0.912905  0  2.299313  0  0  -0.934575  0  2.268474  0  0  -0.693024  -0.897355  0  2.3209  0
O  O75  1  0.51252121  0.13614373  0.77975051  1  0  -0.971313  0  2.063596  0  0  -0.912979  0  2.299281  0  0  -0.934659  0  2.268437  0  0  -0.692971  -0.897445  0  2.320876  0
O  O76  1  0.33762847  0.98612150  0.43383102  1  0  -0.633345  0  1.970743  0  0  -0.592452  0  2.207443  0  0  -0.614988  0  2.195274  0  0  -0.354311  -0.576631  0  2.215788  0
O  O77  1  0.83763647  0.98612710  0.56617539  1  0  -0.633236  0  1.971189  0  0  -0.592344  0  2.207836  0  0  -0.614878  0  2.195662  0  0  -0.354283  -0.576531  0  2.216166  0
O  O78  1  0.51873486  0.99039830  0.56350768  1  0  -0.660071  0  1.970929  0  0  -0.610695  0  2.211998  0  0  -0.634836  0  2.199794  0  0  -0.372594  -0.593633  0  2.220412  0
O  O79  1  0.01874405  0.99039958  0.43649322  1  0  -0.660241  0  1.97023  0  0  -0.610913  0  2.211276  0  0  -0.635058  0  2.199075  0  0  -0.372771  -0.593841  0  2.219701  0
O  O80  1  0.12814957  0.90203374  0.25121481  1  0  -0.665295  0  2.074623  0  0  -0.603954  0  2.314458  0  0  -0.628951  0  2.301674  0  0  -0.34794  -0.585391  0  2.320639  0
O  O81  1  0.62815843  0.90202038  0.74878207  1  0  -0.665402  0  2.074234  0  0  -0.603979  0  2.31409  0  0  -0.628993  0  2.301313  0  0  -0.347772  -0.585428  0  2.320248  0
O  O82  1  0.08007925  0.75048856  0.11617566  1  0  -0.695727  0  2.048432  0  0  -0.643603  0  2.285525  0  0  -0.66954  0  2.272937  0  0  -0.370629  -0.615184  0  2.295761  0
O  O83  1  0.58008468  0.75049216  0.88382897  1  0  -0.69572  0  2.048653  0  0  -0.643533  0  2.285733  0  0  -0.669464  0  2.273145  0  0  -0.370591  -0.615135  0  2.295964  0
O  O84  1  0.56033216  0.52148150  0.17594642  1  0  -0.718685  0  1.943956  0  0  -0.675156  0  2.176424  0  0  -0.698548  0  2.16175  0  0  -0.371118  -0.6478  0  2.188473  0
O  O85  1  0.06033820  0.52148138  0.82405066  1  0  -0.718763  0  1.943725  0  0  -0.675256  0  2.176169  0  0  -0.698651  0  2.161496  0  0  -0.371151  -0.647901  0  2.188219  0
O  O86  1  0.33601152  0.37119136  0.24372126  1  0  -0.636996  0  1.953407  0  0  -0.590048  0  2.192018  0  0  -0.613832  0  2.180295  0  0  -0.327092  -0.57403  0  2.200825  0
O  O87  1  0.83602598  0.37119035  0.75628905  1  0  -0.637108  0  1.953868  0  0  -0.590107  0  2.192334  0  0  -0.613888  0  2.180601  0  0  -0.327176  -0.574099  0  2.201135  0
