# generated using pymatgen
data_H8PbC17N2(O2F3)2
_symmetry_space_group_name_H-M   'P 1'
_cell_length_a   8.71777941
_cell_length_b   10.30390308
_cell_length_c   11.03716157
_cell_angle_alpha   97.42660615
_cell_angle_beta   99.68322000
_cell_angle_gamma   111.07322595
_symmetry_Int_Tables_number   1
_chemical_formula_structural   H8PbC17N2(O2F3)2
_chemical_formula_sum   'H16 Pb2 C34 N4 O8 F12'
_cell_volume   892.33886022
_cell_formula_units_Z   2
loop_
 _symmetry_equiv_pos_site_id
 _symmetry_equiv_pos_as_xyz
  1  'x, y, z'
loop_
 _atom_site_type_symbol
 _atom_site_label
 _atom_site_symmetry_multiplicity
 _atom_site_fract_x
 _atom_site_fract_y
 _atom_site_fract_z
 _atom_site_occupancy
 _atom_site_hle17_bader_spin_density
 _atom_site_hle17_ddec_charge
 _atom_site_hle17_ddec_spin_density
 _atom_site_hle17_ddec_sum_bond_order
 _atom_site_hle17_magmom
 _atom_site_hse06_10hf_bader_spin_density
 _atom_site_hse06_10hf_ddec_charge
 _atom_site_hse06_10hf_ddec_spin_density
 _atom_site_hse06_10hf_ddec_sum_bond_order
 _atom_site_hse06_10hf_magmom
 _atom_site_hse06_bader_spin_density
 _atom_site_hse06_ddec_charge
 _atom_site_hse06_ddec_spin_density
 _atom_site_hse06_ddec_sum_bond_order
 _atom_site_hse06_magmom
 _atom_site_pbe_bader_spin_density
 _atom_site_pbe_cm5_charge
 _atom_site_pbe_ddec_charge
 _atom_site_pbe_ddec_spin_density
 _atom_site_pbe_ddec_sum_bond_order
 _atom_site_pbe_magmom
H  H0  1  0.88765069  0.57615605  0.31509081  1  0  0.077049  0  0.972192  0  0  0.086119  0  1.04095  0  0  0.088333  0  1.038273  0  0  0.115707  0.084536  0  1.042484  0
H  H1  1  0.11237976  0.42388409  0.68490049  1  0  0.077275  0  0.971996  0  0  0.08632  0  1.040766  0  0  0.088534  0  1.038086  0  0  0.115772  0.084737  0  1.042304  0
H  H2  1  0.65977230  0.53172781  0.12453200  1  0  0.105367  0  0.939619  0  0  0.118613  0  0.991181  0  0  0.121623  0  0.990686  0  0  0.106811  0.116377  0  0.991784  0
H  H3  1  0.34018643  0.46824091  0.87549342  1  0  0.105262  0  0.939664  0  0  0.118552  0  0.99119  0  0  0.12156  0  0.990695  0  0  0.106804  0.116316  0  0.991791  0
H  H4  1  0.64875625  0.37259745  0.92571605  1  0  0.111043  0  0.957983  0  0  0.118797  0  1.022886  0  0  0.122399  0  1.019503  0  0  0.105561  0.116265  0  1.025222  0
H  H5  1  0.35123233  0.62740534  0.07430399  1  0  0.110904  0  0.958017  0  0  0.118726  0  1.022867  0  0  0.122335  0  1.019498  0  0  0.105485  0.116193  0  1.025205  0
H  H6  1  0.76889620  0.22168911  0.81614287  1  0  0.121157  0  0.948132  0  0  0.130714  0  1.007728  0  0  0.134348  0  1.005498  0  0  0.107783  0.128105  0  1.00926  0
H  H7  1  0.23110595  0.77832532  0.18388495  1  0  0.121023  0  0.948045  0  0  0.130548  0  1.007707  0  0  0.134182  0  1.005473  0  0  0.107721  0.127945  0  1.009226  0
H  H8  1  0.97930883  0.11005351  0.82155349  1  0  0.109479  0  0.934531  0  0  0.120443  0  0.992439  0  0  0.123466  0  0.991297  0  0  0.105967  0.11827  0  0.993141  0
H  H9  1  0.02064960  0.88993450  0.17844801  1  0  0.109427  0  0.934748  0  0  0.120412  0  0.992639  0  0  0.123431  0  0.991502  0  0  0.105995  0.118291  0  0.993261  0
H  H10  1  0.22245530  0.07057646  0.94345098  1  0  0.102586  0  0.956029  0  0  0.110329  0  1.020988  0  0  0.113695  0  1.017789  0  0  0.100899  0.107775  0  1.023489  0
H  H11  1  0.77765869  0.92945818  0.05655621  1  0  0.1025  0  0.956009  0  0  0.110314  0  1.020928  0  0  0.113645  0  1.017754  0  0  0.101003  0.107767  0  1.023436  0
H  H12  1  0.43547956  0.12496831  0.14758042  1  0  0.116614  0  0.942196  0  0  0.125544  0  0.99975  0  0  0.129306  0  0.998245  0  0  0.108609  0.122827  0  1.001082  0
H  H13  1  0.56456167  0.87503251  0.85239566  1  0  0.116599  0  0.942252  0  0  0.125617  0  0.999676  0  0  0.129381  0  0.998166  0  0  0.108636  0.122901  0  1.001005  0
H  H14  1  0.41940674  0.27956680  0.33333765  1  0  0.098309  0  0.971052  0  0  0.10548  0  1.038574  0  0  0.108541  0  1.035073  0  0  0.118949  0.103338  0  1.040827  0
H  H15  1  0.58058575  0.72040193  0.66667869  1  0  0.098413  0  0.970978  0  0  0.105608  0  1.038486  0  0  0.108673  0  1.034984  0  0  0.118955  0.103445  0  1.040798  0
Pb  Pb16  1  0.21796822  0.48399377  0.43223131  1  0  1.295537  0  1.424702  0  0  1.09264  0  1.829743  0  0  1.153768  0  1.788372  0  0  0.638771  1.048557  0  1.858601  0
Pb  Pb17  1  0.78160788  0.51594528  0.56764426  1  0  1.295671  0  1.424757  0  0  1.092748  0  1.829846  0  0  1.153902  0  1.788453  0  0  0.638699  1.048653  0  1.858716  0
C  C18  1  0.79275395  0.23540888  0.41642907  1  0  0.560826  0  3.998307  0  0  0.502412  0  4.306806  0  0  0.535044  0  4.301539  0  0  0.193061  0.480263  0  4.309769  0
C  C19  1  0.20719587  0.76456318  0.58357202  1  0  0.560562  0  3.998549  0  0  0.502117  0  4.307108  0  0  0.53475  0  4.301825  0  0  0.192873  0.480046  0  4.309884  0
C  C20  1  0.78543766  0.09331586  0.33933341  1  0  0.323868  0  3.595629  0  0  0.281086  0  3.902056  0  0  0.295241  0  3.889426  0  0  0.189635  0.270647  0  3.911968  0
C  C21  1  0.21455239  0.90667755  0.66064579  1  0  0.323846  0  3.596143  0  0  0.281186  0  3.902545  0  0  0.295337  0  3.889918  0  0  0.189645  0.270812  0  3.91219  0
C  C22  1  0.67158250  0.96054008  0.38245979  1  0  0.33905  0  3.644531  0  0  0.284488  0  3.953331  0  0  0.301069  0  3.941996  0  0  0.191488  0.271876  0  3.963287  0
C  C23  1  0.32845874  0.03945835  0.61756673  1  0  0.33928  0  3.644868  0  0  0.284281  0  3.953983  0  0  0.300854  0  3.94269  0  0  0.191367  0.272133  0  3.963204  0
C  C24  1  0.66570920  0.81188498  0.32454711  1  0  0.320545  0  3.623229  0  0  0.27907  0  3.925816  0  0  0.293099  0  3.913118  0  0  0.192428  0.268712  0  3.935694  0
C  C25  1  0.33429340  0.18810292  0.67546571  1  0  0.320023  0  3.624104  0  0  0.279125  0  3.925866  0  0  0.293151  0  3.913168  0  0  0.192444  0.268839  0  3.935481  0
C  C26  1  0.52832241  0.68829411  0.36256183  1  0  0.557993  0  3.978528  0  0  0.503735  0  4.276927  0  0  0.536761  0  4.271045  0  0  0.19837  0.48116  0  4.280502  0
C  C27  1  0.47165685  0.31167368  0.63743450  1  0  0.558011  0  3.979145  0  0  0.503678  0  4.277413  0  0  0.536701  0  4.271547  0  0  0.198529  0.48115  0  4.280859  0
C  C28  1  0.87421301  0.50352137  0.22910715  1  0  0.142366  0  3.709458  0  0  0.109729  0  3.963453  0  0  0.118377  0  3.982051  0  0  0.060785  0.104347  0  3.949491  0
C  C29  1  0.12580980  0.49651986  0.77088055  1  0  0.141987  0  3.710002  0  0  0.109411  0  3.963968  0  0  0.118058  0  3.982556  0  0  0.060609  0.104029  0  3.950013  0
C  C30  1  0.74819248  0.47957272  0.12116171  1  0  -0.117392  0  3.74238  0  0  -0.130218  0  3.99862  0  0  -0.137717  0  4.020598  0  0  -0.084012  -0.125082  0  3.983281  0
C  C31  1  0.25178502  0.52041628  0.87885061  1  0  -0.117264  0  3.742437  0  0  -0.130102  0  3.998606  0  0  -0.137596  0  4.020593  0  0  -0.08395  -0.124963  0  3.983259  0
C  C32  1  0.74170821  0.39240255  0.01262230  1  0  -0.035749  0  3.661939  0  0  -0.062247  0  3.911923  0  0  -0.059025  0  3.928792  0  0  -0.060137  -0.064145  0  3.900626  0
C  C33  1  0.25828140  0.60758748  0.98739358  1  0  -0.035913  0  3.661947  0  0  -0.062341  0  3.912061  0  0  -0.059152  0  3.928962  0  0  -0.060302  -0.064235  0  3.900757  0
C  C34  1  0.86032431  0.32812160  0.01249439  1  0  0.032359  0  3.769672  0  0  0.048968  0  4.002509  0  0  0.046395  0  4.026775  0  0  0.000922  0.050295  0  3.987035  0
C  C35  1  0.13968007  0.67188015  0.98751766  1  0  0.032428  0  3.769069  0  0  0.048547  0  4.002555  0  0  0.045971  0  4.026831  0  0  0.000847  0.049881  0  3.987075  0
C  C36  1  0.98158365  0.35611594  0.12655960  1  0  0.133342  0  3.748528  0  0  0.123048  0  3.992177  0  0  0.128087  0  4.013859  0  0  0.119253  0.118819  0  3.978465  0
C  C37  1  0.01846993  0.64391888  0.87342597  1  0  0.133179  0  3.74824  0  0  0.12315  0  3.991821  0  0  0.128183  0  4.013501  0  0  0.119221  0.118924  0  3.978111  0
C  C38  1  0.86174409  0.23846532  0.90241328  1  0  -0.093198  0  3.7106  0  0  -0.114849  0  3.961349  0  0  -0.118002  0  3.984083  0  0  -0.081168  -0.112471  0  3.944937  0
C  C39  1  0.13824485  0.76151828  0.09761167  1  0  -0.092978  0  3.710371  0  0  -0.114485  0  3.961274  0  0  -0.117626  0  3.984  0  0  -0.081158  -0.112113  0  3.944872  0
C  C40  1  0.97787300  0.17773061  0.90565469  1  0  -0.099359  0  3.746865  0  0  -0.123305  0  4.005765  0  0  -0.127271  0  4.030346  0  0  -0.083686  -0.120095  0  3.987704  0
C  C41  1  0.02211182  0.82224666  0.09436077  1  0  -0.099487  0  3.74736  0  0  -0.123444  0  4.006201  0  0  -0.127409  0  4.030787  0  0  -0.08372  -0.120265  0  3.988115  0
C  C42  1  0.10356434  0.29115652  0.12982538  1  0  0.130393  0  3.755331  0  0  0.12056  0  3.998494  0  0  0.125212  0  4.020709  0  0  0.117925  0.117778  0  3.983602  0
C  C43  1  0.89648677  0.70886551  0.87016280  1  0  0.130307  0  3.755641  0  0  0.120439  0  3.998762  0  0  0.1251  0  4.020977  0  0  0.117804  0.117652  0  3.983869  0
C  C44  1  0.10079413  0.20197802  0.01894800  1  0  0.023142  0  3.789631  0  0  0.037619  0  4.02752  0  0  0.034655  0  4.053189  0  0  -0.002927  0.039799  0  4.010368  0
C  C45  1  0.89923028  0.79801420  0.98104832  1  0  0.023183  0  3.789858  0  0  0.037688  0  4.027676  0  0  0.034714  0  4.053354  0  0  -0.002977  0.03987  0  4.010534  0
C  C46  1  0.22248304  0.14048554  0.02635777  1  0  -0.045091  0  3.691309  0  0  -0.071236  0  3.94343  0  0  -0.06892  0  3.96205  0  0  -0.065039  -0.072459  0  3.930839  0
C  C47  1  0.77757901  0.85953750  0.97363834  1  0  -0.04505  0  3.691336  0  0  -0.071302  0  3.943497  0  0  -0.068936  0  3.962129  0  0  -0.065172  -0.072549  0  3.930906  0
C  C48  1  0.33911947  0.16938619  0.13801895  1  0  -0.107096  0  3.717954  0  0  -0.119271  0  3.971058  0  0  -0.126478  0  3.991951  0  0  -0.080469  -0.115372  0  3.957074  0
C  C49  1  0.66094987  0.83064750  0.86197492  1  0  -0.107052  0  3.717878  0  0  -0.119254  0  3.970974  0  0  -0.126463  0  3.991853  0  0  -0.080426  -0.115357  0  3.957001  0
C  C50  1  0.33156581  0.25753373  0.24335412  1  0  0.148296  0  3.674697  0  0  0.115292  0  3.924641  0  0  0.124495  0  3.940608  0  0  0.060437  0.109951  0  3.913575  0
C  C51  1  0.66847498  0.74247867  0.75664689  1  0  0.148096  0  3.674786  0  0  0.11504  0  3.924784  0  0  0.124239  0  3.940762  0  0  0.060292  0.109686  0  3.913753  0
N  N52  1  0.21775288  0.31603695  0.23904828  1  0  -0.367086  0  3.238234  0  0  -0.293302  0  3.488301  0  0  -0.314126  0  3.50972  0  0  -0.296234  -0.279694  0  3.473512  0
N  N53  1  0.78229374  0.68398297  0.76093995  1  0  -0.367067  0  3.238409  0  0  -0.29322  0  3.488471  0  0  -0.314053  0  3.509898  0  0  -0.296086  -0.279608  0  3.47368  0
N  N54  1  0.98631914  0.44324401  0.23205545  1  0  -0.360112  0  3.19913  0  0  -0.286851  0  3.4483  0  0  -0.307657  0  3.470202  0  0  -0.292684  -0.272139  0  3.432906  0
N  N55  1  0.01374105  0.55683244  0.76790718  1  0  -0.359777  0  3.198789  0  0  -0.286697  0  3.447906  0  0  -0.30748  0  3.469796  0  0  -0.292516  -0.272001  0  3.432523  0
O  O56  1  0.93174931  0.31583599  0.49185222  1  0  -0.654582  0  2.039879  0  0  -0.594063  0  2.281956  0  0  -0.624058  0  2.275372  0  0  -0.305271  -0.57273  0  2.285851  0
O  O57  1  0.06817336  0.68411035  0.50818917  1  0  -0.654571  0  2.04  0  0  -0.594075  0  2.28218  0  0  -0.624076  0  2.275583  0  0  -0.305264  -0.572711  0  2.285965  0
O  O58  1  0.65798995  0.25487527  0.39532486  1  0  -0.583472  0  1.998921  0  0  -0.542564  0  2.23413  0  0  -0.568903  0  2.229192  0  0  -0.299446  -0.524099  0  2.23695  0
O  O59  1  0.34196057  0.74509576  0.60466714  1  0  -0.583174  0  1.99832  0  0  -0.542404  0  2.233752  0  0  -0.568733  0  2.22881  0  0  -0.299358  -0.523946  0  2.236551  0
O  O60  1  0.57715203  0.63526866  0.45008430  1  0  -0.627058  0  2.046232  0  0  -0.567506  0  2.28653  0  0  -0.59709  0  2.280404  0  0  -0.291452  -0.54639  0  2.289869  0
O  O61  1  0.42282779  0.36475534  0.54995261  1  0  -0.627002  0  2.045972  0  0  -0.567505  0  2.286211  0  0  -0.597081  0  2.280094  0  0  -0.291466  -0.546361  0  2.289441  0
O  O62  1  0.37823492  0.65394207  0.30160708  1  0  -0.57814  0  1.991806  0  0  -0.531182  0  2.226592  0  0  -0.558805  0  2.220586  0  0  -0.290102  -0.51223  0  2.230277  0
O  O63  1  0.62175955  0.34597588  0.69834614  1  0  -0.578035  0  1.991765  0  0  -0.531115  0  2.226608  0  0  -0.558738  0  2.220601  0  0  -0.29018  -0.512162  0  2.230278  0
F  F64  1  0.94353297  0.09156912  0.34837301  1  0  -0.202013  0  1.2061  0  0  -0.16695  0  1.372207  0  0  -0.174297  0  1.358968  0  0  -0.103754  -0.161633  0  1.381545  0
F  F65  1  0.05647670  0.90847129  0.65157115  1  0  -0.201993  0  1.206081  0  0  -0.166986  0  1.37219  0  0  -0.174329  0  1.358947  0  0  -0.103759  -0.161667  0  1.381516  0
F  F66  1  0.71939474  0.08288046  0.21328388  1  0  -0.210683  0  1.16915  0  0  -0.177658  0  1.336536  0  0  -0.185242  0  1.323871  0  0  -0.108353  -0.172149  0  1.345512  0
F  F67  1  0.28057275  0.91709699  0.78669759  1  0  -0.210661  0  1.169329  0  0  -0.177642  0  1.336681  0  0  -0.185227  0  1.324026  0  0  -0.108289  -0.172137  0  1.345641  0
F  F68  1  0.50975024  0.95439159  0.35674472  1  0  -0.17703  0  1.218714  0  0  -0.148066  0  1.394287  0  0  -0.155837  0  1.381093  0  0  -0.09188  -0.142422  0  1.40367  0
F  F69  1  0.49029395  0.04561827  0.64333616  1  0  -0.176903  0  1.218631  0  0  -0.147899  0  1.394356  0  0  -0.155673  0  1.381174  0  0  -0.091826  -0.142269  0  1.403617  0
F  F70  1  0.72723739  0.98212470  0.51039694  1  0  -0.185144  0  1.167792  0  0  -0.143142  0  1.319773  0  0  -0.153045  0  1.308845  0  0  -0.095919  -0.134976  0  1.326595  0
F  F71  1  0.27286626  0.01790776  0.48962401  1  0  -0.185396  0  1.167951  0  0  -0.143066  0  1.319824  0  0  -0.152969  0  1.308904  0  0  -0.095935  -0.13609  0  1.327681  0
F  F72  1  0.62923051  0.79359123  0.19479308  1  0  -0.214771  0  1.203716  0  0  -0.180698  0  1.378497  0  0  -0.188694  0  1.365417  0  0  -0.102335  -0.174862  0  1.3875  0
F  F73  1  0.37079905  0.20643708  0.80522291  1  0  -0.214614  0  1.203926  0  0  -0.180684  0  1.378512  0  0  -0.188677  0  1.365432  0  0  -0.102319  -0.174854  0  1.387502  0
F  F74  1  0.82191732  0.80822305  0.36049225  1  0  -0.191255  0  1.217641  0  0  -0.161412  0  1.392632  0  0  -0.168594  0  1.378755  0  0  -0.098202  -0.156365  0  1.402456  0
F  F75  1  0.17808085  0.19174787  0.63951152  1  0  -0.191128  0  1.217758  0  0  -0.161454  0  1.392562  0  0  -0.168633  0  1.378678  0  0  -0.098285  -0.156365  0  1.402332  0
