# generated using pymatgen
data_ZnH16C18N3O5
_symmetry_space_group_name_H-M   'P 1'
_cell_length_a   10.87062723
_cell_length_b   15.88447709
_cell_length_c   16.83448663
_cell_angle_alpha   87.48798084
_cell_angle_beta   89.73566405
_cell_angle_gamma   87.50761710
_symmetry_Int_Tables_number   1
_chemical_formula_structural   ZnH16C18N3O5
_chemical_formula_sum   'Zn2 H32 C36 N6 O10'
_cell_volume   2901.33072451
_cell_formula_units_Z   2
loop_
 _symmetry_equiv_pos_site_id
 _symmetry_equiv_pos_as_xyz
  1  'x, y, z'
loop_
 _atom_site_type_symbol
 _atom_site_label
 _atom_site_symmetry_multiplicity
 _atom_site_fract_x
 _atom_site_fract_y
 _atom_site_fract_z
 _atom_site_occupancy
 _atom_site_pbe_bader_charge
 _atom_site_pbe_bader_spin_density
 _atom_site_pbe_cm5_charge
 _atom_site_pbe_ddec_charge
 _atom_site_pbe_ddec_spin_density
 _atom_site_pbe_ddec_sum_bond_order
 _atom_site_pbe_magmom
Zn  Zn0  1  0.51007916  0.59200911  0.50637102  1  1.272538  0  0.663912  0.809916  0  2.408519  0
Zn  Zn1  1  0.52148209  0.41739042  0.49782854  1  1.281281  0  0.666252  0.81132  0  2.465941  0
H  H2  1  0.90058212  0.62429296  0.44009802  1  0.03733  0  0.086064  0.081224  0  0.997945  0
H  H3  1  0.89447515  0.53639107  0.38002895  1  0.029399  0  0.09062  0.087592  0  0.975813  0
H  H4  1  0.41270449  0.38494247  0.27282401  1  0.116968  0  0.110174  0.133534  0  0.991484  0
H  H5  1  0.69318531  0.72706849  0.49591687  1  0.145465  0  0.129199  0.108091  0  0.988892  0
H  H6  1  0.69003530  0.88740312  0.49183565  1  0.133553  0  0.117887  0.127268  0  0.996305  0
H  H7  1  0.69443275  0.13371462  0.39962984  1  0.116222  0  0.122397  0.13345  0  0.976211  0
H  H8  1  0.67128525  0.29324642  0.40618053  1  0.12504  0  0.134974  0.111452  0  0.960993  0
H  H9  1  0.31685988  0.72387189  0.52879066  1  0.162489  0  0.130781  0.109969  0  0.994694  0
H  H10  1  0.39581515  0.11656675  0.56853311  1  0.094411  0  0.118014  0.125771  0  1.001508  0
H  H11  1  0.29744339  0.88448055  0.52931657  1  0.105033  0  0.120555  0.130363  0  0.979516  0
H  H12  1  0.38834249  0.27624609  0.57009197  1  0.142449  0  0.132991  0.111063  0  0.969045  0
H  H13  1  0.13047515  0.38412342  0.55876070  1  0.003127  0  0.085288  0.08117  0  0.984851  0
H  H14  1  0.10925505  0.52230456  0.37378844  1  0.01187  0  0.090045  0.087296  0  0.975876  0
H  H15  1  0.11468413  0.61879905  0.42178758  1  0.050675  0  0.087692  0.08348  0  0.991335  0
H  H16  1  0.89730970  0.60527611  0.59081144  1  0.041519  0  0.086559  0.081982  0  0.994738  0
H  H17  1  0.10955876  0.61878828  0.57116656  1  0.011763  0  0.086124  0.082108  0  0.995868  0
H  H18  1  0.91628415  0.37522213  0.55059560  1  0.025953  0  0.086083  0.083951  0  0.993723  0
H  H19  1  0.92087432  0.38859920  0.44636491  1  0.006775  0  0.08398  0.078335  0  0.988729  0
H  H20  1  0.13610033  0.38378799  0.45434348  1  0.052962  0  0.086369  0.085127  0  0.996887  0
H  H21  1  0.30321490  0.72659181  0.70146842  1  0.036058  0  0.098505  0.098425  0  0.990402  0
H  H22  1  0.45600808  0.68126974  0.71713167  1  0.080688  0  0.09284  0.095189  0  1.005367  0
H  H23  1  0.35684963  0.70272617  0.80087968  1  0.043993  0  0.091157  0.084204  0  0.999439  0
H  H24  1  0.92153842  0.50290983  0.63476227  1  0.00326  0  0.090196  0.087428  0  0.974844  0
H  H25  1  0.15866527  0.31205652  0.10438185  1  0.051594  0  0.105136  0.109396  0  0.973938  0
H  H26  1  0.24957562  0.35682500  0.02441832  1  0.084096  0  0.097728  0.09604  0  1.033923  0
H  H27  1  0.15751169  0.42439932  0.08568234  1  0.07752  0  0.100587  0.10092  0  0.985052  0
H  H28  1  0.13291163  0.52489147  0.62914858  1  0.034512  0  0.090557  0.091965  0  0.984615  0
H  H29  1  0.29143341  0.58090364  0.88893112  1  0.099936  0  0.108394  0.125193  0  1.013653  0
H  H30  1  0.39797280  0.64606020  0.10050249  1  0.085286  0  0.104368  0.107561  0  0.99798  0
H  H31  1  0.46924836  0.65061329  0.24274632  1  0.099325  0  0.10279  0.112725  0  0.998231  0
H  H32  1  0.53055802  0.35207311  0.75665224  1  0.088747  0  0.104232  0.109464  0  0.991317  0
H  H33  1  0.49084851  0.34097768  0.90455666  1  0.080529  0  0.105211  0.110566  0  0.998548  0
C  C34  1  0.50130021  0.51461494  0.34767961  1  1.594084  0  0.209354  0.589125  0  4.174343  0
C  C35  1  0.44153747  0.59224789  0.21789330  1  -0.01542  0  -0.100599  -0.121626  0  4.015362  0
C  C36  1  0.34560987  0.53160057  0.85997648  1  0.014087  0  -0.097835  -0.269497  0  3.943974  0
C  C37  1  0.75453280  0.50608593  0.50952997  1  1.500765  0  0.225104  0.595939  0  4.089969  0
C  C38  1  0.36660249  0.53705517  0.77827665  1  0.48319  0  0.088455  0.248087  0  4.029081  0
C  C39  1  0.39382337  0.46172887  0.90546068  1  0.346059  0  0.082674  0.186351  0  4.076847  0
C  C40  1  0.43845154  0.47367333  0.74105720  1  -0.019065  0  -0.016705  -0.118406  0  3.920181  0
C  C41  1  0.47907020  0.40189582  0.78668124  1  -0.09203  0  -0.087726  -0.077643  0  4.013123  0
C  C42  1  0.45706156  0.39537264  0.86798798  1  0.01513  0  -0.092611  -0.166516  0  3.992692  0
C  C43  1  0.45309723  0.24132962  0.53282843  1  0.510554  0  0.065988  0.114619  0  3.901117  0
C  C44  1  0.45773058  0.15403450  0.53205293  1  0.005112  0  -0.070958  -0.184253  0  3.918624  0
C  C45  1  0.13521382  0.50815844  0.50147675  1  0.089606  0  -0.018134  0.024934  0  3.806291  0
C  C46  1  0.54599450  0.11446549  0.48347924  1  0.328721  0  0.10417  0.197913  0  4.035135  0
C  C47  1  0.62533112  0.16375673  0.43737754  1  -0.002762  0  -0.065106  -0.182206  0  3.910575  0
C  C48  1  0.61322458  0.25111256  0.44099153  1  0.505879  0  0.069457  0.117648  0  3.897105  0
C  C49  1  0.47529918  0.48097879  0.65513864  1  1.560902  0  0.214602  0.610673  0  4.16953  0
C  C50  1  0.60613994  0.85302649  0.50013798  1  0.055357  0  -0.071151  -0.186658  0  3.914049  0
C  C51  1  0.60829004  0.76549413  0.50228137  1  0.459412  0  0.064682  0.111253  0  3.894166  0
C  C52  1  0.49222890  0.89664087  0.50922742  1  0.273316  0  0.1061  0.201238  0  4.042466  0
C  C53  1  0.39601518  0.76349518  0.52145856  1  0.499888  0  0.065211  0.108909  0  3.901212  0
C  C54  1  0.38594633  0.85105092  0.52126615  1  -0.045776  0  -0.067209  -0.185092  0  3.920365  0
C  C55  1  0.27501677  0.51184837  0.49718375  1  1.524861  0  0.222565  0.590023  0  4.092198  0
C  C56  1  0.08571960  0.55224505  0.57581361  1  -0.011661  0  -0.160875  -0.172655  0  3.8626  0
C  C57  1  0.93652006  0.55918677  0.43394210  1  -0.061974  0  -0.159879  -0.170218  0  3.867542  0
C  C58  1  0.07868829  0.55516522  0.42711088  1  -0.033842  0  -0.158511  -0.169865  0  3.85904  0
C  C59  1  0.94461598  0.54365971  0.58273979  1  -0.024271  0  -0.158193  -0.168149  0  3.858936  0
C  C60  1  0.95193281  0.41529396  0.50167439  1  0.003274  0  -0.166988  -0.176077  0  3.898087  0
C  C61  1  0.89507202  0.50513624  0.50706496  1  0.09486  0  -0.017303  0.023169  0  3.800638  0
C  C62  1  0.36038583  0.68253099  0.73904290  1  0.376338  0  -0.139102  -0.158605  0  3.937782  0
C  C63  1  0.21405582  0.36526468  0.08490135  1  0.369098  0  -0.137787  -0.170565  0  3.924672  0
C  C64  1  0.09398252  0.41675777  0.50428217  1  -0.071117  0  -0.167121  -0.178242  0  3.895273  0
C  C65  1  0.45209175  0.51664583  0.26444991  1  -0.070224  0  -0.011766  0.006758  0  3.970491  0
C  C66  1  0.41056713  0.44231752  0.23487483  1  0.036272  0  -0.096383  -0.210478  0  3.960756  0
C  C67  1  0.36221906  0.44011682  0.15819960  1  0.43634  0  0.095436  0.198295  0  4.016346  0
C  C68  1  0.36704767  0.51402752  0.10709520  1  0.451982  0  0.07615  0.056659  0  4.039452  0
C  C69  1  0.39977235  0.59010080  0.14046691  1  -0.05666  0  -0.087664  -0.133478  0  4.004379  0
N  N70  1  0.35873863  0.52019510  0.02387574  1  -0.546594  0  -0.15969  -0.135436  0  3.323331  0
N  N71  1  0.38738133  0.45242875  0.98914364  1  -0.474681  0  -0.158794  -0.146129  0  3.301857  0
N  N72  1  0.52949585  0.28862108  0.48824862  1  -1.225696  0  -0.309065  -0.182893  0  3.496461  0
N  N73  1  0.56303828  0.02557812  0.47919558  1  -0.464552  0  -0.129392  -0.115786  0  3.224003  0
N  N74  1  0.47525892  0.98546149  0.50937131  1  -0.455964  0  -0.130849  -0.115705  0  3.252897  0
N  N75  1  0.50517025  0.72184656  0.51219399  1  -1.212868  0  -0.307881  -0.180997  0  3.477452  0
O  O76  1  0.49878890  0.58387598  0.38312764  1  -1.167099  0  -0.32111  -0.54847  0  2.28953  0
O  O77  1  0.31327414  0.36576962  0.14048853  1  -1.077412  0  -0.187927  -0.159193  0  2.582291  0
O  O78  1  0.53957179  0.44288314  0.37706919  1  -1.168623  0  -0.328434  -0.563506  0  2.320355  0
O  O79  1  0.69774145  0.57818330  0.50545526  1  -1.170637  0  -0.319643  -0.559586  0  2.352894  0
O  O80  1  0.70316742  0.43559007  0.51498020  1  -1.163289  0  -0.316796  -0.546812  0  2.349455  0
O  O81  1  0.50259885  0.55326272  0.62672363  1  -1.155153  0  -0.313423  -0.546667  0  2.31707  0
O  O82  1  0.48012907  0.41258044  0.61802687  1  -1.155946  0  -0.32243  -0.558506  0  2.30976  0
O  O83  1  0.32124719  0.58277196  0.50829962  1  -1.175807  0  -0.316621  -0.550795  0  2.344919  0
O  O84  1  0.33632178  0.44431947  0.48218717  1  -1.174232  0  -0.316283  -0.548891  0  2.353329  0
O  O85  1  0.30975824  0.60142610  0.73239432  1  -1.0741  0  -0.209662  -0.195532  0  2.5392  0
