# generated using pymatgen
data_Co2H28C42N4O9
_symmetry_space_group_name_H-M   'P 1'
_cell_length_a   16.53227730
_cell_length_b   16.52868106
_cell_length_c   24.04460297
_cell_angle_alpha   90.12156640
_cell_angle_beta   89.93992625
_cell_angle_gamma   120.02235459
_symmetry_Int_Tables_number   1
_chemical_formula_structural   Co2H28C42N4O9
_chemical_formula_sum   'Co6 H84 C126 N12 O27'
_cell_volume   5688.79484490
_cell_formula_units_Z   3
loop_
 _symmetry_equiv_pos_site_id
 _symmetry_equiv_pos_as_xyz
  1  'x, y, z'
loop_
 _atom_site_type_symbol
 _atom_site_label
 _atom_site_symmetry_multiplicity
 _atom_site_fract_x
 _atom_site_fract_y
 _atom_site_fract_z
 _atom_site_occupancy
 _atom_site_pbe_bader_charge
 _atom_site_pbe_bader_spin_density
 _atom_site_pbe_cm5_charge
 _atom_site_pbe_ddec_charge
 _atom_site_pbe_ddec_spin_density
 _atom_site_pbe_ddec_sum_bond_order
 _atom_site_pbe_magmom
Co  Co0  1  0.58063650  0.88063420  0.02251993  1  1.310606  2.627574  0.672232  0.92401  2.853708  2.477444  2.611
Co  Co1  1  0.30001082  0.41928644  0.68927174  1  1.30613  2.628012  0.671621  0.923845  2.853884  2.475492  2.611
Co  Co2  1  0.12089461  0.70171430  0.35553750  1  1.31316  2.62934  0.676946  0.929783  2.85647  2.483781  2.613
Co  Co3  1  0.70157740  0.12069592  0.97788972  1  1.313569  2.629005  0.677082  0.929726  2.856134  2.48487  2.613
Co  Co4  1  0.88081753  0.58076669  0.31082684  1  1.309447  2.627474  0.671955  0.923349  2.853181  2.477237  2.611
Co  Co5  1  0.41908385  0.29834260  0.64447961  1  1.312029  2.629072  0.677184  0.930095  2.856002  2.483478  2.613
H  H6  1  0.45486797  0.78852771  0.86751011  1  0.06787  0.000194  0.101159  0.097522  -4.4e-05  1.047397  0.0
H  H7  1  0.33345992  0.54511074  0.53438226  1  0.083558  0.000202  0.101083  0.097711  -3.5e-05  1.047748  0.0
H  H8  1  0.21219128  0.66696517  0.20117356  1  0.116621  0.000292  0.10087  0.096848  2.6e-05  1.046996  0.0
H  H9  1  0.66665752  0.21198410  0.13223432  1  0.086032  0.000294  0.100815  0.097173  2.8e-05  1.047167  0.0
H  H10  1  0.78856586  0.45480178  0.46568095  1  0.066363  0.000194  0.101091  0.097576  -3.4e-05  1.047594  0.0
H  H11  1  0.54529676  0.33310567  0.79870447  1  0.080968  0.000293  0.100819  0.09675  3.5e-05  1.047278  0.0
H  H12  1  0.35374829  0.86363972  0.72228344  1  0.062392  2.2e-05  0.102092  0.099948  -5.5e-05  1.02081  0.0
H  H13  1  0.50992684  0.64633625  0.38905464  1  0.046837  1e-05  0.102223  0.100188  -5.2e-05  1.020607  0.0
H  H14  1  0.13633264  0.49034897  0.05567090  1  0.056476  -1.6e-05  0.102011  0.100228  -0.000106  1.020726  0.0
H  H15  1  0.49038494  0.13639042  0.27767714  1  0.056416  -1.7e-05  0.102009  0.100168  -0.000107  1.020717  0.0
H  H16  1  0.86356335  0.35367981  0.61095915  1  0.064654  1.5e-05  0.102204  0.100263  -5.2e-05  1.020353  0.0
H  H17  1  0.64609275  0.50965794  0.94422925  1  0.048442  -3.3e-05  0.102307  0.100521  -0.000107  1.020334  0.0
H  H18  1  0.49857138  0.06523913  0.85243575  1  0.073459  0.000147  0.105008  0.108323  -5.5e-05  1.021938  0.0
H  H19  1  0.56654984  0.50161985  0.51880303  1  0.081875  0.000186  0.105345  0.108949  -1.7e-05  1.02116  0.0
H  H20  1  0.93535064  0.43379778  0.18599439  1  0.108944  0.000163  0.104819  0.108219  -9.5e-05  1.022331  0.0
H  H21  1  0.43360770  0.93510505  0.14728481  1  0.107699  0.00016  0.105032  0.10864  -9.7e-05  1.022549  0.0
H  H22  1  0.06519408  0.49847537  0.48114137  1  0.091138  0.000181  0.105031  0.108448  -1.9e-05  1.02197  0.0
H  H23  1  0.50165474  0.56622769  0.81424012  1  0.068152  0.000178  0.10521  0.109125  -6e-05  1.022163  0.0
H  H24  1  0.38621031  0.10672686  0.82327907  1  0.054731  0.001033  0.112057  0.121552  0.00048  0.987988  0.0
H  H25  1  0.72032602  0.61421538  0.48966986  1  0.062681  0.001068  0.111646  0.120756  0.000483  0.988782  0.0
H  H26  1  0.89355831  0.27997504  0.15662950  1  0.055415  0.001029  0.112221  0.121727  0.000481  0.988013  0.0
H  H27  1  0.27978137  0.89334151  0.17667993  1  0.05498  0.001026  0.112302  0.121889  0.000479  0.987481  0.0
H  H28  1  0.10634015  0.38584891  0.51029915  1  0.060809  0.001063  0.111593  0.120757  0.00048  0.988974  0.0
H  H29  1  0.61397599  0.72001309  0.84360855  1  0.060936  0.001061  0.111903  0.120961  0.000482  0.988614  0.0
H  H30  1  0.37026796  0.22343807  0.76628311  1  0.124838  0.001733  0.12218  0.096902  0.0004  0.99373  0.001
H  H31  1  0.85237150  0.62820840  0.43264151  1  0.128797  0.001806  0.12125  0.095591  0.000535  0.994714  0.001
H  H32  1  0.77659479  0.14703167  0.09951876  1  0.124817  0.001728  0.122196  0.096563  0.000396  0.994028  0.001
H  H33  1  0.14700781  0.77660924  0.23375095  1  0.133318  0.001724  0.122158  0.096583  0.000397  0.993432  0.001
H  H34  1  0.22416426  0.37178513  0.56728685  1  0.126625  0.001796  0.12143  0.095741  0.000531  0.994573  0.001
H  H35  1  0.62804580  0.85217069  0.90072021  1  0.12904  0.001802  0.121518  0.095936  0.00053  0.994831  0.001
H  H36  1  0.41710597  0.12138696  0.62009029  1  0.118364  0.001591  0.11654  0.085944  0.000488  1.018452  0.001
H  H37  1  0.70365987  0.58038707  0.28662996  1  0.117857  0.001294  0.117088  0.087106  0.000123  1.019327  0.001
H  H38  1  0.87824579  0.29538147  0.95346426  1  0.120954  0.001588  0.116811  0.089297  0.000495  1.015995  0.001
H  H39  1  0.29576323  0.87859572  0.37984251  1  0.120658  0.001592  0.116557  0.086182  0.00049  1.018539  0.001
H  H40  1  0.12293604  0.41963978  0.71333863  1  0.118033  0.001287  0.117186  0.08721  0.000124  1.018847  0.001
H  H41  1  0.58032151  0.70359627  0.04662734  1  0.120065  0.001295  0.117194  0.087178  0.000123  1.019557  0.001
H  H42  1  0.43383882  0.99879942  0.67042164  1  0.054199  0.000935  0.106237  0.112097  0.000437  1.000009  0.0
H  H43  1  0.56473171  0.56557992  0.33700258  1  0.05605  0.000846  0.105963  0.111437  0.000401  0.999617  0.0
H  H44  1  0.00111457  0.43497684  0.00388094  1  0.063317  0.000923  0.10621  0.112468  0.000432  0.99956  0.0
H  H45  1  0.43519191  0.00124764  0.32945840  1  0.087143  0.00091  0.106176  0.112103  0.000429  0.999685  0.0
H  H46  1  0.99903316  0.43452487  0.66300225  1  0.048979  0.000845  0.105936  0.111317  0.000398  1.00021  0.0
H  H47  1  0.56545177  0.56455610  0.99619228  1  0.057105  0.000831  0.105917  0.111317  0.000393  1.000123  0.0
H  H48  1  0.33776404  0.60628524  0.64350413  1  0.080568  0.001535  0.11679  0.09018  0.000243  1.004769  0.001
H  H49  1  0.26855780  0.66064171  0.31029697  1  0.084507  0.001728  0.117064  0.090058  0.000496  1.003201  0.001
H  H50  1  0.39317483  0.73100579  0.97690493  1  0.084469  0.001537  0.117134  0.090559  0.000246  1.004079  0.001
H  H51  1  0.73135017  0.39357324  0.35649503  1  0.081574  0.00154  0.11691  0.090232  0.000244  1.004599  0.001
H  H52  1  0.60752142  0.33928573  0.68976092  1  0.0826  0.00173  0.117116  0.090236  0.000497  1.004011  0.001
H  H53  1  0.66063975  0.26868795  0.02303477  1  0.083948  0.001731  0.117194  0.090122  0.000496  1.002654  0.001
H  H54  1  0.38804788  0.76553789  0.68069290  1  0.049438  0.001008  0.106117  0.111301  0.000496  1.004003  0.0
H  H55  1  0.37780824  0.61127343  0.34759928  1  0.074338  0.000965  0.106492  0.111902  0.00045  1.003231  0.0
H  H56  1  0.23412706  0.62244643  0.01418740  1  0.055816  0.000993  0.105907  0.111026  0.000488  1.004191  0.0
H  H57  1  0.62254128  0.23437917  0.31918402  1  0.056714  0.000997  0.106119  0.111297  0.000491  1.004297  0.0
H  H58  1  0.76628765  0.38858666  0.65243719  1  0.083034  0.000967  0.106488  0.111846  0.000453  1.003473  0.0
H  H59  1  0.61116235  0.37777171  0.98561444  1  0.075407  0.00095  0.106595  0.112157  0.000443  1.003052  0.0
H  H60  1  0.34279196  0.64757938  0.84586417  1  0.034777  0.001035  0.106922  0.114392  0.00049  1.001633  0.0
H  H61  1  0.30422488  0.65699754  0.51267910  1  0.032114  0.00096  0.107312  0.114895  0.000439  1.000346  0.0
H  H62  1  0.35300848  0.69574872  0.17927636  1  0.032038  0.001036  0.106572  0.113774  0.000489  1.001692  0.0
H  H63  1  0.69549579  0.35280173  0.15411576  1  0.033702  0.001039  0.106772  0.113955  0.000491  1.001623  0.0
H  H64  1  0.64745641  0.34300080  0.48736935  1  0.032963  0.000962  0.107224  0.114713  0.000442  1.000515  0.0
H  H65  1  0.65710619  0.30396276  0.82063468  1  0.031299  0.000961  0.106967  0.114367  0.000439  1.000649  0.0
H  H66  1  0.29609628  0.49392658  0.80102534  1  0.135341  0.001748  0.121934  0.098641  0.000515  0.994343  0.001
H  H67  1  0.19673957  0.70263405  0.46763738  1  0.128433  0.00165  0.12252  0.100332  0.000349  0.995226  0.001
H  H68  1  0.50644088  0.80231912  0.13436405  1  0.142692  0.001736  0.121999  0.099079  0.00051  0.994328  0.001
H  H69  1  0.80232812  0.50637187  0.19905710  1  0.129896  0.001743  0.121914  0.099151  0.000513  0.994216  0.001
H  H70  1  0.49417676  0.29744376  0.53243612  1  0.1383  0.001656  0.122692  0.100552  0.00035  0.995194  0.001
H  H71  1  0.70278166  0.19658931  0.86577789  1  0.133269  0.001647  0.122746  0.10079  0.000347  0.994962  0.001
H  H72  1  0.91159728  0.98628856  0.13894236  1  0.111086  0.000159  0.103705  0.107359  5.4e-05  1.003709  0.0
H  H73  1  0.07461334  0.08865441  0.80578762  1  0.110636  0.000162  0.104062  0.108093  5.8e-05  1.003706  0.0
H  H74  1  0.01437825  0.92510559  0.47223877  1  0.117187  0.000168  0.104001  0.108378  6.2e-05  1.003993  0.0
H  H75  1  0.92488642  0.01398176  0.86131733  1  0.110182  0.000167  0.103722  0.107848  5.8e-05  1.004223  0.0
H  H76  1  0.98634905  0.91153962  0.19445346  1  0.110036  0.00016  0.103657  0.107361  5.4e-05  1.004037  0.0
H  H77  1  0.08932610  0.07503210  0.52780291  1  0.115087  0.000167  0.104021  0.108178  6.2e-05  1.003698  0.0
H  H78  1  0.65209795  0.72694731  0.13954206  1  0.081283  0.00017  0.095869  0.095918  4.1e-05  1.019804  0.0
H  H79  1  0.07472623  0.34808029  0.80639485  1  0.035716  0.000182  0.095763  0.095999  4.4e-05  1.02015  0.0
H  H80  1  0.27337986  0.92448098  0.47330860  1  0.066103  0.00028  0.095542  0.095501  0.000111  1.02036  0.0
H  H81  1  0.92441464  0.27313037  0.86018739  1  0.069667  0.000277  0.0957  0.095593  0.000107  1.020744  0.0
H  H82  1  0.72690983  0.65212170  0.19376008  1  0.081752  0.00017  0.09582  0.09604  4.1e-05  1.019685  0.0
H  H83  1  0.34888646  0.07548055  0.52667199  1  0.069145  0.000279  0.095523  0.095367  0.00011  1.020284  0.0
H  H84  1  0.74225435  0.99516460  0.96532166  1  0.650909  0.000335  0.287822  0.380793  0.000447  0.969314  0.001
H  H85  1  0.25298031  0.25768842  0.63198825  1  0.651849  0.000347  0.287985  0.381125  0.000455  0.968748  0.001
H  H86  1  0.00596506  0.74761549  0.29768248  1  0.652349  -0.00011  0.288059  0.381745  -9e-05  0.968382  0.0
H  H87  1  0.74756035  0.00579791  0.03568503  1  0.653061  -0.000113  0.287973  0.381569  -9.2e-05  0.968622  0.0
H  H88  1  0.99539856  0.74238831  0.36804014  1  0.650563  0.000343  0.287961  0.380841  0.000454  0.969102  0.001
H  H89  1  0.25823139  0.25244394  0.70234927  1  0.656479  -0.00012  0.288042  0.381702  -9.3e-05  0.968417  0.0
C  C90  1  0.53092237  0.95426772  0.91981245  1  1.596049  -0.002731  0.22022  0.598217  -0.003424  4.164472  -0.002
C  C91  1  0.42329519  0.46903158  0.58640631  1  1.59208  -0.002687  0.2204  0.598748  -0.003313  4.162967  -0.002
C  C92  1  0.04634791  0.57634086  0.25368921  1  1.588197  -0.007435  0.219272  0.596943  -0.008575  4.164343  -0.005
C  C93  1  0.57619244  0.04618718  0.07965892  1  1.587353  -0.007429  0.219209  0.596897  -0.008577  4.163298  -0.005
C  C94  1  0.95443067  0.53099482  0.41360055  1  1.594258  -0.002609  0.220339  0.598783  -0.003325  4.164648  -0.002
C  C95  1  0.46995243  0.42369697  0.74638387  1  1.585597  -0.007439  0.21918  0.596467  -0.008616  4.165174  -0.005
C  C96  1  0.47851701  0.92812613  0.86550775  1  -0.014574  0.012074  -0.013461  -0.011198  0.006293  3.974348  0.01
C  C97  1  0.44948889  0.52154109  0.53217279  1  -0.016762  0.011678  -0.01306  -0.010567  0.006101  3.973408  0.009
C  C98  1  0.07250766  0.55085005  0.19917686  1  0.021809  0.012264  -0.01325  -0.010722  0.006252  3.976625  0.01
C  C99  1  0.55062691  0.07230860  0.13416361  1  -0.033725  0.012302  -0.013307  -0.010839  0.006265  3.977679  0.01
C  C100  1  0.92815836  0.47844650  0.46782201  1  -0.020998  0.011694  -0.013419  -0.011465  0.006112  3.974104  0.009
C  C101  1  0.52172848  0.44920937  0.80082060  1  0.013903  0.011873  -0.013182  -0.010251  0.00607  3.976056  0.01
C  C102  1  0.44423226  0.83843429  0.84369528  1  -0.002074  -0.006797  -0.081094  -0.140253  -0.00721  3.927543  -0.004
C  C103  1  0.39408723  0.55579693  0.51053284  1  -0.053289  -0.005602  -0.081282  -0.141346  -0.005988  3.928944  -0.003
C  C104  1  0.16208273  0.60630324  0.17733732  1  -0.085462  -0.00811  -0.081776  -0.142195  -0.008578  3.929446  -0.005
C  C105  1  0.60606737  0.16192841  0.15605280  1  -0.044569  -0.008083  -0.081634  -0.142404  -0.008541  3.931233  -0.005
C  C106  1  0.83845478  0.44412969  0.48951240  1  0.001972  -0.005576  -0.080931  -0.140457  -0.005968  3.929518  -0.003
C  C107  1  0.55588081  0.39379064  0.82254257  1  -0.083014  -0.006869  -0.081585  -0.142168  -0.007309  3.930604  -0.004
C  C108  1  0.40129980  0.81467232  0.79123130  1  -0.019525  0.002339  -0.011032  0.061851  0.00072  4.023763  0.003
C  C109  1  0.41334494  0.59870115  0.45811308  1  0.015127  0.002033  -0.011139  0.061445  0.0007  4.025111  0.002
C  C110  1  0.18557221  0.58706531  0.12477524  1  0.006825  0.002611  -0.011022  0.063104  0.000841  4.022887  0.003
C  C111  1  0.58690631  0.18552541  0.20860486  1  0.008228  0.002615  -0.010823  0.06331  0.000837  4.022949  0.003
C  C112  1  0.81469637  0.40123574  0.54192881  1  -0.01628  0.002033  -0.010786  0.061647  0.000695  4.02579  0.002
C  C113  1  0.59860765  0.41304568  0.87505822  1  -0.00641  0.002327  -0.01155  0.061527  0.000823  4.02471  0.002
C  C114  1  0.39074921  0.88215939  0.76194035  1  -0.044491  -0.008274  -0.083272  -0.166998  -0.008603  3.926458  -0.005
C  C115  1  0.49143887  0.60941761  0.42870142  1  -0.049196  -0.006402  -0.083053  -0.166661  -0.006658  3.926495  -0.004
C  C116  1  0.11798039  0.50893075  0.09539324  1  -0.006839  -0.01045  -0.083341  -0.167931  -0.010916  3.925645  -0.006
C  C117  1  0.50886194  0.11794530  0.23795361  1  -0.00721  -0.010474  -0.08363  -0.168259  -0.010943  3.925685  -0.006
C  C118  1  0.88205950  0.39059754  0.57131071  1  -0.047058  -0.006423  -0.08319  -0.166853  -0.006676  3.926088  -0.004
C  C119  1  0.60924537  0.49116255  0.90452489  1  -0.031521  -0.008756  -0.083427  -0.167674  -0.009137  3.926743  -0.005
C  C120  1  0.46856087  0.99483323  0.83540918  1  -0.034573  -0.006586  -0.076491  -0.132604  -0.007093  3.915889  -0.004
C  C121  1  0.52618129  0.53162709  0.50193438  1  -0.014475  -0.005018  -0.076549  -0.132942  -0.005469  3.915387  -0.003
C  C122  1  0.00565364  0.47416594  0.16893143  1  -0.068799  -0.008606  -0.076987  -0.133404  -0.00914  3.914654  -0.005
C  C123  1  0.47399170  0.00546998  0.16436332  1  -0.020892  -0.00866  -0.077017  -0.133653  -0.009181  3.915156  -0.005
C  C124  1  0.99475913  0.46842942  0.49802521  1  -0.049137  -0.005044  -0.076113  -0.131723  -0.005493  3.914277  -0.003
C  C125  1  0.53161264  0.52586493  0.83115777  1  0.001382  -0.007123  -0.07676  -0.134003  -0.00762  3.913231  -0.004
C  C126  1  0.42354710  0.97216186  0.78360844  1  -0.01081  0.002172  -0.009233  0.063003  0.000698  4.02586  0.002
C  C127  1  0.54861702  0.57669033  0.45020211  1  -0.012666  0.001793  -0.008303  0.063999  0.000548  4.024835  0.002
C  C128  1  0.02808458  0.45173295  0.11705403  1  -0.068728  0.002551  -0.009289  0.063085  0.000861  4.026311  0.003
C  C129  1  0.45166672  0.02797615  0.21625653  1  -0.070352  0.002558  -0.009373  0.062769  0.000869  4.026421  0.003
C  C130  1  0.97204522  0.42339393  0.54977756  1  -0.011193  0.001793  -0.008585  0.063269  0.000557  4.023915  0.002
C  C131  1  0.57650815  0.54829513  0.88298707  1  -0.011253  0.002214  -0.008293  0.064413  0.000727  4.024848  0.002
C  C132  1  0.41239084  0.04227076  0.75189570  1  0.023994  -0.012902  0.008788  0.109671  -0.013514  3.999183  -0.008
C  C133  1  0.62973299  0.58750652  0.41835562  1  -0.076907  -0.01144  0.007762  0.108523  -0.011977  4.003062  -0.007
C  C134  1  0.95784426  0.37032988  0.08530046  1  -0.00312  -0.013206  0.008768  0.109476  -0.01381  3.998955  -0.009
C  C135  1  0.37035539  0.95779650  0.24800687  1  -0.002658  -0.013017  0.008908  0.109761  -0.013613  3.997884  -0.008
C  C136  1  0.04228973  0.41260763  0.58161787  1  -0.06901  -0.011212  0.007766  0.10867  -0.011749  4.002654  -0.007
C  C137  1  0.58730045  0.62946908  0.91486811  1  0.012986  -0.011501  0.008318  0.109013  -0.012034  4.001257  -0.007
C  C138  1  0.39487589  0.10784395  0.77828700  1  -0.017481  0.005863  -0.084637  -0.183161  0.002708  3.945624  0.005
C  C139  1  0.71268679  0.60495281  0.44470604  1  -0.010046  0.005607  -0.084989  -0.183648  0.002581  3.948366  0.004
C  C140  1  0.89232038  0.28732955  0.11164559  1  0.018495  0.005987  -0.084334  -0.182783  0.00277  3.945255  0.005
C  C141  1  0.28726953  0.89221370  0.22166655  1  0.017616  0.005953  -0.084409  -0.183214  0.002759  3.945129  0.005
C  C142  1  0.10783907  0.39512057  0.55526104  1  -0.003857  0.005566  -0.084902  -0.183777  0.002566  3.948774  0.004
C  C143  1  0.60475049  0.71242034  0.88856156  1  -0.012156  0.005684  -0.085078  -0.183312  0.002627  3.946647  0.004
C  C144  1  0.38615774  0.17350156  0.74676320  1  0.474785  -0.008444  0.050566  0.110249  -0.009241  3.941308  -0.005
C  C145  1  0.78667860  0.61254887  0.41316046  1  0.469176  -0.006909  0.050598  0.110945  -0.007434  3.943665  -0.004
C  C146  1  0.82652452  0.21282422  0.08008007  1  0.462395  -0.008616  0.050682  0.111185  -0.009427  3.941128  -0.005
C  C147  1  0.21284612  0.82654432  0.25322504  1  0.454944  -0.008486  0.05055  0.111232  -0.009295  3.94076  -0.005
C  C148  1  0.17412517  0.38748075  0.58679945  1  0.468443  -0.00677  0.050268  0.110768  -0.00729  3.943345  -0.004
C  C149  1  0.61237777  0.78646926  0.92014573  1  0.471584  -0.006941  0.050564  0.110868  -0.007473  3.941931  -0.004
C  C150  1  0.41081850  0.11519621  0.66520130  1  0.490061  -0.007241  0.043735  0.093437  -0.00778  3.974974  -0.004
C  C151  1  0.70372186  0.58721661  0.33169956  1  0.486745  -0.00723  0.04449  0.094718  -0.008185  3.975562  -0.005
C  C152  1  0.88464124  0.29551772  0.99856783  1  0.496472  -0.007394  0.043517  0.090603  -0.007967  3.975816  -0.005
C  C153  1  0.29575342  0.88483276  0.33473382  1  0.500009  -0.007266  0.04347  0.092658  -0.007831  3.976589  -0.005
C  C154  1  0.11633118  0.41282743  0.66827059  1  0.504173  -0.007097  0.043855  0.093642  -0.00804  3.974632  -0.004
C  C155  1  0.58709089  0.70358024  0.00156443  1  0.486413  -0.007262  0.044183  0.094482  -0.008215  3.975136  -0.005
C  C156  1  0.41921705  0.04679318  0.69360359  1  -0.086807  0.005379  -0.090077  -0.18554  0.00234  3.96793  0.004
C  C157  1  0.62726373  0.58000453  0.36010756  1  -0.009063  0.004835  -0.09012  -0.185385  0.002158  3.966992  0.004
C  C158  1  0.95316203  0.37242618  0.02701365  1  -0.092229  0.005503  -0.089971  -0.185856  0.002394  3.969189  0.005
C  C159  1  0.37259803  0.95325746  0.30629859  1  -0.120216  0.005453  -0.089689  -0.184963  0.002374  3.967834  0.004
C  C160  1  0.04717993  0.42009664  0.63986920  1  -0.006948  0.004785  -0.090137  -0.185093  0.002141  3.966612  0.004
C  C161  1  0.57984191  0.62706697  0.97311043  1  -0.093126  0.004883  -0.090412  -0.1857  0.002185  3.966789  0.004
C  C162  1  0.33866063  0.61897587  0.68808447  1  0.551154  -0.009294  0.045198  0.092527  -0.010074  3.964873  -0.005
C  C163  1  0.28014263  0.66004402  0.35489156  1  0.544451  -0.005216  0.046167  0.094676  -0.005803  3.966053  -0.003
C  C164  1  0.38076688  0.71949166  0.02149437  1  0.50979  -0.009172  0.046005  0.093311  -0.009973  3.964893  -0.005
C  C165  1  0.71968407  0.38099905  0.31191036  1  0.553216  -0.009292  0.045205  0.092408  -0.010097  3.964687  -0.005
C  C166  1  0.61986022  0.33989666  0.64517016  1  0.547  -0.005299  0.046263  0.094412  -0.005895  3.966136  -0.003
C  C167  1  0.66000683  0.28013464  0.97843212  1  0.543601  -0.005131  0.046656  0.095214  -0.005728  3.96506  -0.003
C  C168  1  0.36643400  0.70725913  0.70931768  1  -0.049769  0.005724  -0.089781  -0.185044  0.002545  3.966904  0.005
C  C169  1  0.34087011  0.63278784  0.37617871  1  -0.073037  0.004501  -0.089516  -0.185917  0.002014  3.964419  0.004
C  C170  1  0.29254882  0.65918028  0.04278504  1  -0.013879  0.005686  -0.089821  -0.185177  0.002539  3.967032  0.005
C  C171  1  0.65923806  0.29273441  0.29060623  1  -0.054272  0.005738  -0.089898  -0.185296  0.002559  3.966969  0.005
C  C172  1  0.70788904  0.36708516  0.62387191  1  -0.082203  0.004516  -0.089387  -0.185383  0.002026  3.965173  0.004
C  C173  1  0.63270442  0.34078363  0.95707790  1  -0.071056  0.004481  -0.089476  -0.185898  0.002014  3.964082  0.004
C  C174  1  0.36970015  0.72137668  0.76713736  1  -0.021919  -0.015402  0.00764  0.109663  -0.016121  3.99286  -0.01
C  C175  1  0.35152294  0.62992667  0.43401488  1  -0.02697  -0.010222  0.008908  0.112396  -0.010726  3.991589  -0.007
C  C176  1  0.27874678  0.64863098  0.10061569  1  -0.024947  -0.015314  0.007243  0.108693  -0.016021  3.993925  -0.01
C  C177  1  0.64854043  0.27877489  0.23277522  1  -0.024665  -0.015484  0.00735  0.109198  -0.016193  3.99375  -0.01
C  C178  1  0.72156951  0.36998792  0.56603487  1  -0.028117  -0.010368  0.008917  0.112077  -0.010875  3.992888  -0.007
C  C179  1  0.62984622  0.35129106  0.89923163  1  -0.027305  -0.010186  0.009226  0.112293  -0.010674  3.991661  -0.007
C  C180  1  0.34325859  0.64242039  0.80067333  1  0.085185  0.006198  -0.088911  -0.187439  0.002714  3.963475  0.005
C  C181  1  0.29869695  0.65623053  0.46748950  1  -0.017182  0.005081  -0.088151  -0.186863  0.002327  3.958942  0.004
C  C182  1  0.35791289  0.70121059  0.13409088  1  0.025745  0.006232  -0.088477  -0.18653  0.002737  3.963319  0.005
C  C183  1  0.70107120  0.35783447  0.19930639  1  0.021493  0.006266  -0.088584  -0.186553  0.002746  3.963084  0.005
C  C184  1  0.64254378  0.34374038  0.53255855  1  0.011864  0.00511  -0.088043  -0.186688  0.002333  3.958911  0.004
C  C185  1  0.65624712  0.29845710  0.86582490  1  -0.034985  0.005135  -0.088454  -0.186775  0.002345  3.958056  0.004
C  C186  1  0.31665529  0.55646140  0.77630847  1  0.379063  -0.009556  0.047472  0.099289  -0.009932  3.949404  -0.006
C  C187  1  0.23908737  0.68226414  0.44303610  1  0.49932  -0.0067  0.048804  0.100705  -0.007291  3.948425  -0.004
C  C188  1  0.44376927  0.76035587  0.10965979  1  0.431566  -0.009503  0.04713  0.098229  -0.009875  3.950002  -0.006
C  C189  1  0.76037022  0.44376020  0.22373508  1  0.450023  -0.009619  0.047101  0.098049  -0.009989  3.949589  -0.006
C  C190  1  0.55684370  0.31777517  0.55701348  1  0.460012  -0.006795  0.048825  0.100855  -0.007381  3.948203  -0.004
C  C191  1  0.68230521  0.23891262  0.89033910  1  0.510171  -0.006683  0.048846  0.100284  -0.007252  3.946655  -0.004
C  C192  1  0.73558699  0.90685720  0.10180606  1  1.575686  0.001  0.211977  0.579452  0.000667  4.177032  0.0
C  C193  1  0.17114530  0.26454480  0.76854635  1  1.57675  0.000989  0.211499  0.579329  0.00062  4.177487  0.0
C  C194  1  0.09326740  0.82827608  0.43527273  1  1.542145  0.000568  0.211405  0.579155  -0.00034  4.176666  0.0
C  C195  1  0.82810202  0.09300265  0.89817491  1  1.540749  0.000623  0.211374  0.578428  -0.000298  4.177249  0.0
C  C196  1  0.90687127  0.73558125  0.23157289  1  1.574997  0.001001  0.211825  0.579566  0.000663  4.176876  0.0
C  C197  1  0.26501558  0.17176830  0.56476485  1  1.569374  0.000455  0.211641  0.578977  -0.000346  4.176443  0.0
C  C198  1  0.77762527  0.86136647  0.13624135  1  0.021579  0.005237  -0.019328  -0.029065  0.002776  3.966171  0.004
C  C199  1  0.08360232  0.22257714  0.80307398  1  -0.048695  0.004709  -0.019593  -0.029258  0.002474  3.964785  0.004
C  C200  1  0.13917053  0.91592996  0.46972143  1  0.08519  0.004498  -0.018911  -0.029826  0.002348  3.967641  0.004
C  C201  1  0.91573108  0.13880057  0.86378855  1  0.043915  0.005097  -0.019439  -0.028858  0.002668  3.967269  0.004
C  C202  1  0.86137693  0.77760632  0.19712051  1  0.022953  0.005236  -0.019261  -0.02923  0.002776  3.966148  0.004
C  C203  1  0.22327172  0.08413214  0.53028970  1  -0.126582  0.004612  -0.019182  -0.030166  0.002351  3.967815  0.004
C  C204  1  0.87198143  0.91331332  0.15158175  1  -0.121553  0.001242  -0.085312  -0.09552  0.00058  3.981157  0.001
C  C205  1  0.04117992  0.12825108  0.81840538  1  -0.04831  0.001299  -0.08565  -0.096054  0.000643  3.982292  0.001
C  C206  1  0.08735030  0.95856833  0.48492538  1  -0.104392  0.000918  -0.08529  -0.095931  0.000357  3.982564  0.001
C  C207  1  0.95830794  0.08690984  0.84859697  1  -0.041465  0.000822  -0.084495  -0.095574  0.000289  3.981149  0.001
C  C208  1  0.91335640  0.87194305  0.18179814  1  -0.047554  0.001228  -0.084956  -0.095213  0.000582  3.981557  0.001
C  C209  1  0.12883560  0.04155416  0.51510009  1  0.017871  0.000866  -0.084792  -0.0951  0.000355  3.982199  0.001
C  C210  1  0.72542379  0.76697473  0.15162532  1  -0.052245  0.000189  -0.094539  -0.108914  -6.6e-05  4.007753  0.0
C  C211  1  0.04130198  0.27476286  0.81843494  1  -0.090457  0.000293  -0.094048  -0.108453  7e-06  4.0049  0.0
C  C212  1  0.23358405  0.95817134  0.48512374  1  -0.1569  3.7e-05  -0.094638  -0.109161  -0.00016  4.007015  0.0
C  C213  1  0.95791236  0.23315703  0.84834455  1  -0.04972  -8.9e-05  -0.09496  -0.110215  -0.000256  4.009082  0.0
C  C214  1  0.76696093  0.72542627  0.18170219  1  -0.124328  0.00019  -0.094556  -0.109039  -6.6e-05  4.007557  0.0
C  C215  1  0.27541642  0.04184311  0.51486838  1  0.009925  1e-05  -0.094542  -0.108794  -0.000164  4.006783  0.0
N  N216  1  0.39556786  0.17887842  0.69097987  1  -1.208519  0.059898  -0.323611  -0.255065  0.032279  3.546817  0.052
N  N217  1  0.78230319  0.60194853  0.35746316  1  -1.202546  0.058783  -0.321952  -0.252473  0.031283  3.545145  0.052
N  N218  1  0.82099295  0.21667963  0.02431144  1  -1.220027  0.059978  -0.324337  -0.255516  0.03233  3.55065  0.052
N  N219  1  0.21682585  0.82113755  0.30899809  1  -1.218582  0.059897  -0.323748  -0.25528  0.032288  3.547816  0.052
N  N220  1  0.18022511  0.39805545  0.64250484  1  -1.213783  0.058713  -0.320659  -0.251516  0.03122  3.541087  0.052
N  N221  1  0.60179746  0.78214313  0.97583793  1  -1.201635  0.058786  -0.321959  -0.252548  0.031285  3.544955  0.052
N  N222  1  0.31435985  0.54422830  0.72074397  1  -1.218595  0.057635  -0.326017  -0.240055  0.030943  3.567413  0.05
N  N223  1  0.22930582  0.68406957  0.38749458  1  -1.206755  0.057158  -0.324576  -0.240354  0.03052  3.568933  0.049
N  N224  1  0.45572056  0.77001107  0.05409619  1  -1.220852  0.05756  -0.326066  -0.240283  0.030898  3.567378  0.05
N  N225  1  0.77018845  0.45583229  0.27930381  1  -1.225069  0.057601  -0.325728  -0.239537  0.030917  3.56787  0.05
N  N226  1  0.54511200  0.31597346  0.61255406  1  -1.212054  0.057178  -0.325852  -0.241264  0.030559  3.570398  0.049
N  N227  1  0.68406350  0.22923084  0.94588648  1  -1.208725  0.057112  -0.325024  -0.240981  0.030509  3.568493  0.049
O  O228  1  0.58722020  0.04025304  0.92756482  1  -1.16194  0.06571  -0.30304  -0.546129  0.033701  2.384699  0.059
O  O229  1  0.45301753  0.41279553  0.59394772  1  -1.155618  0.065219  -0.302844  -0.54652  0.033469  2.37994  0.058
O  O230  1  0.96002620  0.54595670  0.26153245  1  -1.154843  0.06488  -0.308394  -0.551232  0.033639  2.382784  0.057
O  O231  1  0.54582295  0.95983868  0.07175591  1  -1.153814  0.064946  -0.308066  -0.550848  0.0337  2.383505  0.057
O  O232  1  0.04040416  0.58728143  0.40599809  1  -1.161659  0.065271  -0.303118  -0.546714  0.033501  2.382952  0.059
O  O233  1  0.41399858  0.45405508  0.73867953  1  -1.153122  0.06458  -0.308144  -0.551265  0.033512  2.380641  0.057
O  O234  1  0.51451595  0.88660994  0.95224805  1  -1.16187  0.07224  -0.312717  -0.573739  0.03771  2.405454  0.061
O  O235  1  0.37204550  0.48536792  0.61901674  1  -1.15877  0.072149  -0.312935  -0.574177  0.037655  2.406554  0.061
O  O236  1  0.11308731  0.62664127  0.28676756  1  -1.167461  0.079919  -0.309398  -0.568216  0.041881  2.421305  0.069
O  O237  1  0.62655519  0.11294184  0.04668426  1  -1.168423  0.079789  -0.309689  -0.568472  0.041803  2.418815  0.069
O  O238  1  0.88681883  0.51468420  0.38110016  1  -1.159897  0.071999  -0.312651  -0.573779  0.037578  2.404379  0.061
O  O239  1  0.48633054  0.37338632  0.71323840  1  -1.166288  0.079739  -0.309563  -0.568277  0.041732  2.42188  0.069
O  O240  1  0.78753333  0.99185022  0.08813544  1  -1.182268  0.008961  -0.323687  -0.540827  0.003963  2.15544  0.008
O  O241  1  0.20419151  0.21257567  0.75481130  1  -1.180301  0.008896  -0.323477  -0.540781  0.003935  2.15532  0.008
O  O242  1  0.00885558  0.79655258  0.42073083  1  -1.175532  0.007588  -0.323643  -0.540358  0.003347  2.151515  0.006
O  O243  1  0.79637048  0.00860290  0.91269623  1  -1.177142  0.007654  -0.323528  -0.539919  0.003378  2.152171  0.006
O  O244  1  0.99187996  0.78752551  0.24527722  1  -1.182739  0.008982  -0.323666  -0.540856  0.003975  2.155723  0.008
O  O245  1  0.21232859  0.20351952  0.57934519  1  -1.174629  0.007562  -0.323846  -0.540331  0.003334  2.151015  0.006
O  O246  1  0.64993397  0.85534882  0.08700474  1  -1.172482  0.073935  -0.320083  -0.58359  0.038774  2.369666  0.062
O  O247  1  0.20527493  0.35013059  0.75370272  1  -1.165147  0.073881  -0.319574  -0.583128  0.038755  2.370504  0.062
O  O248  1  0.14332632  0.79195371  0.42149724  1  -1.164474  0.07925  -0.320623  -0.582761  0.041646  2.373696  0.067
O  O249  1  0.79180776  0.14312234  0.91189439  1  -1.163175  0.079081  -0.320515  -0.583229  0.041574  2.373731  0.067
O  O250  1  0.85537030  0.64996039  0.24635790  1  -1.171664  0.073891  -0.320019  -0.583765  0.038743  2.369747  0.062
O  O251  1  0.35136723  0.20803125  0.57853248  1  -1.165179  0.079166  -0.320554  -0.582548  0.041611  2.3739  0.067
O  O252  1  0.70887759  0.00083728  0.00048332  1  -1.266988  0.110563  -0.561181  -0.808677  0.059872  2.40319  0.097
O  O253  1  0.29202071  0.29108920  0.66714870  1  -1.268896  0.110144  -0.561369  -0.808969  0.059755  2.404446  0.096
O  O254  1  0.00107262  0.70898341  0.33287550  1  -1.265258  0.110311  -0.561387  -0.808627  0.059788  2.40364  0.096
