# generated using pymatgen
data_AlH12C27(ClO2)3
_symmetry_space_group_name_H-M   'P 1'
_cell_length_a   3.99348294
_cell_length_b   15.99898484
_cell_length_c   16.07352746
_cell_angle_alpha   119.77305330
_cell_angle_beta   88.20455462
_cell_angle_gamma   92.05215843
_symmetry_Int_Tables_number   1
_chemical_formula_structural   AlH12C27(ClO2)3
_chemical_formula_sum   'Al1 H12 C27 Cl3 O6'
_cell_volume   890.72390881
_cell_formula_units_Z   1
loop_
 _symmetry_equiv_pos_site_id
 _symmetry_equiv_pos_as_xyz
  1  'x, y, z'
loop_
 _atom_site_type_symbol
 _atom_site_label
 _atom_site_symmetry_multiplicity
 _atom_site_fract_x
 _atom_site_fract_y
 _atom_site_fract_z
 _atom_site_occupancy
 _atom_site_pbe_bader_charge
 _atom_site_pbe_bader_spin_density
 _atom_site_pbe_cm5_charge
 _atom_site_pbe_ddec_charge
 _atom_site_pbe_ddec_spin_density
 _atom_site_pbe_ddec_sum_bond_order
 _atom_site_pbe_magmom
Al  Al0  1  0.99321527  0.50139083  0.50168859  1  2.503769  0  0.423183  1.603788  0  2.565391  0
H  H1  1  0.50706685  0.92527121  0.07944035  1  0.054658  0  0.099849  0.098213  0  1.028965  0
H  H2  1  0.47051945  0.65504895  0.07644778  1  0.06996  0  0.099773  0.099321  0  1.025466  0
H  H3  1  0.53036727  0.92070576  0.34415692  1  0.016291  0  0.09988  0.099374  0  1.025252  0
H  H4  1  0.74178597  0.24060639  0.25542406  1  0.096857  0  0.111729  0.119032  0  0.974655  0
H  H5  1  0.76362214  0.06296122  0.16340013  1  0.087076  0  0.101715  0.102428  0  1.004807  0
H  H6  1  0.24254788  0.04944246  0.39620632  1  0.073257  0  0.102365  0.114447  0  1.009214  0
H  H7  1  0.25834785  0.84500433  0.94726676  1  0.103764  0  0.102896  0.115691  0  1.008084  0
H  H8  1  0.73141117  0.51824177  0.76515705  1  0.078552  0  0.112161  0.120277  0  0.971131  0
H  H9  1  0.74514052  0.60545204  0.94209523  1  0.067784  0  0.101653  0.102413  0  1.007004  0
H  H10  1  0.76473141  0.60552709  0.15420861  1  0.093018  0  0.101989  0.115167  0  1.011551  0
H  H11  1  0.24743117  0.73701028  0.47740077  1  0.103385  0  0.112603  0.121051  0  0.982285  0
H  H12  1  0.23981081  0.83270566  0.39472146  1  0.044965  0  0.102253  0.104861  0  1.003241  0
C  C13  1  0.48821563  0.57800190  0.64893482  1  1.579654  0  0.279483  0.675569  0  4.05901  0
C  C14  1  0.50926210  0.56905861  0.42185361  1  1.57917  0  0.274811  0.667771  0  4.049594  0
C  C15  1  0.48241715  0.35319533  0.43197274  1  1.61075  0  0.279075  0.67453  0  4.063256  0
C  C16  1  0.49967287  0.78395357  0.06520421  1  -0.128578  0  -0.005446  0.083041  0  4.009163  0
C  C17  1  0.50524230  0.88495205  0.11767352  1  0.02302  0  -0.085728  -0.170319  0  3.917746  0
C  C18  1  0.50667423  0.93540335  0.21813821  1  0.064659  0  -0.00565  0.082375  0  4.011923  0
C  C19  1  0.51087853  0.88255430  0.26633693  1  -0.077273  0  -0.088061  -0.175352  0  3.926422  0
C  C20  1  0.50305177  0.78161360  0.21621971  1  0.039326  0  -0.00706  0.078274  0  4.017612  0
C  C21  1  0.49311003  0.73344488  0.11582435  1  -0.061749  0  -0.088139  -0.175924  0  3.92499  0
C  C22  1  0.63104433  0.19781064  0.28539726  1  -0.046579  0  -0.080221  -0.079434  0  3.980672  0
C  C23  1  0.64048727  0.09775578  0.23366316  1  -0.066473  0  -0.091982  -0.13622  0  3.990274  0
C  C24  1  0.50357234  0.04193663  0.27227434  1  -0.002043  0  -0.006543  0.080127  0  4.003568  0
C  C25  1  0.35962540  0.08988943  0.36459634  1  -0.00091  0  -0.09607  -0.199814  0  3.969595  0
C  C26  1  0.35590814  0.19008215  0.41682723  1  -0.01374  0  0.017307  0.131478  0  4.054734  0
C  C27  1  0.48843901  0.24532815  0.37759658  1  0.066193  0  -0.01284  -0.091645  0  3.94802  0
C  C28  1  0.36937308  0.77419018  0.90908256  1  0.026738  0  -0.09597  -0.199882  0  3.969447  0
C  C29  1  0.37212763  0.72565300  0.80929264  1  -0.003113  0  0.016882  0.12992  0  4.057294  0
C  C30  1  0.49385328  0.63218798  0.75636359  1  0.057366  0  -0.012653  -0.09146  0  3.946634  0
C  C31  1  0.62532193  0.58971805  0.80587448  1  -0.005394  0  -0.079879  -0.078758  0  3.977861  0
C  C32  1  0.62983006  0.63882331  0.90556229  1  -0.000935  0  -0.092848  -0.137575  0  3.989506  0
C  C33  1  0.49817588  0.73162895  0.95907814  1  0.013484  0  -0.006275  0.079783  0  3.999132  0
C  C34  1  0.64852399  0.63575673  0.22511857  1  -0.002076  0  -0.096505  -0.207078  0  3.965921  0
C  C35  1  0.65367831  0.58249405  0.27221048  1  0.011142  0  0.023396  0.148292  0  4.025394  0
C  C36  1  0.51241115  0.61924221  0.36487565  1  0.059186  0  -0.015983  -0.10951  0  3.932105  0
C  C37  1  0.36416587  0.71003726  0.40677446  1  0.001245  0  -0.076415  -0.064684  0  3.97122  0
C  C38  1  0.36305649  0.76355918  0.36042857  1  -0.003534  0  -0.092983  -0.143852  0  3.990716  0
C  C39  1  0.50557462  0.72696218  0.26806001  1  -0.012421  0  -7.7e-05  0.095693  0  3.991136  0
Cl  Cl40  1  0.18289669  0.24596600  0.53130807  1  -0.193382  0  -0.006898  -0.071148  0  1.515859  0
Cl  Cl41  1  0.21950044  0.78232970  0.75099569  1  -0.203549  0  -0.005362  -0.069264  0  1.524605  0
Cl  Cl42  1  0.82572616  0.46956717  0.20947533  1  -0.198956  0  -0.007911  -0.073296  0  1.533762  0
O  O43  1  0.24952394  0.39247138  0.41223653  1  -1.24875  0  -0.230111  -0.579972  0  2.343444  0
O  O44  1  0.24495422  0.51873721  0.60981707  1  -1.250047  0  -0.231614  -0.583847  0  2.351282  0
O  O45  1  0.27307813  0.59005623  0.48421040  1  -1.256357  0  -0.239095  -0.604624  0  2.384331  0
O  O46  1  0.71284689  0.39738766  0.49216244  1  -1.249892  0  -0.234339  -0.600271  0  2.404086  0
O  O47  1  0.74123397  0.51061746  0.40760049  1  -1.249733  0  -0.237302  -0.600743  0  2.426193  0
O  O48  1  0.72894264  0.59422990  0.60497695  1  -1.249783  0  -0.233039  -0.598246  0  2.410494  0
