# generated using pymatgen
data_MnH2C6(NO2)2
_symmetry_space_group_name_H-M   'P 1'
_cell_length_a   5.30587103
_cell_length_b   10.31887193
_cell_length_c   12.08180816
_cell_angle_alpha   106.85901354
_cell_angle_beta   89.99897818
_cell_angle_gamma   90.00033685
_symmetry_Int_Tables_number   1
_chemical_formula_structural   MnH2C6(NO2)2
_chemical_formula_sum   'Mn4 H8 C24 N8 O16'
_cell_volume   633.05646470
_cell_formula_units_Z   4
loop_
 _symmetry_equiv_pos_site_id
 _symmetry_equiv_pos_as_xyz
  1  'x, y, z'
loop_
 _atom_site_type_symbol
 _atom_site_label
 _atom_site_symmetry_multiplicity
 _atom_site_fract_x
 _atom_site_fract_y
 _atom_site_fract_z
 _atom_site_occupancy
 _atom_site_hle17_ddec_charge
 _atom_site_hle17_ddec_spin_density
 _atom_site_hle17_ddec_sum_bond_order
 _atom_site_hle17_magmom
 _atom_site_hse06_10hf_ddec_charge
 _atom_site_hse06_10hf_ddec_spin_density
 _atom_site_hse06_10hf_ddec_sum_bond_order
 _atom_site_hse06_10hf_magmom
 _atom_site_hse06_ddec_charge
 _atom_site_hse06_ddec_spin_density
 _atom_site_hse06_ddec_sum_bond_order
 _atom_site_hse06_magmom
 _atom_site_pbe_cm5_charge
 _atom_site_pbe_ddec_charge
 _atom_site_pbe_ddec_spin_density
 _atom_site_pbe_ddec_sum_bond_order
 _atom_site_pbe_magmom
Mn  Mn0  1  0.78245664  0.76471980  0.23479620  1  1.11278  4.772806  1.873724  4.652  0.954905  4.676157  2.3818  4.485  1.005424  4.737428  2.313659  4.57  0.629276  0.92247  4.597288  2.430637  4.382
Mn  Mn1  1  0.71749399  0.76470523  0.73479921  1  1.112877  4.772913  1.873542  4.652  0.95489  4.676259  2.381644  4.485  1.005425  4.737491  2.313495  4.57  0.629345  0.922421  4.597476  2.430481  4.382
Mn  Mn2  1  0.21754658  0.23528428  0.76520609  1  1.112697  4.772855  1.873814  4.652  0.954799  4.676215  2.38188  4.485  1.005345  4.737469  2.313707  4.57  0.629291  0.922341  4.597369  2.430737  4.382
Mn  Mn3  1  0.28248850  0.23529480  0.26519795  1  1.112786  4.77293  1.87354  4.652  0.954858  4.676281  2.381574  4.485  1.005392  4.737505  2.313443  4.57  0.629308  0.922384  4.597505  2.430418  4.382
H  H4  1  0.17939019  0.77320620  0.45042973  1  0.108938  -0.000259  0.95431  0.0  0.10872  0.000185  1.027534  0.001  0.112788  -8.3e-05  1.02408  0.001  0.126238  0.105986  0.000425  1.029924  0.001
H  H5  1  0.32056523  0.77319578  0.95043460  1  0.108892  -0.000253  0.954209  0.0  0.10865  0.000186  1.02745  0.001  0.112717  -8.3e-05  1.024  0.001  0.126193  0.105925  0.000425  1.029836  0.001
H  H6  1  0.82062811  0.22680598  0.54956796  1  0.109  -0.000252  0.954499  0.0  0.108827  0.000185  1.027656  0.001  0.112896  -8.5e-05  1.024204  0.001  0.126337  0.106095  0.000425  1.030037  0.001
H  H7  1  0.67943611  0.22678298  0.04956804  1  0.108996  -0.000255  0.954264  0.0  0.108775  0.000185  1.027453  0.001  0.112843  -8.3e-05  1.023997  0.001  0.126247  0.106043  0.000424  1.029845  0.001
H  H8  1  0.88415706  0.60269275  0.95186867  1  0.118548  -0.00026  0.929462  0.0  0.119846  0.000176  0.999754  0.001  0.124171  -4.8e-05  0.996339  0.001  0.131278  0.116473  0.000402  1.002617  0.001
H  H9  1  0.61585303  0.60270614  0.45187248  1  0.118589  -0.000277  0.929457  0.0  0.119869  0.000177  0.99976  0.001  0.124194  -4.8e-05  0.996352  0.001  0.131303  0.116488  0.000404  1.002621  0.001
H  H10  1  0.11585747  0.39730120  0.04813360  1  0.11861  -0.000255  0.929402  0.0  0.119887  0.000177  0.999717  0.001  0.124214  -4.8e-05  0.9963  0.001  0.1313  0.116513  0.000403  1.002582  0.001
H  H11  1  0.38413134  0.39730199  0.54812337  1  0.118623  -0.000259  0.929453  0.0  0.119909  0.000176  0.999745  0.001  0.124234  -4.8e-05  0.996333  0.001  0.131335  0.116529  0.000404  1.002608  0.001
C  C12  1  0.81231795  0.02270778  0.43334771  1  0.077553  0.004154  3.682683  0.004  0.077337  0.009086  3.933506  0.007  0.078002  0.005668  3.946799  0.005  0.131925  0.074459  0.015566  3.92777  0.012
C  C13  1  0.68771382  0.02267597  0.93334998  1  0.077573  0.004173  3.682722  0.004  0.077316  0.009097  3.933421  0.007  0.07798  0.00568  3.946728  0.005  0.131957  0.074449  0.01559  3.927679  0.012
C  C14  1  0.18769470  0.97730845  0.56665678  1  0.077383  0.004154  3.683049  0.004  0.077314  0.009087  3.933638  0.007  0.077984  0.005681  3.946941  0.005  0.131845  0.074437  0.015573  3.927894  0.012
C  C15  1  0.31229506  0.97729772  0.06665140  1  0.077761  0.004145  3.682347  0.004  0.077434  0.009082  3.933227  0.007  0.078096  0.005669  3.946527  0.005  0.131855  0.074558  0.01557  3.927502  0.012
C  C16  1  0.09649335  0.87376461  0.47345154  1  0.114559  0.002619  3.598766  0.003  0.074979  0.007143  3.858496  0.006  0.079426  0.004629  3.870898  0.004  0.076723  0.071467  0.009541  3.852545  0.007
C  C17  1  0.40349978  0.87376845  0.97345682  1  0.114236  0.002586  3.599135  0.003  0.07481  0.007136  3.858825  0.006  0.079258  0.004627  3.871239  0.004  0.076727  0.071297  0.009533  3.852888  0.007
C  C18  1  0.90351930  0.12624859  0.52654640  1  0.114331  0.002556  3.598914  0.003  0.074708  0.00714  3.858774  0.006  0.07916  0.004632  3.871181  0.004  0.076512  0.071203  0.00954  3.852811  0.007
C  C19  1  0.59651098  0.12622955  0.02655142  1  0.114289  0.002588  3.59897  0.003  0.07486  0.00714  3.858573  0.006  0.079312  0.00463  3.870976  0.004  0.07671  0.071345  0.009538  3.852634  0.007
C  C20  1  0.60778583  0.04472299  0.35439553  1  0.643689  0.006411  3.900078  0.006  0.586108  0.013567  4.202024  0.012  0.621743  0.0099  4.195157  0.009  0.227295  0.561739  0.017839  4.205041  0.015
C  C21  1  0.89224366  0.04466404  0.85438034  1  0.643711  0.006378  3.900246  0.006  0.586161  0.013569  4.20209  0.012  0.6218  0.009899  4.195224  0.009  0.227456  0.561786  0.017843  4.205096  0.015
C  C22  1  0.39221927  0.95528514  0.64560860  1  0.643723  0.006406  3.900075  0.006  0.586029  0.01357  4.202063  0.012  0.621663  0.009904  4.195198  0.009  0.227328  0.561677  0.017844  4.205046  0.015
C  C23  1  0.10776333  0.95532485  0.14561818  1  0.643904  0.006404  3.899733  0.006  0.586312  0.013571  4.201659  0.012  0.621952  0.009902  4.194785  0.009  0.22756  0.561944  0.017846  4.204674  0.015
C  C24  1  0.39322533  0.55832652  0.10361851  1  0.076998  0.00248  3.678061  0.002  0.075296  0.008614  3.931333  0.006  0.076571  0.004322  3.943519  0.004  0.13191  0.071144  0.01667  3.92739  0.012
C  C25  1  0.10674203  0.55831590  0.60362502  1  0.077189  0.002587  3.677943  0.003  0.075468  0.008616  3.931268  0.006  0.076754  0.004327  3.943433  0.004  0.131959  0.071309  0.016664  3.927306  0.012
C  C26  1  0.60678920  0.44167249  0.89638253  1  0.076875  0.002415  3.678071  0.002  0.075214  0.008627  3.931339  0.006  0.076493  0.004327  3.943531  0.004  0.131901  0.071062  0.016685  3.927388  0.012
C  C27  1  0.89322727  0.44168818  0.39637396  1  0.077326  0.002321  3.677798  0.002  0.075588  0.008612  3.931101  0.006  0.076869  0.004321  3.943278  0.004  0.131905  0.071432  0.016657  3.927132  0.012
C  C28  1  0.71492499  0.55570421  0.97414584  1  0.102962  0.001638  3.600902  0.002  0.066007  0.005235  3.862698  0.004  0.070351  0.003349  3.874223  0.003  0.078503  0.062787  0.007123  3.857745  0.005
C  C29  1  0.78508188  0.55570460  0.47414261  1  0.102653  0.001802  3.600725  0.002  0.065767  0.005238  3.862502  0.004  0.0701  0.003354  3.874035  0.003  0.078442  0.062546  0.007129  3.857533  0.005
C  C30  1  0.28508954  0.44429075  0.02585337  1  0.102839  0.00154  3.600689  0.002  0.065935  0.005243  3.862456  0.004  0.070275  0.003354  3.873989  0.003  0.078468  0.062718  0.007132  3.857497  0.005
C  C31  1  0.21490626  0.44429341  0.52584991  1  0.10282  0.001465  3.600742  0.002  0.065899  0.00524  3.862564  0.004  0.07024  0.003353  3.874084  0.003  0.078503  0.06268  0.00713  3.857596  0.005
C  C32  1  0.29030706  0.62466308  0.22244786  1  0.653778  0.019515  3.873569  0.018  0.595035  0.030583  4.175419  0.027  0.633119  0.022184  4.16426  0.02  0.229814  0.568178  0.039819  4.182812  0.033
C  C33  1  0.20963540  0.62464749  0.72246309  1  0.653697  0.019496  3.873444  0.018  0.59495  0.030569  4.175275  0.027  0.633039  0.022175  4.16411  0.02  0.229775  0.5681  0.039802  4.18266  0.033
C  C34  1  0.70970370  0.37533189  0.77753976  1  0.653775  0.019507  3.873995  0.018  0.594972  0.030561  4.175947  0.027  0.63304  0.022171  4.164802  0.02  0.229812  0.568123  0.039791  4.183325  0.033
C  C35  1  0.79033390  0.37535356  0.27753432  1  0.653624  0.019535  3.873535  0.018  0.594923  0.030564  4.175322  0.027  0.633011  0.022173  4.164166  0.02  0.22972  0.568077  0.039795  4.182697  0.033
N  N36  1  0.90913798  0.89678020  0.40743872  1  -0.268442  0.028844  3.19025  0.017  -0.213772  0.037601  3.463658  0.021  -0.223795  0.031356  3.472837  0.015  -0.288091  -0.208429  0.046783  3.460489  0.029
N  N37  1  0.59086725  0.89676146  0.90744417  1  -0.268121  0.028854  3.190946  0.017  -0.213444  0.037594  3.464221  0.02  -0.223484  0.03135  3.473424  0.015  -0.288055  -0.208098  0.046779  3.461049  0.029
N  N38  1  0.09088032  0.10322793  0.59256293  1  -0.268186  0.028863  3.190455  0.017  -0.21351  0.037602  3.463789  0.021  -0.223557  0.031349  3.472985  0.015  -0.287957  -0.208167  0.046782  3.460612  0.029
N  N39  1  0.40914916  0.10322743  0.09255932  1  -0.268503  0.028853  3.190568  0.017  -0.21385  0.037604  3.463947  0.021  -0.223885  0.031356  3.473139  0.015  -0.288162  -0.208505  0.04679  3.460788  0.029
N  N40  1  0.60768478  0.61299191  0.07708571  1  -0.276132  0.027426  3.183516  0.016  -0.224077  0.037818  3.458883  0.022  -0.232998  0.03121  3.467646  0.017  -0.286871  -0.219718  0.047898  3.456596  0.032
N  N41  1  0.89230093  0.61298459  0.57709824  1  -0.275977  0.02731  3.183483  0.016  -0.223951  0.037808  3.458866  0.022  -0.232881  0.031202  3.467638  0.017  -0.286805  -0.219592  0.04788  3.456564  0.032
N  N42  1  0.39232786  0.38700103  0.92291134  1  -0.276  0.02749  3.183423  0.016  -0.223962  0.037804  3.458766  0.022  -0.232889  0.031203  3.467537  0.017  -0.28683  -0.219594  0.047883  3.456466  0.032
N  N43  1  0.10768345  0.38701645  0.42290413  1  -0.276093  0.027533  3.183485  0.016  -0.224057  0.037798  3.45887  0.022  -0.232988  0.031194  3.467642  0.017  -0.286815  -0.219693  0.047871  3.456562  0.032
O  O44  1  0.54659916  0.94361763  0.27096689  1  -0.606937  0.034867  2.082545  0.026  -0.546452  0.043286  2.345729  0.032  -0.577866  0.037648  2.33753  0.026  -0.286249  -0.522944  0.049174  2.35009  0.038
O  O45  1  0.95338940  0.94360228  0.77096370  1  -0.606789  0.034858  2.083558  0.026  -0.546407  0.043277  2.346828  0.032  -0.577804  0.037642  2.338615  0.026  -0.28627  -0.522892  0.049168  2.35117  0.038
O  O46  1  0.45340406  0.05638848  0.72903756  1  -0.606941  0.034855  2.082558  0.026  -0.546457  0.043289  2.345751  0.032  -0.577868  0.037649  2.337548  0.026  -0.286333  -0.52296  0.04918  2.3501  0.038
O  O47  1  0.04661005  0.05639573  0.22903543  1  -0.60691  0.03486  2.083439  0.026  -0.546402  0.04328  2.346614  0.032  -0.577803  0.037643  2.3384  0.026  -0.28627  -0.52289  0.04917  2.350965  0.038
O  O48  1  0.51310401  0.16304947  0.37789014  1  -0.621872  0.034715  2.02512  0.023  -0.557501  0.042322  2.294938  0.027  -0.59072  0.037621  2.284263  0.023  -0.302347  -0.531545  0.046928  2.300264  0.031
O  O49  1  0.98696147  0.16302604  0.87789710  1  -0.622023  0.034748  2.024135  0.023  -0.557606  0.042327  2.29388  0.027  -0.590843  0.037627  2.283206  0.023  -0.302475  -0.531643  0.046931  2.299207  0.031
O  O50  1  0.48690298  0.83695866  0.62211068  1  -0.621988  0.03474  2.025087  0.023  -0.557471  0.042324  2.29484  0.027  -0.590686  0.037624  2.284159  0.023  -0.302335  -0.53153  0.046929  2.300165  0.031
O  O51  1  0.01303799  0.83696791  0.12210434  1  -0.622126  0.034737  2.024001  0.023  -0.55772  0.042326  2.293808  0.027  -0.590957  0.037628  2.283134  0.023  -0.302504  -0.53176  0.046927  2.299143  0.031
O  O52  1  0.45057923  0.68474705  0.29792451  1  -0.599796  0.035559  2.031602  0.026  -0.54188  0.048012  2.295306  0.036  -0.570246  0.040312  2.281982  0.028  -0.289871  -0.521272  0.057306  2.303265  0.046
O  O53  1  0.04936830  0.68472523  0.79792870  1  -0.599679  0.035564  2.031407  0.026  -0.54176  0.048005  2.295112  0.036  -0.570113  0.040305  2.281753  0.028  -0.289827  -0.521167  0.057295  2.303082  0.046
O  O54  1  0.54943530  0.31526310  0.70208012  1  -0.599801  0.035547  2.03191  0.026  -0.541816  0.048002  2.295552  0.036  -0.570196  0.040306  2.282283  0.028  -0.289861  -0.521218  0.057291  2.303514  0.046
O  O55  1  0.95059346  0.31527682  0.20206565  1  -0.599705  0.035527  2.031545  0.026  -0.541865  0.048002  2.295312  0.036  -0.570201  0.040304  2.281921  0.028  -0.289785  -0.521276  0.05729  2.303281  0.046
O  O56  1  0.05440575  0.61721875  0.23905563  1  -0.636611  0.029481  2.057593  0.015  -0.574609  0.04016  2.334637  0.021  -0.606032  0.034461  2.320815  0.017  -0.309574  -0.55083  0.047135  2.343058  0.028
O  O57  1  0.44554729  0.61720338  0.73907319  1  -0.636833  0.029497  2.057561  0.015  -0.574749  0.040167  2.33452  0.021  -0.606177  0.034466  2.320704  0.017  -0.309643  -0.550976  0.047144  2.342943  0.028
O  O58  1  0.94558993  0.38277925  0.76094267  1  -0.636479  0.029485  2.05791  0.015  -0.574494  0.04017  2.335  0.021  -0.60591  0.034471  2.321184  0.017  -0.309558  -0.550717  0.047144  2.343419  0.028
O  O59  1  0.55442013  0.38280272  0.26093458  1  -0.636638  0.02947  2.057513  0.015  -0.574547  0.040164  2.334431  0.021  -0.60598  0.034463  2.32062  0.017  -0.309564  -0.550771  0.047143  2.342846  0.028
