# generated using pymatgen
data_AgH11C13SN3(OF)3
_symmetry_space_group_name_H-M   'P 1'
_cell_length_a   6.69420049
_cell_length_b   14.60911962
_cell_length_c   16.21182979
_cell_angle_alpha   90.00061955
_cell_angle_beta   102.73591216
_cell_angle_gamma   89.99918292
_symmetry_Int_Tables_number   1
_chemical_formula_structural   AgH11C13SN3(OF)3
_chemical_formula_sum   'Ag4 H44 C52 S4 N12 O12 F12'
_cell_volume   1546.45046622
_cell_formula_units_Z   4
loop_
 _symmetry_equiv_pos_site_id
 _symmetry_equiv_pos_as_xyz
  1  'x, y, z'
loop_
 _atom_site_type_symbol
 _atom_site_label
 _atom_site_symmetry_multiplicity
 _atom_site_fract_x
 _atom_site_fract_y
 _atom_site_fract_z
 _atom_site_occupancy
 _atom_site_hle17_bader_spin_density
 _atom_site_hle17_ddec_charge
 _atom_site_hle17_ddec_spin_density
 _atom_site_hle17_ddec_sum_bond_order
 _atom_site_hle17_magmom
 _atom_site_hse06_10hf_bader_spin_density
 _atom_site_hse06_10hf_ddec_charge
 _atom_site_hse06_10hf_ddec_spin_density
 _atom_site_hse06_10hf_ddec_sum_bond_order
 _atom_site_hse06_10hf_magmom
 _atom_site_hse06_bader_spin_density
 _atom_site_hse06_ddec_charge
 _atom_site_hse06_ddec_spin_density
 _atom_site_hse06_ddec_sum_bond_order
 _atom_site_hse06_magmom
 _atom_site_pbe_bader_spin_density
 _atom_site_pbe_cm5_charge
 _atom_site_pbe_ddec_charge
 _atom_site_pbe_ddec_spin_density
 _atom_site_pbe_ddec_sum_bond_order
 _atom_site_pbe_magmom
Ag  Ag0  1  0.15302977  0.80184545  0.83969514  1  0  0.675404  0  1.511142  0  0  0.559777  0  1.971789  0  0  0.578183  0  1.928476  0  0  0.563473  0.547491  0  2.001783  0
Ag  Ag1  1  0.34698309  0.30184647  0.66030379  1  0  0.675333  0  1.511472  0  0  0.559751  0  1.971857  0  0  0.578197  0  1.928383  0  0  0.563439  0.547458  0  2.001845  0
Ag  Ag2  1  0.84697261  0.19815045  0.16030784  1  0  0.675314  0  1.511438  0  0  0.559723  0  1.971817  0  0  0.578175  0  1.928314  0  0  0.563424  0.547438  0  2.001805  0
Ag  Ag3  1  0.65303759  0.69815149  0.33969648  1  0  0.675394  0  1.51124  0  0  0.559746  0  1.971918  0  0  0.578197  0  1.928412  0  0  0.563476  0.547456  0  2.001904  0
H  H4  1  0.10261731  0.13437790  0.88839130  1  0  0.115555  0  0.990015  0  0  0.121978  0  1.058512  0  0  0.125571  0  1.058055  0  0  0.103721  0.119432  0  1.058969  0
H  H5  1  0.39738332  0.63437735  0.61160739  1  0  0.115538  0  0.989963  0  0  0.121965  0  1.058429  0  0  0.125556  0  1.057956  0  0  0.103723  0.119419  0  1.058882  0
H  H6  1  0.89738964  0.86562348  0.11161084  1  0  0.115451  0  0.990183  0  0  0.121917  0  1.05861  0  0  0.125508  0  1.058157  0  0  0.103715  0.119368  0  1.059067  0
H  H7  1  0.60260211  0.36562404  0.38838854  1  0  0.115433  0  0.990234  0  0  0.121925  0  1.058665  0  0  0.125518  0  1.058212  0  0  0.103742  0.119379  0  1.059121  0
H  H8  1  0.36449292  0.14633942  0.20000103  1  0  0.10094  0  0.947062  0  0  0.115464  0  1.003223  0  0  0.117563  0  1.001739  0  0  0.109211  0.113936  0  1.00429  0
H  H9  1  0.13549045  0.64633462  0.29999815  1  0  0.100981  0  0.94731  0  0  0.11553  0  1.003375  0  0  0.117631  0  1.001891  0  0  0.10928  0.114003  0  1.004437  0
H  H10  1  0.63549418  0.85366401  0.80000246  1  0  0.100972  0  0.947141  0  0  0.115508  0  1.003253  0  0  0.117607  0  1.001764  0  0  0.109234  0.113978  0  1.004319  0
H  H11  1  0.86449955  0.35366539  0.69999696  1  0  0.10094  0  0.947198  0  0  0.115487  0  1.003302  0  0  0.117575  0  1.001827  0  0  0.109208  0.113954  0  1.004367  0
H  H12  1  0.22657577  0.99706100  0.96274360  1  0  0.098271  0  0.973877  0  0  0.110277  0  1.033196  0  0  0.112143  0  1.032641  0  0  0.102817  0.108965  0  1.033482  0
H  H13  1  0.27342406  0.49706034  0.53725360  1  0  0.098274  0  0.973779  0  0  0.110269  0  1.033128  0  0  0.112136  0  1.032562  0  0  0.102843  0.108957  0  1.033417  0
H  H14  1  0.77343273  0.00293970  0.03725930  1  0  0.098356  0  0.973831  0  0  0.110347  0  1.03319  0  0  0.112212  0  1.032638  0  0  0.102858  0.109035  0  1.033474  0
H  H15  1  0.72655680  0.50294173  0.46274317  1  0  0.098204  0  0.973824  0  0  0.110219  0  1.033152  0  0  0.112085  0  1.032592  0  0  0.102775  0.108906  0  1.033442  0
H  H16  1  0.24058426  0.28739374  0.12553090  1  0  0.118957  0  0.972144  0  0  0.127326  0  1.034707  0  0  0.130832  0  1.033726  0  0  0.105171  0.124832  0  1.035597  0
H  H17  1  0.25939824  0.78739176  0.37446525  1  0  0.118765  0  0.972233  0  0  0.127205  0  1.034693  0  0  0.130714  0  1.03371  0  0  0.105116  0.124702  0  1.035585  0
H  H18  1  0.75940279  0.71260833  0.87446949  1  0  0.118965  0  0.972203  0  0  0.127335  0  1.034726  0  0  0.130838  0  1.033729  0  0  0.105202  0.124841  0  1.035619  0
H  H19  1  0.74059788  0.21260689  0.62552978  1  0  0.118851  0  0.972099  0  0  0.127263  0  1.034623  0  0  0.130771  0  1.033641  0  0  0.105148  0.124768  0  1.035513  0
H  H20  1  0.91513378  0.36087120  0.84709994  1  0  0.120552  0  0.971768  0  0  0.1399  0  1.03501  0  0  0.141159  0  1.033996  0  0  0.105727  0.138853  0  1.03588  0
H  H21  1  0.58486274  0.86086839  0.65289546  1  0  0.120707  0  0.971611  0  0  0.140046  0  1.034908  0  0  0.141407  0  1.033619  0  0  0.105774  0.138997  0  1.035783  0
H  H22  1  0.08486236  0.63912882  0.15289632  1  0  0.120688  0  0.971698  0  0  0.140007  0  1.035023  0  0  0.141369  0  1.03373  0  0  0.105753  0.138956  0  1.035897  0
H  H23  1  0.41512884  0.13912957  0.34710225  1  0  0.12059  0  0.971876  0  0  0.139977  0  1.035049  0  0  0.141338  0  1.033763  0  0  0.105763  0.138927  0  1.035925  0
H  H24  1  0.12751672  0.29019251  0.83713392  1  0  0.099032  0  0.947882  0  0  0.116732  0  1.018729  0  0  0.116543  0  1.018926  0  0  0.096766  0.116774  0  1.018658  0
H  H25  1  0.37248263  0.79018932  0.66286124  1  0  0.09952  0  0.947107  0  0  0.116755  0  1.018806  0  0  0.116575  0  1.018957  0  0  0.096775  0.116803  0  1.018728  0
H  H26  1  0.87248866  0.70980956  0.16286562  1  0  0.099577  0  0.947022  0  0  0.116796  0  1.018738  0  0  0.116612  0  1.018901  0  0  0.096782  0.116837  0  1.018665  0
H  H27  1  0.62750582  0.20980728  0.33713250  1  0  0.099067  0  0.947884  0  0  0.116773  0  1.018742  0  0  0.116594  0  1.018905  0  0  0.096788  0.116815  0  1.018671  0
H  H28  1  0.89245078  0.23940330  0.84474165  1  0  0.09532  0  0.974134  0  0  0.115357  0  1.040288  0  0  0.114506  0  1.042201  0  0  0.097901  0.115924  0  1.038952  0
H  H29  1  0.60755056  0.73940105  0.65525178  1  0  0.095327  0  0.974128  0  0  0.115327  0  1.040285  0  0  0.114476  0  1.0422  0  0  0.097883  0.115891  0  1.038951  0
H  H30  1  0.10755609  0.76059467  0.15525618  1  0  0.095377  0  0.974128  0  0  0.115395  0  1.040259  0  0  0.114545  0  1.042186  0  0  0.097912  0.115957  0  1.038925  0
H  H31  1  0.39243944  0.26059623  0.34474333  1  0  0.095356  0  0.97412  0  0  0.115376  0  1.040289  0  0  0.114526  0  1.042218  0  0  0.097912  0.115943  0  1.038953  0
H  H32  1  0.93402002  0.42627822  0.96109075  1  0  0.117295  0  0.944999  0  0  0.1389  0  1.002628  0  0  0.139691  0  1.002717  0  0  0.109867  0.138224  0  1.002673  0
H  H33  1  0.56597161  0.92627212  0.53890239  1  0  0.117399  0  0.94474  0  0  0.138925  0  1.002586  0  0  0.139765  0  1.002551  0  0  0.109886  0.138248  0  1.002635  0
H  H34  1  0.06597762  0.57372521  0.03890379  1  0  0.11746  0  0.944788  0  0  0.139013  0  1.002578  0  0  0.13984  0  1.002542  0  0  0.109932  0.138329  0  1.002634  0
H  H35  1  0.43401683  0.07372653  0.46109073  1  0  0.117312  0  0.944952  0  0  0.138946  0  1.002562  0  0  0.139785  0  1.002527  0  0  0.109899  0.138274  0  1.002605  0
H  H36  1  0.95799450  0.36365363  0.05708508  1  0  0.090823  0  0.959505  0  0  0.103943  0  1.040414  0  0  0.10549  0  1.037546  0  0  0.09524  0.102925  0  1.042149  0
H  H37  1  0.54199724  0.86364567  0.44291059  1  0  0.090844  0  0.959537  0  0  0.10399  0  1.040443  0  0  0.105538  0  1.037581  0  0  0.095228  0.102966  0  1.042184  0
H  H38  1  0.04200323  0.63635186  0.94291441  1  0  0.090868  0  0.959504  0  0  0.104022  0  1.040394  0  0  0.10529  0  1.038043  0  0  0.095249  0.102997  0  1.04214  0
H  H39  1  0.45799119  0.13635229  0.55708191  1  0  0.090828  0  0.959498  0  0  0.103989  0  1.040382  0  0  0.105536  0  1.037521  0  0  0.095216  0.102967  0  1.042125  0
H  H40  1  0.17872719  0.41409574  0.03163152  1  0  0.102635  0  0.954107  0  0  0.118971  0  1.023789  0  0  0.118993  0  1.023772  0  0  0.096376  0.118857  0  1.02387  0
H  H41  1  0.32126710  0.91409106  0.46836319  1  0  0.10288  0  0.953693  0  0  0.119033  0  1.023847  0  0  0.119066  0  1.02381  0  0  0.096396  0.118924  0  1.023922  0
H  H42  1  0.82127199  0.58590906  0.96836377  1  0  0.102814  0  0.953674  0  0  0.118966  0  1.023857  0  0  0.118987  0  1.023806  0  0  0.096361  0.118855  0  1.023942  0
H  H43  1  0.67872136  0.08590758  0.53163116  1  0  0.102547  0  0.954163  0  0  0.118904  0  1.023853  0  0  0.118938  0  1.023816  0  0  0.096351  0.118794  0  1.023933  0
H  H44  1  0.43132471  0.99518848  0.20626976  1  0  0.114455  0  0.956955  0  0  0.121175  0  1.023859  0  0  0.124847  0  1.019017  0  0  0.111662  0.118791  0  1.026897  0
H  H45  1  0.06866736  0.49518469  0.29372555  1  0  0.114429  0  0.956788  0  0  0.121145  0  1.023708  0  0  0.124815  0  1.018866  0  0  0.111612  0.11876  0  1.026745  0
H  H46  1  0.56867760  0.00481222  0.79372951  1  0  0.114498  0  0.956828  0  0  0.121214  0  1.023719  0  0  0.124885  0  1.018879  0  0  0.111645  0.118829  0  1.026752  0
H  H47  1  0.93131954  0.50481327  0.70626682  1  0  0.114466  0  0.956873  0  0  0.121178  0  1.023803  0  0  0.124386  0  1.019556  0  0  0.11165  0.118794  0  1.026837  0
C  C48  1  0.14794185  0.22190475  0.00078591  1  0  0.236687  0  3.765088  0  0  0.218801  0  4.006204  0  0  0.237013  0  4.023028  0  0  0.12294  0.207067  0  3.994435  0
C  C49  1  0.35205626  0.72190366  0.49921283  1  0  0.236547  0  3.76508  0  0  0.218565  0  4.006285  0  0  0.236778  0  4.023123  0  0  0.122912  0.206824  0  3.994518  0
C  C50  1  0.85206510  0.77809595  0.99921624  1  0  0.236625  0  3.765041  0  0  0.21854  0  4.006411  0  0  0.236754  0  4.023222  0  0  0.122867  0.206801  0  3.994643  0
C  C51  1  0.64793989  0.27809841  0.50078405  1  0  0.236571  0  3.765269  0  0  0.218737  0  4.006327  0  0  0.236953  0  4.023164  0  0  0.122893  0.206998  0  3.994557  0
C  C52  1  0.30326190  0.05897504  0.08916088  1  0  0.026411  0  3.853199  0  0  0.044507  0  4.095385  0  0  0.030558  0  4.125887  0  0  -0.029989  0.052811  0  4.075655  0
C  C53  1  0.19673457  0.55897869  0.41083861  1  0  0.026309  0  3.853375  0  0  0.044409  0  4.095535  0  0  0.030448  0  4.126059  0  0  -0.030045  0.052708  0  4.075811  0
C  C54  1  0.69674508  0.94102361  0.91084313  1  0  0.026566  0  3.853339  0  0  0.04466  0  4.095498  0  0  0.030739  0  4.125948  0  0  -0.029977  0.052958  0  4.075765  0
C  C55  1  0.80325396  0.44102406  0.58915945  1  0  0.026481  0  3.853356  0  0  0.044583  0  4.095535  0  0  0.030632  0  4.125954  0  0  -0.030002  0.052887  0  4.075798  0
C  C56  1  0.12142423  0.00837902  0.63942177  1  0  0.588174  0  3.667936  0  0  0.517799  0  4.037955  0  0  0.546774  0  4.009099  0  0  0.2855  0.497897  0  4.057441  0
C  C57  1  0.37857407  0.50838910  0.86059463  1  0  0.586059  0  3.671827  0  0  0.517766  0  4.038399  0  0  0.545459  0  4.011665  0  0  0.285602  0.497875  0  4.057853  0
C  C58  1  0.87858126  0.99162305  0.36058395  1  0  0.585938  0  3.671871  0  0  0.51767  0  4.038418  0  0  0.546655  0  4.009542  0  0  0.285531  0.49778  0  4.057875  0
C  C59  1  0.62142689  0.49161570  0.13941440  1  0  0.588147  0  3.668295  0  0  0.51773  0  4.038407  0  0  0.54672  0  4.009503  0  0  0.285473  0.497849  0  4.057846  0
C  C60  1  0.38038918  0.98247015  0.13861648  1  0  -0.006569  0  3.622433  0  0  -0.043056  0  3.874284  0  0  -0.026069  0  3.883183  0  0  -0.03634  -0.053724  0  3.867549  0
C  C61  1  0.11960952  0.48246822  0.36138730  1  0  -0.006535  0  3.622111  0  0  -0.043049  0  3.873917  0  0  -0.026063  0  3.882818  0  0  -0.036277  -0.053711  0  3.867186  0
C  C62  1  0.61961935  0.01752849  0.86138827  1  0  -0.006792  0  3.622193  0  0  -0.043278  0  3.874005  0  0  -0.026299  0  3.882912  0  0  -0.036401  -0.053933  0  3.867262  0
C  C63  1  0.88038365  0.51752906  0.63861364  1  0  -0.00665  0  3.622426  0  0  -0.04316  0  3.874291  0  0  -0.026293  0  3.883637  0  0  -0.036357  -0.053825  0  3.867557  0
C  C64  1  0.15625164  0.13765280  0.95679102  1  0  -0.184401  0  3.720874  0  0  -0.202001  0  3.976817  0  0  -0.214557  0  3.999147  0  0  -0.101821  -0.19394  0  3.961788  0
C  C65  1  0.34374734  0.63764973  0.54320572  1  0  -0.184414  0  3.720935  0  0  -0.202007  0  3.976841  0  0  -0.214562  0  3.99915  0  0  -0.101834  -0.193941  0  3.961809  0
C  C66  1  0.84375682  0.86235064  0.04321003  1  0  -0.184266  0  3.720996  0  0  -0.201856  0  3.976919  0  0  -0.214414  0  3.999261  0  0  -0.101737  -0.193791  0  3.961884  0
C  C67  1  0.65623806  0.36234892  0.45678837  1  0  -0.184214  0  3.721106  0  0  -0.201899  0  3.977018  0  0  -0.214456  0  3.999355  0  0  -0.101738  -0.193834  0  3.961987  0
C  C68  1  0.30302840  0.14434183  0.13191871  1  0  -0.05999  0  3.745019  0  0  -0.083205  0  3.99759  0  0  -0.075551  0  4.014315  0  0  -0.075635  -0.087893  0  3.986438  0
C  C69  1  0.19695648  0.64433813  0.36807627  1  0  -0.060091  0  3.74545  0  0  -0.083338  0  3.997997  0  0  -0.075683  0  4.014721  0  0  -0.075715  -0.088025  0  3.986835  0
C  C70  1  0.69696781  0.85566024  0.86808126  1  0  -0.060133  0  3.745332  0  0  -0.083364  0  3.997825  0  0  -0.075716  0  4.014547  0  0  -0.075681  -0.08805  0  3.986669  0
C  C71  1  0.80303199  0.35565983  0.63191808  1  0  -0.06002  0  3.745274  0  0  -0.083243  0  3.997841  0  0  -0.075593  0  4.014518  0  0  -0.07561  -0.087927  0  3.986674  0
C  C72  1  0.22797760  0.05921004  0.99973286  1  0  -0.054489  0  3.713101  0  0  -0.075119  0  3.957005  0  0  -0.069083  0  3.978234  0  0  -0.078874  -0.07834  0  3.942166  0
C  C73  1  0.27202050  0.55920829  0.50026550  1  0  -0.054336  0  3.7131  0  0  -0.074966  0  3.956994  0  0  -0.068927  0  3.978203  0  0  -0.078852  -0.07819  0  3.942163  0
C  C74  1  0.77202936  0.94079408  0.00026990  1  0  -0.054554  0  3.713326  0  0  -0.075196  0  3.95725  0  0  -0.069163  0  3.978486  0  0  -0.078918  -0.078418  0  3.942409  0
C  C75  1  0.72796033  0.44078830  0.49972941  1  0  -0.054365  0  3.713064  0  0  -0.075013  0  3.956997  0  0  -0.068975  0  3.978211  0  0  -0.078829  -0.078235  0  3.942164  0
C  C76  1  0.48278632  0.82690080  0.17859164  1  0  0.354082  0  3.762214  0  0  0.33306  0  4.018758  0  0  0.348453  0  4.036318  0  0  0.222956  0.322556  0  4.007074  0
C  C77  1  0.01721207  0.32689973  0.32141246  1  0  0.35434  0  3.762213  0  0  0.333375  0  4.018492  0  0  0.348765  0  4.036047  0  0  0.223096  0.322878  0  4.006818  0
C  C78  1  0.51722371  0.17309648  0.82141139  1  0  0.354451  0  3.761632  0  0  0.333514  0  4.01793  0  0  0.348908  0  4.035471  0  0  0.22319  0.323013  0  4.006256  0
C  C79  1  0.98278263  0.67309618  0.67858861  1  0  0.354352  0  3.761539  0  0  0.333348  0  4.018067  0  0  0.348589  0  4.036039  0  0  0.223135  0.322853  0  4.006394  0
C  C80  1  0.22844311  0.22343831  0.09029565  1  0  -0.216288  0  3.774639  0  0  -0.231123  0  4.034208  0  0  -0.241668  0  4.051865  0  0  -0.110214  -0.224421  0  4.022582  0
C  C81  1  0.27154266  0.72343325  0.40969955  1  0  -0.215974  0  3.774406  0  0  -0.23086  0  4.033914  0  0  -0.241404  0  4.051577  0  0  -0.110146  -0.224149  0  4.022285  0
C  C82  1  0.77155152  0.77656444  0.90970171  1  0  -0.216194  0  3.774565  0  0  -0.230994  0  4.034114  0  0  -0.241542  0  4.051731  0  0  -0.110177  -0.224291  0  4.022491  0
C  C83  1  0.72844730  0.27656471  0.59029308  1  0  -0.216197  0  3.774709  0  0  -0.2311  0  4.034311  0  0  -0.241644  0  4.051962  0  0  -0.110217  -0.224395  0  4.022678  0
C  C84  1  0.39996397  0.89094835  0.11555668  1  0  -0.12659  0  3.940027  0  0  -0.101628  0  4.178655  0  0  -0.116464  0  4.19844  0  0  -0.012421  -0.091978  0  4.165616  0
C  C85  1  0.10003724  0.39094682  0.38444706  1  0  -0.126729  0  3.940209  0  0  -0.1017  0  4.178779  0  0  -0.116528  0  4.198564  0  0  -0.012453  -0.092061  0  4.16576  0
C  C86  1  0.60004613  0.10905645  0.88445006  1  0  -0.126759  0  3.940238  0  0  -0.101788  0  4.178886  0  0  -0.116624  0  4.198674  0  0  -0.012478  -0.092149  0  4.165868  0
C  C87  1  0.89995741  0.60904772  0.61555092  1  0  -0.126648  0  3.940057  0  0  -0.101669  0  4.178658  0  0  -0.116528  0  4.198427  0  0  -0.012396  -0.092034  0  4.16565  0
C  C88  1  0.99581779  0.29681449  0.86700523  1  0  -0.191431  0  3.640942  0  0  -0.294526  0  3.88386  0  0  -0.290268  0  3.895307  0  0  -0.144515  -0.29707  0  3.87595  0
C  C89  1  0.50418200  0.79681128  0.63298923  1  0  -0.191255  0  3.640216  0  0  -0.294765  0  3.884089  0  0  -0.29041  0  3.89536  0  0  -0.144573  -0.297307  0  3.876175  0
C  C90  1  0.00418760  0.70318484  0.13299493  1  0  -0.191274  0  3.639979  0  0  -0.294789  0  3.883865  0  0  -0.290433  0  3.895142  0  0  -0.14459  -0.297327  0  3.875954  0
C  C91  1  0.49580950  0.20318531  0.36700415  1  0  -0.191567  0  3.641235  0  0  -0.294708  0  3.88412  0  0  -0.290356  0  3.895409  0  0  -0.144574  -0.297249  0  3.876217  0
C  C92  1  0.03276115  0.37985375  0.00490547  1  0  -0.180112  0  3.642137  0  0  -0.282083  0  3.887569  0  0  -0.278038  0  3.899099  0  0  -0.138758  -0.284362  0  3.879402  0
C  C93  1  0.46723403  0.87985049  0.49508652  1  0  -0.180037  0  3.641627  0  0  -0.282277  0  3.887583  0  0  -0.278201  0  3.899076  0  0  -0.138826  -0.284558  0  3.879423  0
C  C94  1  0.96724412  0.62014763  0.99508851  1  0  -0.180046  0  3.641574  0  0  -0.282319  0  3.887529  0  0  -0.278348  0  3.899305  0  0  -0.138839  -0.284592  0  3.87938  0
C  C95  1  0.53275293  0.12014816  0.50490893  1  0  -0.180024  0  3.641919  0  0  -0.282086  0  3.887344  0  0  -0.278011  0  3.898839  0  0  -0.138746  -0.284372  0  3.879184  0
C  C96  1  0.34366096  0.85616566  0.03293233  1  0  0.343724  0  3.770862  0  0  0.324932  0  4.024211  0  0  0.340164  0  4.042965  0  0  0.220607  0.314388  0  4.01211  0
C  C97  1  0.15635033  0.35616954  0.46706888  1  0  0.343622  0  3.77098  0  0  0.32482  0  4.024308  0  0  0.340048  0  4.043072  0  0  0.220493  0.31428  0  4.012208  0
C  C98  1  0.65635210  0.14383367  0.96706913  1  0  0.34385  0  3.771092  0  0  0.32507  0  4.024419  0  0  0.340301  0  4.043181  0  0  0.220636  0.31453  0  4.01232  0
C  C99  1  0.84365198  0.64383048  0.53292978  1  0  0.343806  0  3.771012  0  0  0.325003  0  4.024358  0  0  0.340231  0  4.043094  0  0  0.220568  0.31446  0  4.012268  0
S  S100  1  0.97785046  0.02216060  0.72534959  1  0  1.122828  0  5.849769  0  0  1.023496  0  6.388045  0  0  1.067247  0  6.368123  0  0  0.482197  0.993687  0  6.400161  0
S  S101  1  0.52217558  0.52216582  0.77466426  1  0  1.122144  0  5.852353  0  0  1.023603  0  6.388553  0  0  1.066897  0  6.369752  0  0  0.482126  0.993803  0  6.400649  0
S  S102  1  0.02217498  0.97783668  0.27465974  1  0  1.122199  0  5.852155  0  0  1.023695  0  6.388303  0  0  1.067448  0  6.368373  0  0  0.482206  0.993888  0  6.400413  0
S  S103  1  0.47782833  0.47783488  0.22533886  1  0  1.122866  0  5.850351  0  0  1.023495  0  6.388659  0  0  1.067243  0  6.368729  0  0  0.482109  0.993692  0  6.400761  0
N  N104  1  0.06227974  0.29690296  0.95902227  1  0  -0.056103  0  3.438319  0  0  0.052766  0  3.654131  0  0  0.030321  0  3.682914  0  0  -0.263019  0.067846  0  3.633973  0
N  N105  1  0.43771640  0.79689720  0.54097452  1  0  -0.055551  0  3.437677  0  0  0.053059  0  3.654208  0  0  0.030623  0  3.682992  0  0  -0.262918  0.068141  0  3.634045  0
N  N106  1  0.93771950  0.70310253  0.04097611  1  0  -0.055626  0  3.437556  0  0  0.053022  0  3.654126  0  0  0.030587  0  3.682869  0  0  -0.262938  0.0681  0  3.633964  0
N  N107  1  0.56227663  0.20310008  0.45901900  1  0  -0.056047  0  3.438238  0  0  0.052814  0  3.654042  0  0  0.030374  0  3.682828  0  0  -0.263024  0.067896  0  3.633881  0
N  N108  1  0.29691111  0.82721345  0.96422989  1  0  -0.44461  0  3.029696  0  0  -0.387862  0  3.344989  0  0  -0.404053  0  3.34889  0  0  -0.362984  -0.377305  0  3.343029  0
N  N109  1  0.20309803  0.32721597  0.53577080  1  0  -0.444522  0  3.029603  0  0  -0.387748  0  3.344874  0  0  -0.403936  0  3.348781  0  0  -0.362916  -0.377193  0  3.342912  0
N  N110  1  0.70309733  0.17278931  0.03576992  1  0  -0.444636  0  3.029565  0  0  -0.387882  0  3.34486  0  0  -0.404074  0  3.348771  0  0  -0.362976  -0.377324  0  3.342894  0
N  N111  1  0.79690583  0.67278542  0.46422922  1  0  -0.444649  0  3.029754  0  0  -0.387899  0  3.345066  0  0  -0.404087  0  3.348965  0  0  -0.362973  -0.377342  0  3.343109  0
N  N112  1  0.55077693  0.77391002  0.23116137  1  0  -0.451461  0  3.033676  0  0  -0.396891  0  3.358812  0  0  -0.411928  0  3.358351  0  0  -0.36773  -0.387032  0  3.359289  0
N  N113  1  0.94922360  0.27390893  0.26884592  1  0  -0.451892  0  3.034033  0  0  -0.397087  0  3.358617  0  0  -0.412122  0  3.358152  0  0  -0.367769  -0.387229  0  3.359105  0
N  N114  1  0.44924376  0.22608658  0.76883953  1  0  -0.452088  0  3.03348  0  0  -0.397284  0  3.358058  0  0  -0.412323  0  3.357571  0  0  -0.367936  -0.387424  0  3.35854  0
N  N115  1  0.05076811  0.72608561  0.73115858  1  0  -0.451736  0  3.033242  0  0  -0.397194  0  3.358412  0  0  -0.412394  0  3.358413  0  0  -0.367929  -0.387339  0  3.358908  0
O  O116  1  0.09873933  0.96727833  0.79461095  1  0  -0.641658  0  2.052206  0  0  -0.59798  0  2.337379  0  0  -0.618176  0  2.322062  0  0  -0.35311  -0.583479  0  2.346982  0
O  O117  1  0.40129830  0.46727474  0.70540225  1  0  -0.642198  0  2.053122  0  0  -0.598295  0  2.33754  0  0  -0.618714  0  2.322773  0  0  -0.353259  -0.583792  0  2.347138  0
O  O118  1  0.90129981  0.03271963  0.20539527  1  0  -0.642073  0  2.053037  0  0  -0.598162  0  2.337451  0  0  -0.618354  0  2.322127  0  0  -0.353173  -0.583663  0  2.34706  0
O  O119  1  0.59870563  0.53272185  0.29460210  1  0  -0.641864  0  2.052306  0  0  -0.598188  0  2.337502  0  0  -0.61838  0  2.322181  0  0  -0.353198  -0.583686  0  2.347104  0
O  O120  1  0.77665945  0.98535322  0.68645460  1  0  -0.611628  0  2.001113  0  0  -0.580893  0  2.254774  0  0  -0.599341  0  2.242648  0  0  -0.340673  -0.567635  0  2.262364  0
O  O121  1  0.72335558  0.48536099  0.81356893  1  0  -0.612152  0  2.00241  0  0  -0.580853  0  2.254925  0  0  -0.599675  0  2.243325  0  0  -0.340567  -0.567596  0  2.262507  0
O  O122  1  0.22335843  0.01463516  0.31355961  1  0  -0.612108  0  2.002483  0  0  -0.580807  0  2.254986  0  0  -0.599255  0  2.242859  0  0  -0.34056  -0.56755  0  2.262576  0
O  O123  1  0.27664533  0.51464040  0.18643700  1  0  -0.611539  0  2.001324  0  0  -0.580779  0  2.254983  0  0  -0.599229  0  2.24286  0  0  -0.34054  -0.56752  0  2.262568  0
O  O124  1  0.98430956  0.12030280  0.74161691  1  0  -0.601321  0  1.977168  0  0  -0.566462  0  2.227586  0  0  -0.58568  0  2.217282  0  0  -0.336589  -0.552701  0  2.23384  0
O  O125  1  0.51569391  0.62030170  0.75839713  1  0  -0.601227  0  1.977837  0  0  -0.566316  0  2.228045  0  0  -0.585646  0  2.218101  0  0  -0.336494  -0.552567  0  2.234302  0
O  O126  1  0.01569297  0.87969379  0.25839410  1  0  -0.601357  0  1.977372  0  0  -0.566529  0  2.227634  0  0  -0.585747  0  2.217318  0  0  -0.33662  -0.552769  0  2.233887  0
O  O127  1  0.48430235  0.37969694  0.24160531  1  0  -0.601242  0  1.977546  0  0  -0.566343  0  2.227921  0  0  -0.585568  0  2.217632  0  0  -0.336532  -0.55259  0  2.23418  0
F  F128  1  0.05162854  0.06753643  0.57471270  1  0  -0.234632  0  1.210972  0  0  -0.196749  0  1.382849  0  0  -0.204833  0  1.365837  0  0  -0.096373  -0.190448  0  1.394325  0
F  F129  1  0.44835262  0.56754067  0.92529166  1  0  -0.234912  0  1.212009  0  0  -0.196626  0  1.383303  0  0  -0.205317  0  1.366913  0  0  -0.096336  -0.190325  0  1.394771  0
F  F130  1  0.94836472  0.93247043  0.42529318  1  0  -0.234924  0  1.211798  0  0  -0.196682  0  1.383105  0  0  -0.204766  0  1.366089  0  0  -0.096352  -0.190386  0  1.394573  0
F  F131  1  0.55164819  0.43246071  0.07470872  1  0  -0.23462  0  1.211349  0  0  -0.196687  0  1.383214  0  0  -0.204785  0  1.366192  0  0  -0.096336  -0.190393  0  1.394678  0
F  F132  1  0.32541290  0.02445547  0.66750828  1  0  -0.234497  0  1.226155  0  0  -0.182237  0  1.390546  0  0  -0.19846  0  1.38188  0  0  -0.087408  -0.174424  0  1.400602  0
F  F133  1  0.17459385  0.52445970  0.83249298  1  0  -0.235567  0  1.227213  0  0  -0.182239  0  1.390718  0  0  -0.193094  0  1.376353  0  0  -0.087451  -0.174429  0  1.400771  0
F  F134  1  0.67459556  0.97555276  0.33249277  1  0  -0.235538  0  1.227301  0  0  -0.182211  0  1.390777  0  0  -0.198451  0  1.382121  0  0  -0.087407  -0.174401  0  1.400825  0
F  F135  1  0.82540857  0.47554237  0.16751185  1  0  -0.234502  0  1.226211  0  0  -0.182217  0  1.390615  0  0  -0.198427  0  1.381926  0  0  -0.087422  -0.174411  0  1.400662  0
F  F136  1  0.09979846  0.92181451  0.60771126  1  0  -0.227868  0  1.197922  0  0  -0.183315  0  1.35848  0  0  -0.19221  0  1.343326  0  0  -0.095673  -0.176464  0  1.368663  0
F  F137  1  0.40020215  0.42182138  0.89229948  1  0  -0.219131  0  1.18873  0  0  -0.183385  0  1.35852  0  0  -0.192863  0  1.343972  0  0  -0.095754  -0.176539  0  1.368699  0
F  F138  1  0.90021613  0.07819167  0.39229033  1  0  -0.219057  0  1.188615  0  0  -0.183298  0  1.358381  0  0  -0.19219  0  1.343223  0  0  -0.095744  -0.176451  0  1.36856  0
F  F139  1  0.59979878  0.57818206  0.10770769  1  0  -0.227868  0  1.19794  0  0  -0.183338  0  1.358547  0  0  -0.192242  0  1.343386  0  0  -0.095685  -0.176496  0  1.368723  0
