# generated using pymatgen
data_AlH6C24(OF)6
_symmetry_space_group_name_H-M   'P 1'
_cell_length_a   3.98422408
_cell_length_b   29.09845348
_cell_length_c   29.09870653
_cell_angle_alpha   119.99830694
_cell_angle_beta   89.99817427
_cell_angle_gamma   90.00081260
_symmetry_Int_Tables_number   1
_chemical_formula_structural   AlH6C24(OF)6
_chemical_formula_sum   'Al2 H12 C48 O12 F12'
_cell_volume   2921.63116322
_cell_formula_units_Z   2
loop_
 _symmetry_equiv_pos_site_id
 _symmetry_equiv_pos_as_xyz
  1  'x, y, z'
loop_
 _atom_site_type_symbol
 _atom_site_label
 _atom_site_symmetry_multiplicity
 _atom_site_fract_x
 _atom_site_fract_y
 _atom_site_fract_z
 _atom_site_occupancy
 _atom_site_pbe_bader_charge
 _atom_site_pbe_bader_spin_density
 _atom_site_pbe_cm5_charge
 _atom_site_pbe_ddec_charge
 _atom_site_pbe_ddec_spin_density
 _atom_site_pbe_ddec_sum_bond_order
 _atom_site_pbe_magmom
Al  Al0  1  0.00004442  0.49999903  0.50000287  1  2.505531  0  0.430941  1.599322  0  2.569539  0
Al  Al1  1  0.99954977  0.16666185  0.83334410  1  2.506708  0  0.431537  1.600276  0  2.567821  0
H  H2  1  0.49828736  0.21481283  0.63585629  1  0.075958  0  0.117689  0.147973  0  0.973333  0
H  H3  1  0.50135778  0.36415654  0.78518960  1  0.075373  0  0.117845  0.148131  0  0.973334  0
H  H4  1  0.50132359  0.30249609  0.54813881  1  0.075172  0  0.117804  0.14807  0  0.973299  0
H  H5  1  0.49864885  0.45184971  0.69749315  1  0.075438  0  0.117807  0.148159  0  0.973102  0
H  H6  1  0.49825618  0.92101246  0.78516658  1  0.07334  0  0.117856  0.148158  0  0.973332  0
H  H7  1  0.50137521  0.92103214  0.63583407  1  0.074699  0  0.117791  0.148048  0  0.973543  0
H  H8  1  0.50133177  0.74562946  0.69749185  1  0.075029  0  0.117784  0.148122  0  0.973171  0
H  H9  1  0.49863788  0.74563301  0.54813768  1  0.073027  0  0.11779  0.14809  0  0.973128  0
H  H10  1  0.49829732  0.36416740  0.07896781  1  0.074405  0  0.117791  0.148121  0  0.97335  0
H  H11  1  0.50139700  0.21483477  0.07899258  1  0.073621  0  0.117763  0.148091  0  0.973036  0
H  H12  1  0.50130396  0.45187552  0.25437156  1  0.072708  0  0.117829  0.14818  0  0.97319  0
H  H13  1  0.49863339  0.30251786  0.25437052  1  0.075102  0  0.117883  0.148219  0  0.97315  0
C  C14  1  0.50004597  0.45936129  0.41871385  1  1.581166  0  0.284852  0.702998  0  4.052606  0
C  C15  1  0.50002724  0.45934846  0.54064323  1  1.593535  0  0.284861  0.702805  0  4.052961  0
C  C16  1  0.50004095  0.58128697  0.54064675  1  1.579731  0  0.28485  0.703031  0  4.052491  0
C  C17  1  0.49955692  0.20732560  0.79270225  1  1.593634  0  0.285247  0.702998  0  4.052323  0
C  C18  1  0.49955826  0.08535962  0.79267602  1  1.581528  0  0.284964  0.702848  0  4.052339  0
C  C19  1  0.49955826  0.20730653  0.91464405  1  1.577413  0  0.284906  0.702707  0  4.052427  0
C  C20  1  0.49963705  0.23696907  0.76305380  1  -0.024116  0  -0.023089  -0.259953  0  3.947469  0
C  C21  1  0.49348770  0.21077448  0.70749624  1  0.52387  0  0.110029  0.303442  0  4.068491  0
C  C22  1  0.49701865  0.23724241  0.67901156  1  0.099097  0  -0.098048  -0.278316  0  3.946768  0
C  C23  1  0.49979933  0.29317940  0.70682795  1  0.147324  0  0.008417  0.193483  0  4.132883  0
C  C24  1  0.50249510  0.32100451  0.76276880  1  0.100173  0  -0.098096  -0.278397  0  3.947501  0
C  C25  1  0.50584390  0.29252914  0.78924088  1  0.521352  0  0.109926  0.303365  0  4.070354  0
C  C26  1  0.49989677  0.32123589  0.67876714  1  -0.070575  0  -0.036723  -0.094342  0  4.079944  0
C  C27  1  0.49994590  0.34542917  0.65456259  1  -0.294422  0  -0.036599  -0.094031  0  4.079965  0
C  C28  1  0.49998060  0.37348550  0.62650401  1  0.147483  0  0.008376  0.193206  0  4.133079  0
C  C29  1  0.50264597  0.34565703  0.57056375  1  0.099754  0  -0.097948  -0.278145  0  3.94771  0
C  C30  1  0.50601868  0.37414846  0.54410652  1  0.522285  0  0.109821  0.303299  0  4.069856  0
C  C31  1  0.50002240  0.42970444  0.57028398  1  -0.024609  0  -0.023035  -0.259836  0  3.947701  0
C  C32  1  0.49399874  0.45588423  0.62583987  1  0.522646  0  0.109838  0.303286  0  4.069533  0
C  C33  1  0.49732985  0.42942825  0.65433252  1  0.100483  0  -0.098082  -0.278414  0  3.946875  0
C  C34  1  0.49961632  0.02606806  0.76302849  1  0.209963  0  -0.02313  -0.260272  0  3.947448  0
C  C35  1  0.49343805  0.99669715  0.78921702  1  0.413862  0  0.110033  0.303735  0  4.068905  0
C  C36  1  0.49697469  0.94174593  0.76274273  1  0.02884  0  -0.098335  -0.27906  0  3.947026  0
C  C37  1  0.49980319  0.91363157  0.70680588  1  0.232832  0  0.008536  0.194185  0  4.132195  0
C  C38  1  0.50249836  0.94175545  0.67898627  1  0.102118  0  -0.09807  -0.278462  0  3.947488  0
C  C39  1  0.50584363  0.99670260  0.70746877  1  0.393596  0  0.109877  0.303568  0  4.070073  0
C  C40  1  0.49992397  0.85751661  0.67874683  1  -0.291996  0  -0.03663  -0.094671  0  4.079835  0
C  C41  1  0.49996942  0.80912058  0.65455746  1  0.002919  0  -0.036624  -0.09384  0  4.079612  0
C  C42  1  0.49998981  0.75300874  0.62650353  1  0.147746  0  0.008234  0.193001  0  4.133275  0
C  C43  1  0.50265578  0.72489542  0.65433250  1  0.102925  0  -0.097953  -0.278248  0  3.947284  0
C  C44  1  0.50602699  0.66994821  0.62584317  1  0.392084  0  0.109818  0.303373  0  4.069518  0
C  C45  1  0.50005066  0.64057063  0.57028638  1  0.208952  0  -0.022977  -0.259957  0  3.947502  0
C  C46  1  0.49401126  0.66994808  0.54410606  1  0.3787  0  0.109732  0.30313  0  4.070049  0
C  C47  1  0.49733669  0.72489668  0.57056303  1  0.06449  0  -0.09795  -0.278114  0  3.947267  0
C  C48  1  0.49967608  0.23696517  0.97393430  1  0.208883  0  -0.023135  -0.260196  0  3.947895  0
C  C49  1  0.49351080  0.29252531  0.00329519  1  0.392612  0  0.110209  0.30374  0  4.068888  0
C  C50  1  0.49703248  0.32101044  0.05824407  1  0.10265  0  -0.098166  -0.27874  0  3.947293  0
C  C51  1  0.49984401  0.29319718  0.08637230  1  0.233045  0  0.008552  0.194082  0  4.132147  0
C  C52  1  0.50255252  0.23725557  0.05825605  1  0.041439  0  -0.098143  -0.278664  0  3.946753  0
C  C53  1  0.50589552  0.21078058  0.00331014  1  0.400503  0  0.109945  0.30362  0  4.070186  0
C  C54  1  0.49990940  0.32125446  0.14248581  1  -0.291858  0  -0.036554  -0.094485  0  4.07978  0
C  C55  1  0.49994534  0.34545286  0.19088132  1  0.013331  0  -0.036726  -0.094039  0  4.079861  0
C  C56  1  0.49996806  0.37350571  0.24699238  1  0.136961  0  0.00826  0.193106  0  4.133243  0
C  C57  1  0.50262070  0.42944715  0.27510329  1  0.072125  0  -0.098079  -0.278395  0  3.947376  0
C  C58  1  0.50600674  0.45590387  0.33004958  1  0.371185  0  0.109795  0.30326  0  4.069426  0
C  C59  1  0.50002353  0.42972523  0.35942989  1  0.208523  0  -0.022995  -0.259805  0  3.947144  0
C  C60  1  0.49400527  0.37416970  0.33005609  1  0.334793  0  0.109721  0.303202  0  4.06959  0
C  C61  1  0.49732308  0.34567914  0.27510851  1  0.161227  0  -0.097988  -0.278301  0  3.947083  0
O  O62  1  0.73633309  0.55837259  0.55077370  1  -1.24117  0  -0.227702  -0.586474  0  2.357083  0
O  O63  1  0.73634704  0.49239955  0.44162758  1  -1.237876  0  -0.227692  -0.586487  0  2.357093  0
O  O64  1  0.73632739  0.44922444  0.50760365  1  -1.241296  0  -0.227626  -0.586242  0  2.357285  0
O  O65  1  0.26375157  0.55837561  0.50760904  1  -1.237292  0  -0.227538  -0.586232  0  2.357423  0
O  O66  1  0.26373082  0.49238852  0.55077128  1  -1.240759  0  -0.227652  -0.58634  0  2.357425  0
O  O67  1  0.26375597  0.44923290  0.44162773  1  -1.241465  0  -0.227553  -0.586349  0  2.357577  0
O  O68  1  0.73576325  0.17425911  0.89170942  1  -1.236726  0  -0.227702  -0.586295  0  2.357325  0
O  O69  1  0.73575529  0.21743174  0.82574752  1  -1.241047  0  -0.227877  -0.58648  0  2.357746  0
O  O70  1  0.73580481  0.10829734  0.78257059  1  -1.241708  0  -0.227821  -0.586406  0  2.357261  0
O  O71  1  0.26331460  0.21742270  0.89171816  1  -1.238698  0  -0.228055  -0.586779  0  2.35731  0
O  O72  1  0.26334660  0.10828430  0.82572291  1  -1.23762  0  -0.22781  -0.58661  0  2.357379  0
O  O73  1  0.26332217  0.17428000  0.78258436  1  -1.24242  0  -0.228192  -0.586815  0  2.357105  0
F  F74  1  0.49373149  0.15701207  0.68028060  1  -0.641304  0  -0.090551  -0.124275  0  1.318458  0
F  F75  1  0.50560080  0.31974415  0.84300140  1  -0.641313  0  -0.090513  -0.124333  0  1.319199  0
F  F76  1  0.50572215  0.34693247  0.49034423  1  -0.641184  0  -0.09056  -0.124399  0  1.318955  0
F  F77  1  0.49430462  0.50964624  0.65305867  1  -0.641333  0  -0.090564  -0.124372  0  1.318775  0
F  F78  1  0.49362860  0.02323308  0.84297658  1  -0.643592  0  -0.090576  -0.124287  0  1.318491  0
F  F79  1  0.50558649  0.02325625  0.68025824  1  -0.63564  0  -0.090461  -0.124387  0  1.318962  0
F  F80  1  0.50572893  0.64340087  0.65306153  1  -0.634726  0  -0.090628  -0.124451  0  1.318828  0
F  F81  1  0.49432217  0.64340415  0.49034320  1  -0.643337  0  -0.090492  -0.124297  0  1.319085  0
F  F82  1  0.49373903  0.31973656  0.97674361  1  -0.634383  0  -0.090655  -0.124347  0  1.318295  0
F  F83  1  0.50564778  0.15701929  0.97677112  1  -0.643007  0  -0.090514  -0.124377  0  1.318913  0
F  F84  1  0.50570278  0.50966791  0.35659898  1  -0.643449  0  -0.090566  -0.124392  0  1.31878  0
F  F85  1  0.49432971  0.34694636  0.35659647  1  -0.63498  0  -0.090531  -0.124323  0  1.318898  0
