# generated using pymatgen
data_CdH20C23N4O7
_symmetry_space_group_name_H-M   'P 1'
_cell_length_a   10.45372885
_cell_length_b   10.78866166
_cell_length_c   11.62400000
_cell_angle_alpha   76.57399957
_cell_angle_beta   86.20930166
_cell_angle_gamma   69.53802901
_symmetry_Int_Tables_number   1
_chemical_formula_structural   CdH20C23N4O7
_chemical_formula_sum   'Cd2 H40 C46 N8 O14'
_cell_volume   1194.52761518
_cell_formula_units_Z   2
loop_
 _symmetry_equiv_pos_site_id
 _symmetry_equiv_pos_as_xyz
  1  'x, y, z'
loop_
 _atom_site_type_symbol
 _atom_site_label
 _atom_site_symmetry_multiplicity
 _atom_site_fract_x
 _atom_site_fract_y
 _atom_site_fract_z
 _atom_site_occupancy
 _atom_site_hle17_bader_spin_density
 _atom_site_hle17_ddec_charge
 _atom_site_hle17_ddec_spin_density
 _atom_site_hle17_ddec_sum_bond_order
 _atom_site_hle17_magmom
 _atom_site_hse06_10hf_bader_spin_density
 _atom_site_hse06_10hf_ddec_charge
 _atom_site_hse06_10hf_ddec_spin_density
 _atom_site_hse06_10hf_ddec_sum_bond_order
 _atom_site_hse06_10hf_magmom
 _atom_site_hse06_bader_spin_density
 _atom_site_hse06_ddec_charge
 _atom_site_hse06_ddec_spin_density
 _atom_site_hse06_ddec_sum_bond_order
 _atom_site_hse06_magmom
 _atom_site_pbe_bader_charge
 _atom_site_pbe_bader_spin_density
 _atom_site_pbe_cm5_charge
 _atom_site_pbe_ddec_charge
 _atom_site_pbe_ddec_spin_density
 _atom_site_pbe_ddec_sum_bond_order
 _atom_site_pbe_magmom
Cd  Cd0  1  0.35116344  0.85719905  0.37025477  1  0  1.136466  0  1.68525  0  0  0.948655  0  2.130601  0  0  1.004407  0  2.077894  0  1.2727  0  0.771101  0.906355  0  2.168833  0
Cd  Cd1  1  0.64883614  0.14280374  0.62974655  1  0  1.136463  0  1.685245  0  0  0.948653  0  2.130595  0  0  1.004407  0  2.077887  0  1.272694  0  0.771085  0.906355  0  2.168824  0
H  H2  1  0.29707014  0.05539331  0.53026920  1  0  0.424907  0  0.880753  0  0  0.394321  0  0.944286  0  0  0.405398  0  0.928317  0  0.643935  0  0.282321  0.386278  0  0.955877  0
H  H3  1  0.70293145  0.94460644  0.46973007  1  0  0.424898  0  0.880768  0  0  0.394307  0  0.944311  0  0  0.405385  0  0.92834  0  0.643939  0  0.282314  0.386262  0  0.955904  0
H  H4  1  0.21473181  0.12249601  0.40732290  1  0  0.404879  0  0.908341  0  0  0.374213  0  0.972908  0  0  0.384518  0  0.957962  0  0.628729  0  0.282487  0.366705  0  0.98383  0
H  H5  1  0.78527013  0.87750272  0.59267571  1  0  0.404916  0  0.908289  0  0  0.374223  0  0.972895  0  0  0.384527  0  0.957949  0  0.628728  0  0.282494  0.366714  0  0.983817  0
H  H6  1  0.96300253  0.19200739  0.37708385  1  0  0.426354  0  0.764277  0  0  0.412402  0  0.812851  0  0  0.422026  0  0.802986  0  0.653321  0  0.358009  0.405482  0  0.820014  0
H  H7  1  0.03700238  0.80798830  0.62291782  1  0  0.426348  0  0.764283  0  0  0.412432  0  0.81282  0  0  0.422036  0  0.802996  0  0.653358  0  0.358079  0.405522  0  0.819966  0
H  H8  1  0.19114389  0.48350714  0.33846492  1  0  0.112393  0  0.953519  0  0  0.115353  0  1.026239  0  0  0.119363  0  1.023253  0  0.15455  0  0.10782  0.112846  0  1.027809  0
H  H9  1  0.80885594  0.51649769  0.66153508  1  0  0.112429  0  0.953519  0  0  0.115378  0  1.026237  0  0  0.119388  0  1.023252  0  0.15456  0  0.107853  0.112871  0  1.027807  0
H  H10  1  0.88350799  0.87020160  0.34314075  1  0  0.115631  0  0.946621  0  0  0.121499  0  1.013374  0  0  0.126748  0  1.007627  0  0.130265  0  0.108382  0.117829  0  1.0173  0
H  H11  1  0.11649369  0.12979510  0.65685832  1  0  0.115635  0  0.946557  0  0  0.121516  0  1.013303  0  0  0.126763  0  1.00756  0  0.130244  0  0.108383  0.117845  0  1.017229  0
H  H12  1  0.76406276  0.52924343  0.33476194  1  0  0.106478  0  0.963148  0  0  0.111399  0  1.034712  0  0  0.115005  0  1.031582  0  0.109399  0  0.107492  0.108853  0  1.036779  0
H  H13  1  0.23593438  0.47075530  0.66523781  1  0  0.106502  0  0.963192  0  0  0.111415  0  1.034748  0  0  0.115021  0  1.03162  0  0.109349  0  0.107497  0.108871  0  1.036813  0
H  H14  1  0.37522361  0.56737613  0.57981701  1  0  0.106007  0  0.936055  0  0  0.114957  0  1.00138  0  0  0.117638  0  0.997808  0  0.157552  0  0.138396  0.11296  0  1.003813  0
H  H15  1  0.62478120  0.43262260  0.42018229  1  0  0.105969  0  0.936116  0  0  0.114925  0  1.001441  0  0  0.117604  0  0.997863  0  0.157537  0  0.138388  0.112929  0  1.003875  0
H  H16  1  0.54235883  0.86659012  0.59582145  1  0  0.108592  0  0.973197  0  0  0.11712  0  1.036371  0  0  0.119939  0  1.034468  0  0.137803  0  0.116978  0.114921  0  1.038051  0
H  H17  1  0.45764599  0.13340861  0.40417527  1  0  0.108663  0  0.973152  0  0  0.117151  0  1.036367  0  0  0.119969  0  1.034466  0  0.137806  0  0.117008  0.114953  0  1.038046  0
H  H18  1  0.61768072  0.66050221  0.80092180  1  0  0.105094  0  1.002005  0  0  0.11192  0  1.071716  0  0  0.114281  0  1.071403  0  0.128358  0  0.114266  0.110401  0  1.071629  0
H  H19  1  0.38232314  0.33949652  0.19907498  1  0  0.105035  0  1.002  0  0  0.111883  0  1.071688  0  0  0.114245  0  1.071358  0  0.128297  0  0.114276  0.110359  0  1.071615  0
H  H20  1  0.58677113  0.42993784  0.86373225  1  0  0.091913  0  0.913081  0  0  0.108363  0  0.973571  0  0  0.108594  0  0.974688  0  0.099358  0  0.115055  0.107871  0  0.973285  0
H  H21  1  0.41323046  0.57006190  0.13626703  1  0  0.092002  0  0.913086  0  0  0.108441  0  0.973552  0  0  0.108672  0  0.974673  0  0.09937  0  0.115096  0.107947  0  0.973268  0
H  H22  1  0.49388574  0.38561244  0.76791155  1  0  0.11156  0  0.960049  0  0  0.124382  0  1.025203  0  0  0.126305  0  1.02316  0  0.161136  0  0.12125  0.122701  0  1.02725  0
H  H23  1  0.50611610  0.61438934  0.23208469  1  0  0.111566  0  0.960117  0  0  0.12438  0  1.025255  0  0  0.126305  0  1.023213  0  0.160995  0  0.121249  0.122699  0  1.027302  0
H  H24  1  0.31029969  0.71943595  0.82142044  1  0  0.093314  0  0.965802  0  0  0.103138  0  1.026791  0  0  0.105809  0  1.026074  0  0.082918  0  0.101132  0.101343  0  1.027134  0
H  H25  1  0.68971012  0.28055669  0.17857729  1  0  0.093245  0  0.965874  0  0  0.103083  0  1.026855  0  0  0.105754  0  1.026137  0  0.083142  0  0.101108  0.101288  0  1.027198  0
H  H26  1  0.10443884  0.77584530  0.94481064  1  0  0.086128  0  0.947217  0  0  0.099394  0  1.001479  0  0  0.102023  0  1.000591  0  0.036565  0  0.099259  0.097663  0  1.001858  0
H  H27  1  0.89555881  0.22415749  0.05518993  1  0  0.08616  0  0.947239  0  0  0.099371  0  1.001545  0  0  0.101999  0  1.00066  0  0.036601  0  0.099253  0.097641  0  1.001924  0
H  H28  1  0.04251379  0.58936070  0.08039594  1  0  0.084754  0  0.961486  0  0  0.095755  0  1.022643  0  0  0.097522  0  1.023678  0  0.041511  0  0.096436  0.094293  0  1.022495  0
H  H29  1  0.95748230  0.41064108  0.91960408  1  0  0.084772  0  0.961424  0  0  0.095746  0  1.022614  0  0  0.097509  0  1.023647  0  0.041554  0  0.096452  0.094284  0  1.022467  0
H  H30  1  0.18577123  0.35097043  0.09066117  1  0  0.098888  0  0.976326  0  0  0.105894  0  1.04295  0  0  0.108668  0  1.042189  0  0.096992  0  0.099943  0.103916  0  1.043679  0
H  H31  1  0.81423176  0.64902525  0.90933374  1  0  0.098898  0  0.976268  0  0  0.10589  0  1.04292  0  0  0.10866  0  1.042163  0  0.097058  0  0.099942  0.103911  0  1.043651  0
H  H32  1  0.43867763  0.23527107  0.87655162  1  0  0.103283  0  0.967461  0  0  0.115316  0  1.033267  0  0  0.116834  0  1.032673  0  0.161922  0  0.115209  0.114073  0  1.033916  0
H  H33  1  0.56132194  0.76473172  0.12344454  1  0  0.10331  0  0.967447  0  0  0.115346  0  1.033244  0  0  0.116863  0  1.03265  0  0.161984  0  0.115226  0.114104  0  1.033892  0
H  H34  1  0.52296239  0.22985791  0.00577387  1  0  0.085324  0  0.910984  0  0  0.102565  0  0.971597  0  0  0.103094  0  0.971835  0  0.060388  0  0.116568  0.102164  0  0.971188  0
H  H35  1  0.47703597  0.77014285  0.99422451  1  0  0.085306  0  0.911001  0  0  0.102549  0  0.971608  0  0  0.103079  0  0.971844  0  0.060502  0  0.116577  0.102147  0  0.971202  0
H  H36  1  0.20166680  0.17642158  0.91969431  1  0  0.117194  0  0.954984  0  0  0.129467  0  1.011246  0  0  0.131406  0  1.011595  0  0.137722  0  0.122635  0.127956  0  1.01122  0
H  H37  1  0.79833671  0.82357816  0.08030485  1  0  0.117199  0  0.954956  0  0  0.129481  0  1.011216  0  0  0.131421  0  1.011562  0  0.137742  0  0.12265  0.127971  0  1.01119  0
H  H38  1  0.15363983  0.98580149  0.11137668  1  0  0.10732  0  0.949778  0  0  0.117447  0  1.006716  0  0  0.120215  0  1.005064  0  0.104525  0  0.117627  0.115498  0  1.0078  0
H  H39  1  0.84636246  0.01419623  0.88861783  1  0  0.107348  0  0.949732  0  0  0.117466  0  1.006671  0  0  0.120234  0  1.005018  0  0.104258  0  0.117657  0.115517  0  1.007755  0
H  H40  1  0.49577435  0.07192817  0.19262659  1  0  0.099837  0  0.953914  0  0  0.10581  0  1.024416  0  0  0.1083  0  1.021732  0  0.168044  0  0.134113  0.10381  0  1.026507  0
H  H41  1  0.50423073  0.92807259  0.80737139  1  0  0.099824  0  0.953971  0  0  0.105752  0  1.024528  0  0  0.108244  0  1.021845  0  0.168088  0  0.134103  0.10377  0  1.026604  0
C  C42  1  0.65826645  0.79400116  0.33881358  1  0  0.641427  0  3.93437  0  0  0.589202  0  4.230256  0  0  0.623309  0  4.223928  0  1.589447  0  0.201659  0.566087  0  4.233398  0
C  C43  1  0.34173338  0.20600366  0.66117610  1  0  0.641445  0  3.934376  0  0  0.589247  0  4.230226  0  0  0.623356  0  4.223896  0  1.588696  0  0.201652  0.566133  0  4.233367  0
C  C44  1  0.15585274  0.74512436  0.34435067  1  0  0.616219  0  3.976665  0  0  0.571387  0  4.26313  0  0  0.605278  0  4.258625  0  1.558443  0  0.181888  0.54859  0  4.264828  0
C  C45  1  0.84414754  0.25487640  0.65564416  1  0  0.616291  0  3.976647  0  0  0.571433  0  4.263142  0  0  0.605322  0  4.258635  0  1.558332  0  0.181857  0.548636  0  4.264839  0
C  C46  1  0.02338588  0.34399412  0.33779063  1  0  0.658866  0  3.79078  0  0  0.608079  0  4.087129  0  0  0.641717  0  4.078891  0  1.486115  0  0.243757  0.58489  0  4.092648  0
C  C47  1  0.97661092  0.65600562  0.66220721  1  0  0.658859  0  3.790761  0  0  0.608041  0  4.087145  0  0  0.641682  0  4.0789  0  1.486386  0  0.243822  0.584853  0  4.092666  0
C  C48  1  0.98159190  0.49028349  0.33637905  1  0  -0.096803  0  3.794278  0  0  -0.069387  0  4.031205  0  0  -0.081742  0  4.056015  0  -0.05623  0  -0.02014  -0.061279  0  4.014488  0
C  C49  1  0.01841048  0.50971119  0.66362901  1  0  -0.096777  0  3.794249  0  0  -0.069397  0  4.031199  0  0  -0.081752  0  4.056011  0  -0.056157  0  -0.020192  -0.061289  0  4.014482  0
C  C50  1  0.08379322  0.54666949  0.33714174  1  0  -0.043651  0  3.667181  0  0  -0.082874  0  3.918212  0  0  -0.077661  0  3.935454  0  -0.077246  0  -0.064823  -0.086281  0  3.906507  0
C  C51  1  0.91620575  0.45333228  0.66285639  1  0  -0.043642  0  3.667199  0  0  -0.082844  0  3.918206  0  0  -0.077629  0  3.935444  0  -0.077273  0  -0.064805  -0.086251  0  3.906501  0
C  C52  1  0.04784994  0.68369466  0.33909556  1  0  -0.063837  0  3.74967  0  0  -0.036471  0  3.984663  0  0  -0.047172  0  4.008195  0  0.030137  0  -0.018034  -0.029847  0  3.969257  0
C  C53  1  0.95214721  0.31630407  0.66091280  1  0  -0.063788  0  3.74968  0  0  -0.036418  0  3.984666  0  0  -0.047119  0  4.008199  0  0.029955  0  -0.017958  -0.029794  0  3.96926  0
C  C54  1  0.90977117  0.76412169  0.33975212  1  0  -0.056289  0  3.679151  0  0  -0.095789  0  3.927034  0  0  -0.090961  0  3.943461  0  -0.143841  0  -0.072141  -0.098135  0  3.915914  0
C  C55  1  0.09022492  0.23588009  0.66024619  1  0  -0.05633  0  3.679173  0  0  -0.095843  0  3.927085  0  0  -0.091017  0  3.943515  0  -0.143895  0  -0.072193  -0.098189  0  3.915965  0
C  C56  1  0.80731225  0.70895473  0.33781603  1  0  -0.08128  0  3.763327  0  0  -0.053366  0  4.001122  0  0  -0.063875  0  4.024018  0  0.008089  0  -0.023364  -0.046843  0  3.985777  0
C  C57  1  0.19268474  0.29103892  0.66219258  1  0  -0.081263  0  3.763303  0  0  -0.053364  0  4.001096  0  0  -0.06387  0  4.023989  0  0.008885  0  -0.02336  -0.046842  0  3.985753  0
C  C58  1  0.84396810  0.57160780  0.33635545  1  0  -0.041756  0  3.674263  0  0  -0.082708  0  3.925454  0  0  -0.076978  0  3.942593  0  0.026591  0  -0.069319  -0.085851  0  3.913455  0
C  C59  1  0.15603262  0.42838890  0.66364797  1  0  -0.041831  0  3.674224  0  0  -0.082745  0  3.925407  0  0  -0.077016  0  3.942544  0  0.026714  0  -0.069319  -0.085889  0  3.91341  0
C  C60  1  0.42867442  0.62304857  0.61164161  1  0  0.173526  0  3.634506  0  0  0.109648  0  3.90296  0  0  0.124246  0  3.914841  0  0.991853  0  0.144957  0.10016  0  3.894303  0
C  C61  1  0.57132480  0.37695524  0.38835693  1  0  0.173538  0  3.634533  0  0  0.109658  0  3.902997  0  0  0.124264  0  3.914871  0  0.991733  0  0.144961  0.100167  0  3.894343  0
C  C62  1  0.51810352  0.77452880  0.62329030  1  0  0.010865  0  3.743416  0  0  -0.022449  0  4.003624  0  0  -0.020197  0  4.0242  0  0.407732  0  -0.005614  -0.024309  0  3.99026  0
C  C63  1  0.48189126  0.22547399  0.37671130  1  0  0.010733  0  3.743476  0  0  -0.022547  0  4.003717  0  0  -0.020297  0  4.024294  0  0.407634  0  -0.005646  -0.024406  0  3.990351  0
C  C64  1  0.55384575  0.67566983  0.72576543  1  0  -0.085529  0  3.698224  0  0  -0.124146  0  3.960589  0  0  -0.123092  0  3.978825  0  0.267558  0  -0.008196  -0.124964  0  3.948313  0
C  C65  1  0.44614929  0.32433500  0.27423744  1  0  -0.085385  0  3.698047  0  0  -0.124002  0  3.960403  0  0  -0.122942  0  3.978639  0  0.26775  0  -0.008177  -0.124821  0  3.948122  0
C  C66  1  0.49218367  0.46692558  0.81036733  1  0  -0.053812  0  3.653854  0  0  -0.119925  0  3.901365  0  0  -0.115754  0  3.9113  0  0.258302  0  -0.049223  -0.122662  0  3.895024  0
C  C67  1  0.50781686  0.53307721  0.18963049  1  0  -0.053987  0  3.653977  0  0  -0.12006  0  3.901426  0  0  -0.115895  0  3.911369  0  0.258396  0  -0.049271  -0.122795  0  3.895084  0
C  C68  1  0.36700720  0.50300284  0.88657410  1  0  0.028032  0  3.706262  0  0  0.041889  0  3.949488  0  0  0.040261  0  3.97469  0  -0.113892  0  -0.011422  0.043064  0  3.932656  0
C  C69  1  0.63299151  0.49699690  0.11342363  1  0  0.028127  0  3.706424  0  0  0.04202  0  3.949573  0  0  0.040392  0  3.974779  0  -0.114024  0  -0.011335  0.043193  0  3.932737  0
C  C70  1  0.28436920  0.63804566  0.88162473  1  0  -0.12744  0  3.781062  0  0  -0.149924  0  4.035531  0  0  -0.152272  0  4.057231  0  0.008081  0  -0.100824  -0.148055  0  4.020113  0
C  C71  1  0.71562925  0.36195206  0.11837344  1  0  -0.127381  0  3.781127  0  0  -0.149891  0  4.035572  0  0  -0.152239  0  4.057275  0  0.008149  0  -0.100836  -0.148019  0  4.020148  0
C  C72  1  0.16810080  0.67001407  0.95091617  1  0  -0.078652  0  3.812726  0  0  -0.091871  0  4.062314  0  0  -0.093731  0  4.083829  0  -0.078971  0  -0.09939  -0.090333  0  4.047155  0
C  C73  1  0.83189695  0.32998568  0.04908419  1  0  -0.078739  0  3.812741  0  0  -0.091904  0  4.062322  0  0  -0.093763  0  4.083834  0  -0.079326  0  -0.099396  -0.090368  0  4.047167  0
C  C74  1  0.13311341  0.56621595  0.02607669  1  0  -0.063425  0  3.79097  0  0  -0.077752  0  4.041658  0  0  -0.080035  0  4.064636  0  0.057313  0  -0.095677  -0.076234  0  4.027201  0
C  C75  1  0.86688304  0.43378481  0.97392439  1  0  -0.063317  0  3.790908  0  0  -0.07763  0  4.041593  0  0  -0.079902  0  4.064556  0  0.057341  0  -0.095638  -0.076112  0  4.027139  0
C  C76  1  0.21458166  0.43104626  0.03153503  1  0  -0.133804  0  3.77403  0  0  -0.154298  0  4.02616  0  0  -0.156723  0  4.047293  0  -0.111938  0  -0.100346  -0.152898  0  4.012849  0
C  C77  1  0.78542280  0.56895349  0.96846580  1  0  -0.133755  0  3.773675  0  0  -0.154245  0  4.025821  0  0  -0.156665  0  4.046954  0  -0.112062  0  -0.100272  -0.15285  0  4.01251  0
C  C78  1  0.33163562  0.39790345  0.96287065  1  0  0.021502  0  3.706966  0  0  0.037743  0  3.94737  0  0  0.036128  0  3.971902  0  -0.048807  0  -0.013097  0.038251  0  3.931195  0
C  C79  1  0.66836536  0.60209528  0.03713232  1  0  0.021327  0  3.706837  0  0  0.037573  0  3.947199  0  0  0.035956  0  3.971731  0  -0.048669  0  -0.013232  0.038091  0  3.931015  0
C  C80  1  0.42184964  0.25190439  0.96710422  1  0  -0.050984  0  3.651568  0  0  -0.118477  0  3.901842  0  0  -0.114676  0  3.912839  0  0.279682  0  -0.048335  -0.120685  0  3.894256  0
C  C81  1  0.57815134  0.74809434  0.03289359  1  0  -0.050988  0  3.65169  0  0  -0.118467  0  3.901924  0  0  -0.114664  0  3.912921  0  0.279469  0  -0.048363  -0.120679  0  3.894336  0
C  C82  1  0.25386411  0.12592073  0.00427714  1  0  -0.078478  0  3.68514  0  0  -0.11675  0  3.941121  0  0  -0.1161  0  3.961006  0  0.277415  0  -0.003277  -0.117257  0  3.928199  0
C  C83  1  0.74613319  0.87408308  0.99572495  1  0  -0.078486  0  3.685151  0  0  -0.116769  0  3.941129  0  0  -0.11612  0  3.961015  0  0.27758  0  -0.003283  -0.117277  0  3.928205  0
C  C84  1  0.23206580  0.03190345  0.09853382  1  0  -0.002247  0  3.776394  0  0  -0.03493  0  4.039837  0  0  -0.032534  0  4.059777  0  0.413857  0  -0.003509  -0.03684  0  4.026594  0
C  C85  1  0.76792783  0.96810543  0.90146912  1  0  -0.002292  0  3.776345  0  0  -0.034958  0  4.039782  0  0  -0.032563  0  4.059721  0  0.414207  0  -0.003593  -0.036868  0  4.026539  0
C  C86  1  0.40840270  0.07408409  0.14546325  1  0  0.164296  0  3.64802  0  0  0.101966  0  3.916064  0  0  0.116138  0  3.928603  0  0.967695  0  0.142304  0.092795  0  3.907207  0
C  C87  1  0.59159949  0.92591667  0.85453577  1  0  0.164292  0  3.648085  0  0  0.101994  0  3.916176  0  0  0.11616  0  3.928714  0  0.967707  0  0.142279  0.092804  0  3.907311  0
N  N88  1  0.44002778  0.74026541  0.55328424  1  0  -0.378839  0  3.259014  0  0  -0.298438  0  3.533894  0  0  -0.320606  0  3.552522  0  -1.205771  0  -0.358494  -0.283224  0  3.520922  0
N  N89  1  0.55996691  0.25974043  0.44671585  1  0  -0.378816  0  3.258978  0  0  -0.298419  0  3.533845  0  0  -0.320587  0  3.552472  0  -1.205599  0  -0.358451  -0.283206  0  3.520874  0
N  N90  1  0.49637133  0.58083139  0.71701482  1  0  -0.046784  0  3.596801  0  0  0.046452  0  3.813398  0  0  0.032499  0  3.838348  0  -1.239539  0  -0.244016  0.055724  0  3.796461  0
N  N91  1  0.50362860  0.41917039  0.28298498  1  0  -0.04679  0  3.59667  0  0  0.046413  0  3.813286  0  0  0.032461  0  3.838234  0  -1.239549  0  -0.2441  0.055686  0  3.796349  0
N  N92  1  0.36586256  0.15197049  0.03575780  1  0  -0.055857  0  3.583768  0  0  0.037521  0  3.804499  0  0  0.023061  0  3.830406  0  -1.242688  0  -0.244345  0.047125  0  3.786667  0
N  N93  1  0.63413877  0.84802722  0.96424107  1  0  -0.055844  0  3.58372  0  0  0.037529  0  3.804463  0  0  0.02307  0  3.830366  0  -1.242655  0  -0.244314  0.047134  0  3.786634  0
N  N94  1  0.32934091  0.00042936  0.18545438  1  0  -0.376619  0  3.2551  0  0  -0.301054  0  3.535963  0  0  -0.321682  0  3.552099  0  -1.204845  0  -0.355564  -0.286782  0  3.524758  0
N  N95  1  0.67065403  0.99957851  0.81454870  1  0  -0.376594  0  3.255111  0  0  -0.30103  0  3.535975  0  0  -0.321653  0  3.552106  0  -1.205169  0  -0.355538  -0.286758  0  3.524776  0
O  O96  1  0.62326233  0.90736291  0.36817691  1  0  -0.65153  0  1.971382  0  0  -0.595471  0  2.199447  0  0  -0.621255  0  2.189715  0  -1.19094  0  -0.324658  -0.576808  0  2.205478  0
O  O97  1  0.37673839  0.09263379  0.63182651  1  0  -0.651555  0  1.971322  0  0  -0.595514  0  2.199388  0  0  -0.621299  0  2.189658  0  -1.190818  0  -0.324677  -0.576853  0  2.205423  0
O  O98  1  0.25192477  0.03611888  0.46638700  1  0  -0.851109  0  1.866231  0  0  -0.792433  0  2.056725  0  0  -0.814276  0  2.021985  0  -1.262065  0  -0.601912  -0.776548  0  2.081571  0
O  O99  1  0.74807359  0.96388189  0.53361482  1  0  -0.851103  0  1.866188  0  0  -0.792431  0  2.056731  0  0  -0.814275  0  2.021988  0  -1.262064  0  -0.601893  -0.776546  0  2.081579  0
O  O100  1  0.57436601  0.74425752  0.30902120  1  0  -0.652417  0  2.053054  0  0  -0.590985  0  2.30729  0  0  -0.619046  0  2.297766  0  -1.180179  0  -0.328795  -0.570491  0  2.313897  0
O  O101  1  0.42563114  0.25574121  0.69098372  1  0  -0.652444  0  2.0531  0  0  -0.591039  0  2.307367  0  0  -0.619103  0  2.297844  0  -1.180166  0  -0.328783  -0.570546  0  2.313972  0
O  O102  1  0.11725047  0.87223369  0.33937719  1  0  -0.648112  0  1.910362  0  0  -0.591784  0  2.133986  0  0  -0.61851  0  2.122848  0  -1.153923  0  -0.350157  -0.572402  0  2.140661  0
O  O103  1  0.88274728  0.12776606  0.66062661  1  0  -0.648103  0  1.910391  0  0  -0.59177  0  2.134029  0  0  -0.618496  0  2.122892  0  -1.153824  0  -0.350124  -0.572388  0  2.140703  0
O  O104  1  0.28046969  0.66730394  0.35483212  1  0  -0.637899  0  1.930634  0  0  -0.583372  0  2.166251  0  0  -0.610638  0  2.158141  0  -1.175573  0  -0.336941  -0.563152  0  2.171336  0
O  O105  1  0.71953154  0.33269682  0.64517040  1  0  -0.637984  0  1.930532  0  0  -0.583427  0  2.166138  0  0  -0.610692  0  2.158026  0  -1.175666  0  -0.336968  -0.563208  0  2.171225  0
O  O106  1  0.13859068  0.27616770  0.31084346  1  0  -0.556462  0  1.98802  0  0  -0.506807  0  2.202519  0  0  -0.52833  0  2.194929  0  -1.166943  0  -0.275908  -0.491928  0  2.207519  0
O  O107  1  0.86140839  0.72383103  0.68915876  1  0  -0.556595  0  1.988094  0  0  -0.506813  0  2.2025  0  0  -0.528335  0  2.194907  0  -1.167215  0  -0.275923  -0.491935  0  2.207502  0
O  O108  1  0.92496755  0.28996299  0.37377059  1  0  -0.527418  0  2.05464  0  0  -0.481789  0  2.262028  0  0  -0.502885  0  2.249119  0  -1.142604  0  -0.313526  -0.46678  0  2.270114  0
O  O109  1  0.07503544  0.71003270  0.62623119  1  0  -0.527327  0  2.054635  0  0  -0.481783  0  2.262075  0  0  -0.502855  0  2.249181  0  -1.142611  0  -0.313616  -0.466783  0  2.270144  0
