# generated using pymatgen
data_CuH9C10NCl
_symmetry_space_group_name_H-M   'P 1'
_cell_length_a   3.73066224
_cell_length_b   9.32638824
_cell_length_c   25.22521837
_cell_angle_alpha   89.99979895
_cell_angle_beta   89.99978460
_cell_angle_gamma   90.00069524
_symmetry_Int_Tables_number   1
_chemical_formula_structural   CuH9C10NCl
_chemical_formula_sum   'Cu4 H36 C40 N4 Cl4'
_cell_volume   877.67626929
_cell_formula_units_Z   4
loop_
 _symmetry_equiv_pos_site_id
 _symmetry_equiv_pos_as_xyz
  1  'x, y, z'
loop_
 _atom_site_type_symbol
 _atom_site_label
 _atom_site_symmetry_multiplicity
 _atom_site_fract_x
 _atom_site_fract_y
 _atom_site_fract_z
 _atom_site_occupancy
 _atom_site_hle17_bader_spin_density
 _atom_site_hle17_ddec_charge
 _atom_site_hle17_ddec_spin_density
 _atom_site_hle17_ddec_sum_bond_order
 _atom_site_hle17_magmom
 _atom_site_hse06_10hf_bader_spin_density
 _atom_site_hse06_10hf_ddec_charge
 _atom_site_hse06_10hf_ddec_spin_density
 _atom_site_hse06_10hf_ddec_sum_bond_order
 _atom_site_hse06_10hf_magmom
 _atom_site_hse06_bader_spin_density
 _atom_site_hse06_ddec_charge
 _atom_site_hse06_ddec_spin_density
 _atom_site_hse06_ddec_sum_bond_order
 _atom_site_hse06_magmom
 _atom_site_pbe_bader_spin_density
 _atom_site_pbe_cm5_charge
 _atom_site_pbe_ddec_charge
 _atom_site_pbe_ddec_spin_density
 _atom_site_pbe_ddec_sum_bond_order
 _atom_site_pbe_magmom
Cu  Cu0  1  0.73520098  0.98100666  0.63578789  1  0  0.464298  0  1.826796  0  0  0.368636  0  2.298225  0  0  0.375723  0  2.250452  0  0  0.381704  0.365926  0  2.328595  0
Cu  Cu1  1  0.26480891  0.51899407  0.13578711  1  0  0.464314  0  1.82673  0  0  0.368684  0  2.298147  0  0  0.375775  0  2.250381  0  0  0.381728  0.365963  0  2.328522  0
Cu  Cu2  1  0.76481884  0.48100847  0.36421315  1  0  0.464323  0  1.826797  0  0  0.368642  0  2.298194  0  0  0.375759  0  2.250375  0  0  0.381697  0.365913  0  2.328564  0
Cu  Cu3  1  0.23518994  0.01899311  0.86421364  1  0  0.464249  0  1.826699  0  0  0.368611  0  2.298157  0  0  0.375698  0  2.250362  0  0  0.381687  0.365892  0  2.328529  0
H  H4  1  0.29561488  0.90996053  0.71519432  1  0  0.108672  0  0.986582  0  0  0.123268  0  1.065443  0  0  0.127665  0  1.060088  0  0  0.084394  0.120021  0  1.069179  0
H  H5  1  0.70440124  0.59004373  0.21519278  1  0  0.108653  0  0.986595  0  0  0.12322  0  1.065509  0  0  0.127617  0  1.060155  0  0  0.084372  0.119978  0  1.069238  0
H  H6  1  0.20438470  0.40996172  0.28480514  1  0  0.108676  0  0.986563  0  0  0.123252  0  1.065444  0  0  0.127645  0  1.060091  0  0  0.084375  0.120004  0  1.069178  0
H  H7  1  0.79562054  0.09003418  0.78480718  1  0  0.108602  0  0.986576  0  0  0.123203  0  1.065452  0  0  0.127601  0  1.060094  0  0  0.084355  0.119959  0  1.069186  0
H  H8  1  0.67103226  0.85656870  0.75359192  1  0  0.119349  0  0.967166  0  0  0.141951  0  1.029463  0  0  0.143435  0  1.029296  0  0  0.090335  0.140584  0  1.029966  0
H  H9  1  0.32897762  0.64343412  0.25359055  1  0  0.119286  0  0.967306  0  0  0.141953  0  1.029517  0  0  0.143436  0  1.029356  0  0  0.090337  0.140585  0  1.030022  0
H  H10  1  0.82896247  0.35656659  0.24640848  1  0  0.119339  0  0.967171  0  0  0.141922  0  1.02949  0  0  0.143405  0  1.029324  0  0  0.09031  0.140554  0  1.029994  0
H  H11  1  0.17104364  0.14342753  0.74640965  1  0  0.119325  0  0.967103  0  0  0.141923  0  1.029435  0  0  0.143406  0  1.029269  0  0  0.090316  0.140555  0  1.02994  0
H  H12  1  0.26232858  0.76316814  0.76072624  1  0  0.121601  0  0.947506  0  0  0.143751  0  1.005112  0  0  0.145327  0  1.004827  0  0  0.092365  0.142724  0  1.005257  0
H  H13  1  0.73768114  0.73683569  0.26072449  1  0  0.121658  0  0.947484  0  0  0.143793  0  1.005116  0  0  0.145368  0  1.004834  0  0  0.092412  0.142767  0  1.005262  0
H  H14  1  0.23766402  0.26316886  0.23927380  1  0  0.121631  0  0.947491  0  0  0.143784  0  1.00509  0  0  0.145361  0  1.004803  0  0  0.09239  0.142757  0  1.005236  0
H  H15  1  0.76233689  0.23682212  0.73927409  1  0  0.121568  0  0.947527  0  0  0.143768  0  1.005085  0  0  0.145344  0  1.004801  0  0  0.092407  0.142743  0  1.00523  0
H  H16  1  0.35622303  0.52704390  0.72806619  1  0  0.094172  0  0.988402  0  0  0.106873  0  1.048619  0  0  0.109165  0  1.049604  0  0  0.098116  0.105112  0  1.04827  0
H  H17  1  0.64376867  0.97296238  0.22806618  1  0  0.094203  0  0.988281  0  0  0.106891  0  1.048515  0  0  0.109182  0  1.049499  0  0  0.098136  0.10513  0  1.048167  0
H  H18  1  0.14374925  0.02704383  0.27193336  1  0  0.094203  0  0.988261  0  0  0.106869  0  1.048522  0  0  0.109158  0  1.049508  0  0  0.09814  0.105109  0  1.048172  0
H  H19  1  0.85622143  0.47295112  0.77193289  1  0  0.094186  0  0.988362  0  0  0.106857  0  1.04862  0  0  0.109145  0  1.04961  0  0  0.098108  0.105095  0  1.04827  0
H  H20  1  0.53407458  0.36140608  0.65437491  1  0  0.103846  0  0.963778  0  0  0.114957  0  1.025722  0  0  0.117801  0  1.02339  0  0  0.096078  0.11201  0  1.028812  0
H  H21  1  0.46591755  0.13859428  0.15437346  1  0  0.103831  0  0.96388  0  0  0.114973  0  1.025776  0  0  0.117813  0  1.023449  0  0  0.096091  0.112026  0  1.028865  0
H  H22  1  0.96591225  0.86140927  0.34562589  1  0  0.103827  0  0.963898  0  0  0.11495  0  1.02583  0  0  0.117787  0  1.02351  0  0  0.096088  0.112038  0  1.028876  0
H  H23  1  0.03406336  0.63859160  0.84562476  1  0  0.103825  0  0.963873  0  0  0.114962  0  1.02578  0  0  0.117804  0  1.023449  0  0  0.096036  0.111998  0  1.028885  0
H  H24  1  0.80632177  0.33309505  0.56456393  1  0  0.09781  0  0.961717  0  0  0.106954  0  1.027481  0  0  0.109575  0  1.026783  0  0  0.09726  0.104508  0  1.028454  0
H  H25  1  0.19367778  0.16690616  0.06456300  1  0  0.097795  0  0.961681  0  0  0.106936  0  1.027453  0  0  0.109566  0  1.026746  0  0  0.097231  0.104485  0  1.02844  0
H  H26  1  0.69368569  0.83309173  0.43543849  1  0  0.097769  0  0.961646  0  0  0.106928  0  1.027417  0  0  0.109551  0  1.026718  0  0  0.097238  0.104472  0  1.028402  0
H  H27  1  0.30631736  0.66690722  0.93543360  1  0  0.097805  0  0.96169  0  0  0.106965  0  1.02746  0  0  0.109595  0  1.026754  0  0  0.09725  0.104513  0  1.028436  0
H  H28  1  0.07026467  0.44568166  0.48382385  1  0  0.082427  0  0.983609  0  0  0.094031  0  1.04839  0  0  0.096806  0  1.04696  0  0  0.095012  0.091798  0  1.049936  0
H  H29  1  0.92971458  0.05431771  0.98382308  1  0  0.082504  0  0.983511  0  0  0.094116  0  1.048289  0  0  0.096895  0  1.046854  0  0  0.095042  0.091837  0  1.049892  0
H  H30  1  0.42973328  0.94568089  0.51617794  1  0  0.082401  0  0.98363  0  0  0.094018  0  1.04842  0  0  0.096795  0  1.046988  0  0  0.095009  0.091789  0  1.049961  0
H  H31  1  0.57026326  0.55432848  0.01617495  1  0  0.0824  0  0.983533  0  0  0.093997  0  1.048339  0  0  0.096774  0  1.046906  0  0  0.09499  0.091756  0  1.049895  0
H  H32  1  0.17523114  0.70734057  0.48063002  1  0  0.090365  0  0.966392  0  0  0.099613  0  1.030823  0  0  0.102007  0  1.030146  0  0  0.095603  0.097989  0  1.031086  0
H  H33  1  0.82476015  0.79265687  0.98063059  1  0  0.090298  0  0.966397  0  0  0.099569  0  1.030812  0  0  0.101964  0  1.030133  0  0  0.095581  0.097945  0  1.031072  0
H  H34  1  0.32474910  0.20733691  0.51937089  1  0  0.090309  0  0.966315  0  0  0.099587  0  1.030738  0  0  0.101984  0  1.030057  0  0  0.095573  0.097965  0  1.030999  0
H  H35  1  0.67521663  0.29267010  0.01936990  1  0  0.090336  0  0.966562  0  0  0.099629  0  1.030954  0  0  0.102026  0  1.03027  0  0  0.095615  0.098007  0  1.031214  0
H  H36  1  0.99916399  0.86209885  0.55751859  1  0  0.084927  0  0.998479  0  0  0.091214  0  1.076517  0  0  0.096503  0  1.070466  0  0  0.090994  0.086977  0  1.081447  0
H  H37  1  0.00084768  0.63789940  0.05751901  1  0  0.08493  0  0.998516  0  0  0.091217  0  1.076549  0  0  0.096503  0  1.070503  0  0  0.091002  0.086994  0  1.08146  0
H  H38  1  0.50083359  0.36209859  0.44248141  1  0  0.084962  0  0.998425  0  0  0.091242  0  1.076466  0  0  0.096527  0  1.070419  0  0  0.090999  0.087004  0  1.081394  0
H  H39  1  0.49915197  0.13790867  0.94248199  1  0  0.084894  0  0.998633  0  0  0.091192  0  1.076654  0  0  0.09648  0  1.070607  0  0  0.090987  0.086988  0  1.081543  0
C  C40  1  0.54495683  0.71699698  0.68820590  1  0  0.325488  0  3.704016  0  0  0.330473  0  3.944594  0  0  0.343159  0  3.961651  0  0  0.118584  0.321902  0  3.93325  0
C  C41  1  0.45505454  0.78300647  0.18820427  1  0  0.325561  0  3.703795  0  0  0.330515  0  3.944425  0  0  0.343198  0  3.961491  0  0  0.118533  0.32194  0  3.933074  0
C  C42  1  0.95503649  0.21699810  0.31179667  1  0  0.3255  0  3.70422  0  0  0.330534  0  3.944704  0  0  0.343134  0  3.961888  0  0  0.118567  0.321968  0  3.933316  0
C  C43  1  0.04496008  0.28299862  0.81179377  1  0  0.325504  0  3.703821  0  0  0.330535  0  3.944362  0  0  0.343221  0  3.961418  0  0  0.118565  0.321946  0  3.933013  0
C  C44  1  0.43630952  0.81647767  0.73179598  1  0  -0.383681  0  3.707176  0  0  -0.467973  0  3.942426  0  0  -0.470903  0  3.946068  0  0  -0.247267  -0.465723  0  3.940312  0
C  C45  1  0.56370086  0.68352429  0.23179480  1  0  -0.383672  0  3.707207  0  0  -0.467988  0  3.942444  0  0  -0.470921  0  3.946094  0  0  -0.247292  -0.465746  0  3.940325  0
C  C46  1  0.06368464  0.31647831  0.26820400  1  0  -0.383688  0  3.707114  0  0  -0.467977  0  3.942387  0  0  -0.47088  0  3.946059  0  0  -0.247249  -0.465737  0  3.940269  0
C  C47  1  0.93631562  0.18351668  0.76820464  1  0  -0.38356  0  3.707095  0  0  -0.467921  0  3.942341  0  0  -0.47085  0  3.945983  0  0  -0.247258  -0.465675  0  3.940227  0
C  C48  1  0.48759749  0.56766140  0.69259646  1  0  -0.191564  0  3.741066  0  0  -0.207322  0  3.990332  0  0  -0.217634  0  4.010894  0  0  -0.099748  -0.200506  0  3.976768  0
C  C49  1  0.51239770  0.93234307  0.19259301  1  0  -0.191695  0  3.741396  0  0  -0.207424  0  3.990683  0  0  -0.217733  0  4.011247  0  0  -0.099803  -0.200608  0  3.977115  0
C  C50  1  0.01239206  0.06766356  0.30740463  1  0  -0.191569  0  3.741039  0  0  -0.207301  0  3.990322  0  0  -0.217584  0  4.010908  0  0  -0.099744  -0.200495  0  3.976763  0
C  C51  1  0.98759657  0.43233856  0.80740412  1  0  -0.191527  0  3.741064  0  0  -0.207281  0  3.990353  0  0  -0.217591  0  4.010915  0  0  -0.099742  -0.200464  0  3.976782  0
C  C52  1  0.58531921  0.47650437  0.65219644  1  0  -0.031851  0  3.699693  0  0  -0.061079  0  3.950837  0  0  -0.052681  0  3.9642  0  0  -0.069453  -0.066895  0  3.943199  0
C  C53  1  0.41468638  0.02349494  0.15219676  1  0  -0.031813  0  3.700141  0  0  -0.061064  0  3.951261  0  0  -0.052669  0  3.964631  0  0  -0.069399  -0.06688  0  3.943619  0
C  C54  1  0.91468441  0.97650084  0.34780500  1  0  -0.031845  0  3.699686  0  0  -0.061099  0  3.950858  0  0  -0.052698  0  3.964216  0  0  -0.06945  -0.066942  0  3.943206  0
C  C55  1  0.08531528  0.52349143  0.84780320  1  0  -0.031913  0  3.699978  0  0  -0.061161  0  3.951102  0  0  -0.052763  0  3.964466  0  0  -0.069415  -0.066963  0  3.943461  0
C  C56  1  0.74590601  0.53415539  0.60613769  1  0  0.013362  0  3.793277  0  0  0.035703  0  4.01459  0  0  0.030237  0  4.039707  0  0  -0.005846  0.038769  0  3.997904  0
C  C57  1  0.25409384  0.96584133  0.10613554  1  0  0.013463  0  3.793272  0  0  0.035792  0  4.014592  0  0  0.030317  0  4.039709  0  0  -0.005826  0.038858  0  3.997904  0
C  C58  1  0.75408732  0.03415793  0.39386551  1  0  0.013329  0  3.793312  0  0  0.035677  0  4.014663  0  0  0.030204  0  4.039768  0  0  -0.005869  0.038741  0  3.99798  0
C  C59  1  0.24590738  0.46584229  0.89385987  1  0  0.013449  0  3.793012  0  0  0.035789  0  4.014334  0  0  0.030314  0  4.039447  0  0  -0.005794  0.038854  0  3.997642  0
C  C60  1  0.84799973  0.44865008  0.56221262  1  0  -0.090376  0  3.717656  0  0  -0.112318  0  3.963888  0  0  -0.113417  0  3.986154  0  0  -0.083505  -0.110663  0  3.948873  0
C  C61  1  0.15199450  0.05134686  0.06221227  1  0  -0.090423  0  3.717841  0  0  -0.112366  0  3.964082  0  0  -0.113477  0  3.98635  0  0  -0.083515  -0.110707  0  3.949059  0
C  C62  1  0.65199770  0.94865510  0.43778886  1  0  -0.090355  0  3.717808  0  0  -0.112323  0  3.96406  0  0  -0.113424  0  3.986329  0  0  -0.083555  -0.110658  0  3.949044  0
C  C63  1  0.34801333  0.55135454  0.93778607  1  0  -0.09044  0  3.71762  0  0  -0.112437  0  3.963877  0  0  -0.113544  0  3.98614  0  0  -0.083574  -0.110773  0  3.948858  0
C  C64  1  0.99640644  0.51108320  0.51783353  1  0  -0.070345  0  3.762784  0  0  -0.084185  0  4.01122  0  0  -0.088003  0  4.033271  0  0  -0.0918  -0.082202  0  3.997063  0
C  C65  1  0.00357934  0.98891436  0.01783548  1  0  -0.070338  0  3.762672  0  0  -0.084188  0  4.011092  0  0  -0.088005  0  4.033141  0  0  -0.091772  -0.08218  0  3.996969  0
C  C66  1  0.50358621  0.01108150  0.48216692  1  0  -0.070212  0  3.76269  0  0  -0.084057  0  4.011129  0  0  -0.087877  0  4.033182  0  0  -0.091689  -0.082088  0  3.996988  0
C  C67  1  0.49640916  0.48892324  0.98216308  1  0  -0.070251  0  3.76278  0  0  -0.084068  0  4.011212  0  0  -0.087888  0  4.033266  0  0  -0.09174  -0.082088  0  3.997072  0
C  C68  1  0.05379585  0.66065536  0.51591025  1  0  -0.035091  0  3.742843  0  0  -0.048098  0  3.987151  0  0  -0.047207  0  4.008235  0  0  -0.083516  -0.048794  0  3.973484  0
C  C69  1  0.94620338  0.83933364  0.01591261  1  0  -0.0351  0  3.742914  0  0  -0.048114  0  3.987175  0  0  -0.047225  0  4.008265  0  0  -0.083581  -0.048816  0  3.973514  0
C  C70  1  0.44621251  0.16066229  0.48408833  1  0  -0.035093  0  3.743044  0  0  -0.048133  0  3.987328  0  0  -0.047243  0  4.008418  0  0  -0.08356  -0.048842  0  3.973683  0
C  C71  1  0.55379354  0.33934994  0.98409179  1  0  -0.035004  0  3.742826  0  0  -0.048026  0  3.987048  0  0  -0.047133  0  4.00813  0  0  -0.083481  -0.048733  0  3.973409  0
C  C72  1  0.95746728  0.74622431  0.55817794  1  0  -0.159359  0  3.740695  0  0  -0.178639  0  3.993157  0  0  -0.184237  0  4.01234  0  0  -0.096394  -0.175199  0  3.981379  0
C  C73  1  0.04253098  0.75377180  0.05817858  1  0  -0.159281  0  3.74092  0  0  -0.178556  0  3.993381  0  0  -0.18417  0  4.012564  0  0  -0.096345  -0.175126  0  3.981588  0
C  C74  1  0.54252691  0.24622212  0.44182380  1  0  -0.159413  0  3.741022  0  0  -0.178653  0  3.99348  0  0  -0.184266  0  4.012668  0  0  -0.096385  -0.175213  0  3.981696  0
C  C75  1  0.45746938  0.25377658  0.94181989  1  0  -0.159335  0  3.740885  0  0  -0.178643  0  3.993362  0  0  -0.184256  0  4.012543  0  0  -0.09638  -0.175222  0  3.981558  0
C  C76  1  0.79937061  0.68574691  0.60384304  1  0  0.202767  0  3.762721  0  0  0.199203  0  3.992771  0  0  0.205872  0  4.016073  0  0  0.102558  0.195003  0  3.97739  0
C  C77  1  0.20063196  0.81425091  0.10384272  1  0  0.202641  0  3.76291  0  0  0.199091  0  3.992927  0  0  0.205789  0  4.016195  0  0  0.102556  0.194888  0  3.977542  0
C  C78  1  0.70063520  0.18574916  0.39615838  1  0  0.202754  0  3.762734  0  0  0.199158  0  3.992817  0  0  0.205858  0  4.016074  0  0  0.102577  0.194943  0  3.977423  0
C  C79  1  0.29938626  0.31425104  0.89615726  1  0  0.202644  0  3.763098  0  0  0.199105  0  3.993119  0  0  0.205802  0  4.016384  0  0  0.102494  0.19489  0  3.977734  0
N  N80  1  0.69563920  0.77471229  0.64483929  1  0  -0.394462  0  3.318311  0  0  -0.323159  0  3.606086  0  0  -0.338517  0  3.613217  0  0  -0.368419  -0.313831  0  3.60092  0
N  N81  1  0.30437049  0.72528834  0.14483743  1  0  -0.394453  0  3.31828  0  0  -0.323151  0  3.606085  0  0  -0.338504  0  3.613173  0  0  -0.368414  -0.313804  0  3.600897  0
N  N82  1  0.80436922  0.27471332  0.35516162  1  0  -0.394485  0  3.318498  0  0  -0.323164  0  3.606221  0  0  -0.338506  0  3.613378  0  0  -0.368416  -0.313789  0  3.600995  0
N  N83  1  0.19564513  0.22528727  0.85516187  1  0  -0.394457  0  3.318372  0  0  -0.323178  0  3.606131  0  0  -0.338543  0  3.613249  0  0  -0.368384  -0.313801  0  3.60092  0
Cl  Cl84  1  0.22915493  0.11761332  0.62850541  1  0  -0.552355  0  1.35616  0  0  -0.47386  0  1.740999  0  0  -0.49068  0  1.702886  0  0  -0.297053  -0.459505  0  1.766268  0
Cl  Cl85  1  0.77085923  0.38238622  0.12850623  1  0  -0.552356  0  1.356097  0  0  -0.473882  0  1.740951  0  0  -0.490706  0  1.70285  0  0  -0.297061  -0.459521  0  1.766203  0
Cl  Cl86  1  0.27087629  0.61761527  0.37149323  1  0  -0.552356  0  1.356127  0  0  -0.473851  0  1.740961  0  0  -0.490682  0  1.702847  0  0  -0.297056  -0.459499  0  1.766219  0
Cl  Cl87  1  0.72913358  0.88238321  0.87149454  1  0  -0.552313  0  1.356042  0  0  -0.473837  0  1.740904  0  0  -0.490658  0  1.702787  0  0  -0.297044  -0.459484  0  1.766158  0
