# generated using pymatgen
data_CdH8C14(SN2)2
_symmetry_space_group_name_H-M   'P 1'
_cell_length_a   8.91645745
_cell_length_b   8.91646199
_cell_length_c   10.75611197
_cell_angle_alpha   68.69105020
_cell_angle_beta   68.69082773
_cell_angle_gamma   70.82689957
_symmetry_Int_Tables_number   1
_chemical_formula_structural   CdH8C14(SN2)2
_chemical_formula_sum   'Cd2 H16 C28 S4 N8'
_cell_volume   722.97177737
_cell_formula_units_Z   2
loop_
 _symmetry_equiv_pos_site_id
 _symmetry_equiv_pos_as_xyz
  1  'x, y, z'
loop_
 _atom_site_type_symbol
 _atom_site_label
 _atom_site_symmetry_multiplicity
 _atom_site_fract_x
 _atom_site_fract_y
 _atom_site_fract_z
 _atom_site_occupancy
 _atom_site_hle17_bader_spin_density
 _atom_site_hle17_ddec_charge
 _atom_site_hle17_ddec_spin_density
 _atom_site_hle17_ddec_sum_bond_order
 _atom_site_hle17_magmom
 _atom_site_hse06_10hf_bader_spin_density
 _atom_site_hse06_10hf_ddec_charge
 _atom_site_hse06_10hf_ddec_spin_density
 _atom_site_hse06_10hf_ddec_sum_bond_order
 _atom_site_hse06_10hf_magmom
 _atom_site_hse06_bader_spin_density
 _atom_site_hse06_ddec_charge
 _atom_site_hse06_ddec_spin_density
 _atom_site_hse06_ddec_sum_bond_order
 _atom_site_hse06_magmom
 _atom_site_pbe_bader_spin_density
 _atom_site_pbe_cm5_charge
 _atom_site_pbe_ddec_charge
 _atom_site_pbe_ddec_spin_density
 _atom_site_pbe_ddec_sum_bond_order
 _atom_site_pbe_magmom
Cd  Cd0  1  0.88837604  0.11162609  0.75000131  1  0  0.965184  0  2.028208  0  0  0.782635  0  2.500715  0  0  0.827869  0  2.462155  0  0  0.738853  0.751687  0  2.526559  0
Cd  Cd1  1  0.11162441  0.88837504  0.25000025  1  0  0.965174  0  2.028206  0  0  0.78263  0  2.5007  0  0  0.827867  0  2.462136  0  0  0.738852  0.751687  0  2.526547  0
H  H2  1  0.95384084  0.35809694  0.88481060  1  0  0.079656  0  0.931567  0  0  0.091001  0  0.989928  0  0  0.092934  0  0.988471  0  0  0.115745  0.089666  0  0.990925  0
H  H3  1  0.64190733  0.04615930  0.61519223  1  0  0.079638  0  0.931563  0  0  0.091002  0  0.989918  0  0  0.092947  0  0.988447  0  0  0.11573  0.089668  0  0.990914  0
H  H4  1  0.04616363  0.64190794  0.11518309  1  0  0.079603  0  0.931688  0  0  0.090928  0  0.990071  0  0  0.092874  0  0.988597  0  0  0.115699  0.089593  0  0.991066  0
H  H5  1  0.35809879  0.95383814  0.38480595  1  0  0.079661  0  0.931594  0  0  0.091003  0  0.989952  0  0  0.092938  0  0.988492  0  0  0.11573  0.08967  0  0.99095  0
H  H6  1  0.81701075  0.63055697  0.94281301  1  0  0.102301  0  0.956514  0  0  0.110746  0  1.018451  0  0  0.113754  0  1.018177  0  0  0.101617  0.108778  0  1.018396  0
H  H7  1  0.36944824  0.18299332  0.55718989  1  0  0.102268  0  0.956507  0  0  0.110692  0  1.018472  0  0  0.113714  0  1.018183  0  0  0.101577  0.108726  0  1.018417  0
H  H8  1  0.18299462  0.36944912  0.05718283  1  0  0.102306  0  0.956557  0  0  0.110731  0  1.018509  0  0  0.113758  0  1.018214  0  0  0.101611  0.108764  0  1.018454  0
H  H9  1  0.63055492  0.81700659  0.44280937  1  0  0.102246  0  0.956517  0  0  0.110685  0  1.018469  0  0  0.113698  0  1.018189  0  0  0.101576  0.108717  0  1.018413  0
H  H10  1  0.54542663  0.78534105  0.89411844  1  0  0.095373  0  0.960303  0  0  0.101808  0  1.032213  0  0  0.104753  0  1.030413  0  0  0.096152  0.099465  0  1.033986  0
H  H11  1  0.21466338  0.45457618  0.60588382  1  0  0.095387  0  0.960301  0  0  0.10183  0  1.032202  0  0  0.10477  0  1.030401  0  0  0.09617  0.099488  0  1.033976  0
H  H12  1  0.45457476  0.21466133  0.10588061  1  0  0.095387  0  0.960314  0  0  0.101791  0  1.032246  0  0  0.104755  0  1.030431  0  0  0.096152  0.099447  0  1.034021  0
H  H13  1  0.78534006  0.54542250  0.39411480  1  0  0.095369  0  0.960288  0  0  0.101818  0  1.032173  0  0  0.104751  0  1.030395  0  0  0.09616  0.099475  0  1.033947  0
H  H14  1  0.31784633  0.80377416  0.80078787  1  0  0.105765  0  0.972843  0  0  0.117031  0  1.031751  0  0  0.119123  0  1.031936  0  0  0.101577  0.115231  0  1.032214  0
H  H15  1  0.19622862  0.68215481  0.69921386  1  0  0.105796  0  0.972796  0  0  0.117041  0  1.031731  0  0  0.119131  0  1.03192  0  0  0.101571  0.115244  0  1.032192  0
H  H16  1  0.68214987  0.19622451  0.19921475  1  0  0.105735  0  0.972856  0  0  0.116979  0  1.031799  0  0  0.11907  0  1.031983  0  0  0.101555  0.115181  0  1.032259  0
H  H17  1  0.80377000  0.31784387  0.30078618  1  0  0.105781  0  0.972817  0  0  0.117031  0  1.031747  0  0  0.119121  0  1.031934  0  0  0.101576  0.115235  0  1.032206  0
C  C18  1  0.81606060  0.94464439  0.10013424  1  0  0.29486  0  4.035364  0  0  0.27353  0  4.340557  0  0  0.29561  0  4.354595  0  0  0.146217  0.258777  0  4.330803  0
C  C19  1  0.05534827  0.18393976  0.39986802  1  0  0.294853  0  4.035473  0  0  0.273528  0  4.34066  0  0  0.295604  0  4.354701  0  0  0.146253  0.258772  0  4.330914  0
C  C20  1  0.18394005  0.05535057  0.89986910  1  0  0.294837  0  4.035609  0  0  0.273508  0  4.340805  0  0  0.295587  0  4.354843  0  0  0.146214  0.258753  0  4.331052  0
C  C21  1  0.94464377  0.81606139  0.60013325  1  0  0.294835  0  4.035408  0  0  0.273501  0  4.340611  0  0  0.295578  0  4.354657  0  0  0.146189  0.258746  0  4.330855  0
C  C22  1  0.83554509  0.43043523  0.86466981  1  0  0.146245  0  3.697613  0  0  0.114836  0  3.953085  0  0  0.122814  0  3.970174  0  0  0.054774  0.109837  0  3.94096  0
C  C23  1  0.56956410  0.16445653  0.63533246  1  0  0.146219  0  3.697447  0  0  0.114773  0  3.952952  0  0  0.122743  0  3.970043  0  0  0.054782  0.109776  0  3.94083  0
C  C24  1  0.16445752  0.56956717  0.13532609  1  0  0.146269  0  3.697662  0  0  0.114877  0  3.953117  0  0  0.122847  0  3.970206  0  0  0.054828  0.109881  0  3.940992  0
C  C25  1  0.43043638  0.83554462  0.36466630  1  0  0.146252  0  3.69761  0  0  0.114861  0  3.953061  0  0  0.122837  0  3.970149  0  0  0.054825  0.109862  0  3.940942  0
C  C26  1  0.75907272  0.58171222  0.89712972  1  0  -0.10968  0  3.74492  0  0  -0.123293  0  3.999993  0  0  -0.130068  0  4.021639  0  0  -0.083964  -0.119252  0  3.985166  0
C  C27  1  0.41829108  0.24092944  0.60287340  1  0  -0.109573  0  3.744826  0  0  -0.123146  0  3.999897  0  0  -0.129936  0  4.021537  0  0  -0.083912  -0.119107  0  3.985079  0
C  C28  1  0.24093230  0.41829018  0.10286546  1  0  -0.109697  0  3.745008  0  0  -0.123289  0  4.000059  0  0  -0.130082  0  4.021706  0  0  -0.083987  -0.119249  0  3.985239  0
C  C29  1  0.58171115  0.75906924  0.39712557  1  0  -0.109535  0  3.744765  0  0  -0.123137  0  3.999819  0  0  -0.129915  0  4.021459  0  0  -0.083884  -0.119096  0  3.984998  0
C  C30  1  0.60956122  0.66793600  0.86921816  1  0  -0.034311  0  3.664491  0  0  -0.059868  0  3.913849  0  0  -0.057776  0  3.931883  0  0  -0.063258  -0.060989  0  3.902184  0
C  C31  1  0.33206547  0.39044205  0.63078086  1  0  -0.034325  0  3.664413  0  0  -0.059907  0  3.913741  0  0  -0.057807  0  3.931782  0  0  -0.063263  -0.061031  0  3.90208  0
C  C32  1  0.39043927  0.33206517  0.13077873  1  0  -0.034236  0  3.664495  0  0  -0.059759  0  3.913818  0  0  -0.057687  0  3.931849  0  0  -0.063178  -0.06088  0  3.902162  0
C  C33  1  0.66793437  0.60955664  0.36921696  1  0  -0.034347  0  3.66455  0  0  -0.059921  0  3.913895  0  0  -0.057826  0  3.931931  0  0  -0.063291  -0.061044  0  3.902231  0
C  C34  1  0.53724436  0.60310373  0.80879937  1  0  0.022012  0  3.795783  0  0  0.040209  0  4.025628  0  0  0.037761  0  4.050162  0  0  -0.002398  0.041364  0  4.009024  0
C  C35  1  0.39690188  0.46275650  0.69120287  1  0  0.021937  0  3.795642  0  0  0.040188  0  4.025432  0  0  0.03774  0  4.049964  0  0  -0.002453  0.041341  0  4.008831  0
C  C36  1  0.46275584  0.39689866  0.19119911  1  0  0.021922  0  3.795757  0  0  0.040129  0  4.025578  0  0  0.037681  0  4.050117  0  0  -0.00245  0.041286  0  4.008979  0
C  C37  1  0.60309915  0.53724217  0.30879832  1  0  0.021944  0  3.795873  0  0  0.040178  0  4.025675  0  0  0.037731  0  4.050206  0  0  -0.002473  0.041334  0  4.009076  0
C  C38  1  0.38224749  0.68552096  0.77806552  1  0  -0.098407  0  3.739402  0  0  -0.118374  0  3.98514  0  0  -0.121829  0  4.008786  0  0  -0.086066  -0.115831  0  3.968297  0
C  C39  1  0.31448339  0.61775769  0.72193707  1  0  -0.098514  0  3.739329  0  0  -0.118493  0  3.985081  0  0  -0.121951  0  4.008731  0  0  -0.085971  -0.115951  0  3.968241  0
C  C40  1  0.61775325  0.31447894  0.22193539  1  0  -0.098335  0  3.739303  0  0  -0.118292  0  3.985052  0  0  -0.121748  0  4.0087  0  0  -0.086009  -0.115749  0  3.968216  0
C  C41  1  0.68551707  0.38224345  0.27806356  1  0  -0.098502  0  3.739359  0  0  -0.118481  0  3.985114  0  0  -0.121939  0  4.00876  0  0  -0.085983  -0.115939  0  3.968279  0
C  C42  1  0.62288951  0.44842535  0.78025711  1  0  0.13469  0  3.741294  0  0  0.12564  0  3.982447  0  0  0.130192  0  4.003838  0  0  0.116984  0.123057  0  3.967928  0
C  C43  1  0.55157833  0.37710958  0.71974588  1  0  0.134783  0  3.741252  0  0  0.125728  0  3.98237  0  0  0.130279  0  4.003761  0  0  0.117015  0.123151  0  3.967852  0
C  C44  1  0.37710707  0.55157704  0.21974244  1  0  0.134699  0  3.741168  0  0  0.125666  0  3.982294  0  0  0.130215  0  4.003688  0  0  0.117003  0.123085  0  3.96778  0
C  C45  1  0.44842241  0.62289032  0.28025596  1  0  0.134818  0  3.741231  0  0  0.125764  0  3.982359  0  0  0.130317  0  4.003752  0  0  0.117016  0.123183  0  3.967845  0
S  S46  1  0.70103263  0.95081915  0.00992948  1  0  -0.326539  0  2.173097  0  0  -0.298467  0  2.510491  0  0  -0.314496  0  2.505031  0  0  -0.141103  -0.287752  0  2.51413  0
S  S47  1  0.04917171  0.29896831  0.49007053  1  0  -0.326556  0  2.173107  0  0  -0.298486  0  2.5105  0  0  -0.314512  0  2.50503  0  0  -0.141127  -0.287767  0  2.51414  0
S  S48  1  0.29896564  0.04917584  0.99006990  1  0  -0.326491  0  2.173281  0  0  -0.298415  0  2.510663  0  0  -0.314451  0  2.505221  0  0  -0.141075  -0.287698  0  2.514301  0
S  S49  1  0.95082034  0.70103284  0.50993074  1  0  -0.326501  0  2.173172  0  0  -0.298432  0  2.510575  0  0  -0.314451  0  2.505089  0  0  -0.1411  -0.287718  0  2.514212  0
N  N50  1  0.89425212  0.94288011  0.16932048  1  0  -0.539246  0  2.923152  0  0  -0.478588  0  3.201752  0  0  -0.500311  0  3.207656  0  0  -0.400091  -0.464014  0  3.197504  0
N  N51  1  0.05710919  0.10574924  0.33068701  1  0  -0.539198  0  2.923202  0  0  -0.478551  0  3.201806  0  0  -0.500271  0  3.20771  0  0  -0.40011  -0.463977  0  3.197566  0
N  N52  1  0.10574751  0.05710866  0.83068592  1  0  -0.539248  0  2.923198  0  0  -0.478598  0  3.201811  0  0  -0.500321  0  3.207714  0  0  -0.400122  -0.464022  0  3.197563  0
N  N53  1  0.94287865  0.89425435  0.66932035  1  0  -0.539233  0  2.923062  0  0  -0.478569  0  3.201655  0  0  -0.500294  0  3.207565  0  0  -0.400063  -0.463996  0  3.197406  0
N  N54  1  0.76931222  0.36596896  0.80888317  1  0  -0.355298  0  3.293799  0  0  -0.287509  0  3.559899  0  0  -0.306375  0  3.580097  0  0  -0.325639  -0.274169  0  3.545605  0
N  N55  1  0.63403471  0.23068889  0.69112261  1  0  -0.355332  0  3.293652  0  0  -0.287551  0  3.559802  0  0  -0.306414  0  3.579995  0  0  -0.325673  -0.27421  0  3.545505  0
N  N56  1  0.23068741  0.63403590  0.19111474  1  0  -0.355294  0  3.293758  0  0  -0.287514  0  3.55985  0  0  -0.30638  0  3.58005  0  0  -0.325655  -0.274171  0  3.545553  0
N  N57  1  0.36596602  0.76931100  0.30888016  1  0  -0.35541  0  3.293913  0  0  -0.28766  0  3.560074  0  0  -0.306525  0  3.580266  0  0  -0.325707  -0.274315  0  3.545778  0
