# generated using pymatgen
data_CuH8C10SBrN2
_symmetry_space_group_name_H-M   'P 1'
_cell_length_a   7.55709009
_cell_length_b   8.66977761
_cell_length_c   9.39517511
_cell_angle_alpha   71.31860266
_cell_angle_beta   72.19907814
_cell_angle_gamma   66.49075896
_symmetry_Int_Tables_number   1
_chemical_formula_structural   CuH8C10SBrN2
_chemical_formula_sum   'Cu2 H16 C20 S2 Br2 N4'
_cell_volume   523.38436001
_cell_formula_units_Z   2
loop_
 _symmetry_equiv_pos_site_id
 _symmetry_equiv_pos_as_xyz
  1  'x, y, z'
loop_
 _atom_site_type_symbol
 _atom_site_label
 _atom_site_symmetry_multiplicity
 _atom_site_fract_x
 _atom_site_fract_y
 _atom_site_fract_z
 _atom_site_occupancy
 _atom_site_hle17_bader_spin_density
 _atom_site_hle17_ddec_charge
 _atom_site_hle17_ddec_spin_density
 _atom_site_hle17_ddec_sum_bond_order
 _atom_site_hle17_magmom
 _atom_site_hse06_10hf_bader_spin_density
 _atom_site_hse06_10hf_ddec_charge
 _atom_site_hse06_10hf_ddec_spin_density
 _atom_site_hse06_10hf_ddec_sum_bond_order
 _atom_site_hse06_10hf_magmom
 _atom_site_hse06_bader_spin_density
 _atom_site_hse06_ddec_charge
 _atom_site_hse06_ddec_spin_density
 _atom_site_hse06_ddec_sum_bond_order
 _atom_site_hse06_magmom
 _atom_site_pbe_bader_spin_density
 _atom_site_pbe_cm5_charge
 _atom_site_pbe_ddec_charge
 _atom_site_pbe_ddec_spin_density
 _atom_site_pbe_ddec_sum_bond_order
 _atom_site_pbe_magmom
Cu  Cu0  1  0.99142952  0.02302043  0.67418242  1  0  0.353279  0  2.09301  0  0  0.266711  0  2.582749  0  0  0.267878  0  2.539486  0  0  0.33579  0.270316  0  2.608276  0
Cu  Cu1  1  0.00856914  0.97697965  0.32581795  1  0  0.353311  0  2.093014  0  0  0.266721  0  2.582733  0  0  0.267915  0  2.539503  0  0  0.335791  0.270317  0  2.608271  0
H  H2  1  0.11498075  0.45520027  0.12160628  1  0  0.120406  0  0.960701  0  0  0.128619  0  1.025141  0  0  0.131261  0  1.025359  0  0  0.104656  0.126727  0  1.025162  0
H  H3  1  0.88501888  0.54479722  0.87839566  1  0  0.120401  0  0.960716  0  0  0.128567  0  1.025212  0  0  0.131209  0  1.025431  0  0  0.104615  0.126674  0  1.025232  0
H  H4  1  0.84682639  0.36210455  0.32172490  1  0  0.09067  0  0.995195  0  0  0.092904  0  1.071526  0  0  0.097434  0  1.066843  0  0  0.087822  0.089378  0  1.075155  0
H  H5  1  0.15317464  0.63789293  0.67827777  1  0  0.090726  0  0.995147  0  0  0.092948  0  1.071486  0  0  0.097481  0  1.0668  0  0  0.087831  0.089419  0  1.075116  0
H  H6  1  0.63969074  0.54697155  0.51411835  1  0  0.097571  0  0.956626  0  0  0.108367  0  1.017852  0  0  0.111353  0  1.016871  0  0  0.100275  0.106179  0  1.018762  0
H  H7  1  0.36030743  0.45302982  0.48588176  1  0  0.097557  0  0.956705  0  0  0.108334  0  1.017948  0  0  0.111319  0  1.016971  0  0  0.100265  0.106146  0  1.018858  0
H  H8  1  0.72740040  0.79739977  0.50957682  1  0  0.08151  0  0.970656  0  0  0.087322  0  1.038452  0  0  0.090452  0  1.035905  0  0  0.099753  0.084942  0  1.04034  0
H  H9  1  0.27259588  0.20260293  0.49042018  1  0  0.081473  0  0.970658  0  0  0.087286  0  1.038465  0  0  0.090397  0  1.035937  0  0  0.099726  0.084905  0  1.040354  0
H  H10  1  0.35358821  0.89844263  0.73194991  1  0  0.113932  0  0.985019  0  0  0.118306  0  1.05541  0  0  0.123605  0  1.052244  0  0  0.090754  0.114448  0  1.057847  0
H  H11  1  0.64641656  0.10155227  0.26804939  1  0  0.113947  0  0.984958  0  0  0.118271  0  1.055419  0  0  0.123568  0  1.052257  0  0  0.09073  0.114413  0  1.057855  0
H  H12  1  0.64434264  0.86443776  0.82212027  1  0  0.096498  0  0.975119  0  0  0.106003  0  1.039841  0  0  0.109788  0  1.035375  0  0  0.092044  0.103021  0  1.043212  0
H  H13  1  0.35565977  0.13555972  0.17787992  1  0  0.096488  0  0.975136  0  0  0.105995  0  1.039861  0  0  0.109779  0  1.035397  0  0  0.092044  0.10302  0  1.043231  0
H  H14  1  0.65740644  0.73898185  0.10421520  1  0  0.111959  0  0.974941  0  0  0.117733  0  1.041196  0  0  0.12074  0  1.042188  0  0  0.099461  0.115611  0  1.040654  0
H  H15  1  0.34259313  0.26101951  0.89578563  1  0  0.111935  0  0.975005  0  0  0.117729  0  1.04123  0  0  0.120733  0  1.042228  0  0  0.099478  0.115608  0  1.040682  0
H  H16  1  0.37098941  0.65111209  0.28000786  1  0  0.091062  0  0.965487  0  0  0.09831  0  1.034077  0  0  0.101532  0  1.030108  0  0  0.116827  0.096  0  1.036937  0
H  H17  1  0.62900827  0.34889057  0.71999200  1  0  0.091042  0  0.965504  0  0  0.098288  0  1.034103  0  0  0.10151  0  1.030132  0  0  0.116826  0.095978  0  1.036967  0
C  C18  1  0.06129088  0.66933562  0.21641289  1  0  0.319308  0  3.747631  0  0  0.297611  0  3.998562  0  0  0.309314  0  4.016389  0  0  0.210655  0.289857  0  3.986715  0
C  C19  1  0.93870965  0.33066317  0.78358739  1  0  0.319303  0  3.747616  0  0  0.297621  0  3.9985  0  0  0.309325  0  4.016324  0  0  0.210675  0.289869  0  3.986655  0
C  C20  1  0.02666048  0.52575032  0.21091420  1  0  -0.181226  0  3.719288  0  0  -0.198545  0  3.964287  0  0  -0.206439  0  3.984283  0  0  -0.084237  -0.193647  0  3.951353  0
C  C21  1  0.97333771  0.47425103  0.78908911  1  0  -0.181207  0  3.719186  0  0  -0.19849  0  3.964182  0  0  -0.206386  0  3.984179  0  0  -0.084199  -0.193589  0  3.951246  0
C  C22  1  0.87540766  0.47624368  0.32086098  1  0  0.006156  0  3.711751  0  0  -0.009539  0  3.95807  0  0  -0.003673  0  3.972343  0  0  -0.071327  -0.013631  0  3.949167  0
C  C23  1  0.12459427  0.52375509  0.67914002  1  0  0.006066  0  3.711744  0  0  -0.009617  0  3.958031  0  0  -0.003758  0  3.972315  0  0  -0.071348  -0.013707  0  3.949123  0
C  C24  1  0.76385286  0.57588663  0.42887892  1  0  -0.110001  0  3.732498  0  0  -0.12492  0  3.983291  0  0  -0.131876  0  4.004292  0  0  -0.08749  -0.120809  0  3.969803  0
C  C25  1  0.23614580  0.42411345  0.57112144  1  0  -0.109992  0  3.732594  0  0  -0.1249  0  3.983389  0  0  -0.131857  0  4.004385  0  0  -0.087479  -0.12079  0  3.969898  0
C  C26  1  0.81018881  0.71618006  0.42717333  1  0  0.132783  0  3.677825  0  0  0.104865  0  3.926824  0  0  0.1117  0  3.942302  0  0  0.035735  0.100257  0  3.917058  0
C  C27  1  0.18980936  0.28382132  0.57282571  1  0  0.132821  0  3.677774  0  0  0.1049  0  3.92678  0  0  0.11175  0  3.942262  0  0  0.035746  0.100292  0  3.917014  0
C  C28  1  0.20027904  0.79697064  0.95309814  1  0  0.241303  0  3.725516  0  0  0.227746  0  3.994493  0  0  0.247112  0  4.007984  0  0  0.114533  0.214845  0  3.984978  0
C  C29  1  0.79972288  0.20302815  0.04690073  1  0  0.241225  0  3.725544  0  0  0.227662  0  3.994513  0  0  0.247029  0  4.008003  0  0  0.114517  0.214761  0  3.984995  0
C  C30  1  0.36336518  0.84273650  0.85210406  1  0  -0.157014  0  3.704631  0  0  -0.175746  0  3.958367  0  0  -0.186529  0  3.975779  0  0  -0.094285  -0.169341  0  3.947305  0
C  C31  1  0.63663438  0.15726485  0.14789677  1  0  -0.15698  0  3.704478  0  0  -0.175682  0  3.958252  0  0  -0.186465  0  3.975665  0  0  -0.094259  -0.169278  0  3.947191  0
C  C32  1  0.52511500  0.82247639  0.90361885  1  0  0.017243  0  3.705904  0  0  0.001651  0  3.950153  0  0  0.010998  0  3.96298  0  0  -0.069868  -0.004196  0  3.941539  0
C  C33  1  0.47488692  0.17752240  0.09638002  1  0  0.017245  0  3.70594  0  0  0.001652  0  3.950194  0  0  0.010998  0  3.963026  0  0  -0.069877  -0.004203  0  3.941576  0
C  C34  1  0.53330454  0.75246184  0.06020209  1  0  -0.136429  0  3.747835  0  0  -0.150799  0  4.005268  0  0  -0.159233  0  4.023931  0  0  -0.100157  -0.145517  0  3.993003  0
C  C35  1  0.46669503  0.24753952  0.93979874  1  0  -0.136422  0  3.747935  0  0  -0.1508  0  4.005356  0  0  -0.159235  0  4.024022  0  0  -0.100164  -0.145518  0  3.993095  0
C  C36  1  0.37856373  0.70357014  0.15744557  1  0  0.100112  0  3.652989  0  0  0.058781  0  3.908707  0  0  0.070555  0  3.918818  0  0  0.04369  0.05012  0  3.903446  0
C  C37  1  0.62143444  0.29643123  0.84255454  1  0  0.100138  0  3.65297  0  0  0.058788  0  3.9087  0  0  0.070565  0  3.918807  0  0  0.043683  0.050126  0  3.903441  0
S  S38  1  0.98839208  0.83394416  0.90001083  1  0  -0.379285  0  2.39552  0  0  -0.366258  0  2.811195  0  0  -0.382386  0  2.799918  0  0  -0.201088  -0.355017  0  2.817245  0
S  S39  1  0.01160796  0.16605592  0.09998813  1  0  -0.379275  0  2.395541  0  0  -0.366243  0  2.811212  0  0  -0.382385  0  2.799954  0  0  -0.201088  -0.355005  0  2.81727  0
Br  Br40  1  0.72161299  0.09305531  0.54445173  1  0  -0.532347  0  1.268033  0  0  -0.466101  0  1.633349  0  0  -0.484235  0  1.602015  0  0  -0.26278  -0.452599  0  1.652805  0
Br  Br41  1  0.27838657  0.90694605  0.45554803  1  0  -0.532346  0  1.268038  0  0  -0.466101  0  1.633352  0  0  -0.484237  0  1.602024  0  0  -0.262777  -0.4526  0  1.652811  0
N  N42  1  0.95903365  0.76355044  0.32270882  1  0  -0.330504  0  3.311  0  0  -0.266924  0  3.601002  0  0  -0.277021  0  3.606946  0  0  -0.347327  -0.261359  0  3.597194  0
N  N43  1  0.04096639  0.23644965  0.67729014  1  0  -0.330468  0  3.311014  0  0  -0.266911  0  3.601056  0  0  -0.276998  0  3.606976  0  0  -0.347305  -0.261346  0  3.597246  0
N  N44  1  0.21917529  0.72175305  0.10519123  1  0  -0.147002  0  3.509189  0  0  -0.056087  0  3.71325  0  0  -0.072323  0  3.73372  0  0  -0.213437  -0.045567  0  3.69956  0
N  N45  1  0.78082524  0.27824573  0.89480905  1  0  -0.146968  0  3.509141  0  0  -0.056026  0  3.713158  0  0  -0.072264  0  3.733628  0  0  -0.213426  -0.045505  0  3.699466  0
