# generated using pymatgen
data_H16Au2C15(SCl)2
_symmetry_space_group_name_H-M   'P 1'
_cell_length_a   5.51216079
_cell_length_b   7.83309397
_cell_length_c   11.16534719
_cell_angle_alpha   108.02984857
_cell_angle_beta   104.30693163
_cell_angle_gamma   90.01058301
_symmetry_Int_Tables_number   1
_chemical_formula_structural   H16Au2C15(SCl)2
_chemical_formula_sum   'H16 Au2 C15 S2 Cl2'
_cell_volume   442.65857486
_cell_formula_units_Z   1
loop_
 _symmetry_equiv_pos_site_id
 _symmetry_equiv_pos_as_xyz
  1  'x, y, z'
loop_
 _atom_site_type_symbol
 _atom_site_label
 _atom_site_symmetry_multiplicity
 _atom_site_fract_x
 _atom_site_fract_y
 _atom_site_fract_z
 _atom_site_occupancy
 _atom_site_hle17_bader_spin_density
 _atom_site_hle17_ddec_charge
 _atom_site_hle17_ddec_spin_density
 _atom_site_hle17_ddec_sum_bond_order
 _atom_site_hle17_magmom
 _atom_site_hse06_10hf_bader_spin_density
 _atom_site_hse06_10hf_ddec_charge
 _atom_site_hse06_10hf_ddec_spin_density
 _atom_site_hse06_10hf_ddec_sum_bond_order
 _atom_site_hse06_10hf_magmom
 _atom_site_hse06_bader_spin_density
 _atom_site_hse06_ddec_charge
 _atom_site_hse06_ddec_spin_density
 _atom_site_hse06_ddec_sum_bond_order
 _atom_site_hse06_magmom
 _atom_site_pbe_bader_spin_density
 _atom_site_pbe_cm5_charge
 _atom_site_pbe_ddec_charge
 _atom_site_pbe_ddec_spin_density
 _atom_site_pbe_ddec_sum_bond_order
 _atom_site_pbe_magmom
H  H0  1  0.27693333  0.56882025  0.75396805  1  0  0.083516  0  0.996317  0  0  0.090274  0  1.072349  0  0  0.093635  0  1.068982  0  0  0.082524  0.08785  0  1.074715  0
H  H1  1  0.52402956  0.43161353  0.24596183  1  0  0.083402  0  0.996323  0  0  0.090024  0  1.072327  0  0  0.093484  0  1.068814  0  0  0.082201  0.087579  0  1.07469  0
H  H2  1  0.94448856  0.56445015  0.55778676  1  0  0.084893  0  0.989996  0  0  0.094772  0  1.053766  0  0  0.095849  0  1.056351  0  0  0.093001  0.093499  0  1.053148  0
H  H3  1  0.38729761  0.43647175  0.44206761  1  0  0.08567  0  0.988474  0  0  0.09547  0  1.052631  0  0  0.096583  0  1.055139  0  0  0.093666  0.094741  0  1.050777  0
H  H4  1  0.01830797  0.73634044  0.41413758  1  0  0.087663  0  0.959455  0  0  0.096094  0  1.025626  0  0  0.09915  0  1.023445  0  0  0.092912  0.093769  0  1.0275  0
H  H5  1  0.60362530  0.26428495  0.58580289  1  0  0.087615  0  0.957369  0  0  0.096507  0  1.022947  0  0  0.099512  0  1.020857  0  0  0.092736  0.093661  0  1.026129  0
H  H6  1  0.42617667  0.91544067  0.46893877  1  0  0.090423  0  0.974077  0  0  0.098791  0  1.03787  0  0  0.101173  0  1.037904  0  0  0.09382  0.097017  0  1.038057  0
H  H7  1  0.95621885  0.08462089  0.53119414  1  0  0.089479  0  0.974863  0  0  0.097811  0  1.039238  0  0  0.100159  0  1.039273  0  0  0.093931  0.096532  0  1.038234  0
H  H8  1  0.75220281  0.93606539  0.67396090  1  0  0.098807  0  0.990028  0  0  0.104114  0  1.061034  0  0  0.107409  0  1.059462  0  0  0.08902  0.101835  0  1.061833  0
H  H9  1  0.07785101  0.06371974  0.32633735  1  0  0.099462  0  0.988552  0  0  0.105129  0  1.059116  0  0  0.108349  0  1.057694  0  0  0.089433  0.102812  0  1.060204  0
H  H10  1  0.47197557  0.71654902  0.98022228  1  0  0.096047  0  0.958617  0  0  0.108744  0  1.027885  0  0  0.109875  0  1.027195  0  0  0.088366  0.107964  0  1.028259  0
H  H11  1  0.49198769  0.28282739  0.01964250  1  0  0.0968  0  0.958336  0  0  0.109558  0  1.027127  0  0  0.110687  0  1.026462  0  0  0.088682  0.108699  0  1.027633  0
H  H12  1  0.74922839  0.84778893  0.08595313  1  0  0.100877  0  0.96076  0  0  0.111997  0  1.030253  0  0  0.113362  0  1.030124  0  0  0.087857  0.111029  0  1.030363  0
H  H13  1  0.66360753  0.15158072  0.91407195  1  0  0.101341  0  0.961343  0  0  0.11245  0  1.030774  0  0  0.113815  0  1.030655  0  0  0.087998  0.111536  0  1.030708  0
H  H14  1  0.38210371  0.02859756  0.08500510  1  0  0.084297  0  0.955448  0  0  0.097568  0  1.024059  0  0  0.097949  0  1.026046  0  0  0.083765  0.097332  0  1.022617  0
H  H15  1  0.29716639  0.97083372  0.91477545  1  0  0.085071  0  0.956093  0  0  0.098301  0  1.024586  0  0  0.098649  0  1.026654  0  0  0.084358  0.098089  0  1.023082  0
Au  Au16  1  0.90556515  0.49665660  0.85502773  1  0  0.126518  0  2.181813  0  0  0.053062  0  2.711536  0  0  0.0736  0  2.669817  0  0  0.236219  0.039096  0  2.742163  0
Au  Au17  1  0.05067306  0.50298841  0.14490735  1  0  0.125906  0  2.183252  0  0  0.051757  0  2.714043  0  0  0.072191  0  2.672389  0  0  0.236203  0.039377  0  2.742373  0
C  C18  1  0.53343373  0.75446968  0.72582753  1  0  0.015028  0  3.747913  0  0  0.03981  0  3.989683  0  0  0.038857  0  4.015753  0  0  -0.017626  0.039802  0  3.97245  0
C  C19  1  0.80772475  0.24554638  0.27425009  1  0  0.015029  0  3.746665  0  0  0.039663  0  3.988179  0  0  0.038714  0  4.01434  0  0  -0.017337  0.040278  0  3.971261  0
C  C20  1  0.30796482  0.64854827  0.69349042  1  0  -0.107972  0  3.757146  0  0  -0.124005  0  3.995646  0  0  -0.127063  0  4.01831  0  0  -0.095521  -0.121756  0  3.980197  0
C  C21  1  0.61503827  0.35189254  0.30651439  1  0  -0.108438  0  3.758796  0  0  -0.124196  0  3.997346  0  0  -0.127308  0  4.019942  0  0  -0.095812  -0.122339  0  3.982393  0
C  C22  1  0.12136515  0.64523013  0.58251459  1  0  -0.062969  0  3.757812  0  0  -0.072079  0  3.997514  0  0  -0.074608  0  4.021085  0  0  -0.09157  -0.070106  0  3.981636  0
C  C23  1  0.53916504  0.35538201  0.41742158  1  0  -0.063864  0  3.758793  0  0  -0.07322  0  3.998465  0  0  -0.075784  0  4.022086  0  0  -0.092369  -0.071177  0  3.98261  0
C  C24  1  0.16298183  0.74215038  0.50218640  1  0  -0.068176  0  3.755897  0  0  -0.08168  0  4.003119  0  0  -0.082918  0  4.022943  0  0  -0.089709  -0.080834  0  3.989843  0
C  C25  1  0.66054166  0.25829476  0.49778467  1  0  -0.06769  0  3.751999  0  0  -0.081144  0  3.998626  0  0  -0.082425  0  4.018607  0  0  -0.089575  -0.081042  0  3.987531  0
C  C26  1  0.39129186  0.84352634  0.53320066  1  0  -0.05644  0  3.743557  0  0  -0.065783  0  3.983596  0  0  -0.068329  0  4.005493  0  0  -0.088392  -0.064311  0  3.968962  0
C  C27  1  0.85764907  0.15667961  0.46687629  1  0  -0.05552  0  3.741935  0  0  -0.065268  0  3.982491  0  0  -0.067778  0  4.004523  0  0  -0.0886  -0.063276  0  3.967079  0
C  C28  1  0.57641828  0.85247637  0.64643115  1  0  -0.099558  0  3.731932  0  0  -0.116376  0  3.970172  0  0  -0.118667  0  3.991699  0  0  -0.090994  -0.114578  0  3.955525  0
C  C29  1  0.92974009  0.14749862  0.35369889  1  0  -0.099865  0  3.731103  0  0  -0.117011  0  3.969357  0  0  -0.119307  0  3.990987  0  0  -0.090685  -0.115336  0  3.954605  0
C  C30  1  0.60158281  0.83202672  0.99580929  1  0  -0.157474  0  3.62145  0  0  -0.195067  0  3.874455  0  0  -0.194401  0  3.8869  0  0  -0.157618  -0.195492  0  3.86554  0
C  C31  1  0.60606150  0.16741568  0.00419273  1  0  -0.159844  0  3.622867  0  0  -0.196509  0  3.873564  0  0  -0.195929  0  3.886118  0  0  -0.158228  -0.196966  0  3.864974  0
C  C32  1  0.46033238  0.99973032  0.99994471  1  0  -0.103259  0  3.705179  0  0  -0.136107  0  3.94959  0  0  -0.138752  0  3.965794  0  0  -0.175995  -0.134051  0  3.938165  0
S  S33  1  0.77571307  0.77601272  0.87092516  1  0  0.152394  0  3.007479  0  0  0.171831  0  3.450683  0  0  0.168097  0  3.44605  0  0  0.029907  0.174908  0  3.454049  0
S  S34  1  0.90511724  0.22360993  0.12915983  1  0  0.153816  0  3.005089  0  0  0.17321  0  3.447741  0  0  0.169409  0  3.443247  0  0  0.030494  0.17566  0  3.451142  0
Cl  Cl35  1  0.05690009  0.21822425  0.81327968  1  0  -0.416577  0  1.225738  0  0  -0.344434  0  1.540498  0  0  -0.363795  0  1.521411  0  0  -0.258473  -0.33072  0  1.552735  0
Cl  Cl36  1  0.24336577  0.78162201  0.18673798  1  0  -0.416405  0  1.225563  0  0  -0.344061  0  1.540213  0  0  -0.363444  0  1.521222  0  0  -0.258589  -0.331082  0  1.552888  0
