# generated using pymatgen
data_CdH28C29(NO)4
_symmetry_space_group_name_H-M   'P 1'
_cell_length_a   10.87056708
_cell_length_b   10.87055749
_cell_length_c   24.16326037
_cell_angle_alpha   91.91289336
_cell_angle_beta   91.91313092
_cell_angle_gamma   99.49923645
_symmetry_Int_Tables_number   1
_chemical_formula_structural   CdH28C29(NO)4
_chemical_formula_sum   'Cd4 H112 C116 N16 O16'
_cell_volume   2812.43708425
_cell_formula_units_Z   4
loop_
 _symmetry_equiv_pos_site_id
 _symmetry_equiv_pos_as_xyz
  1  'x, y, z'
loop_
 _atom_site_type_symbol
 _atom_site_label
 _atom_site_symmetry_multiplicity
 _atom_site_fract_x
 _atom_site_fract_y
 _atom_site_fract_z
 _atom_site_occupancy
 _atom_site_pbe_bader_charge
 _atom_site_pbe_bader_spin_density
 _atom_site_pbe_cm5_charge
 _atom_site_pbe_ddec_charge
 _atom_site_pbe_ddec_spin_density
 _atom_site_pbe_ddec_sum_bond_order
 _atom_site_pbe_magmom
Cd  Cd0  1  0.50000071  0.49999980  0.00000004  1  1.237042  0  0.779112  0.867009  0  2.11993  0
Cd  Cd1  1  0.50000026  0.50000042  0.49999956  1  1.23704  0  0.779106  0.866994  0  2.119934  0
Cd  Cd2  1  0.94775882  0.05223841  0.74999947  1  1.23901  0  0.761907  0.836016  0  2.21742  0
Cd  Cd3  1  0.05223987  0.94776026  0.24999999  1  1.239066  0  0.761916  0.836035  0  2.217428  0
H  H4  1  0.33513218  0.21084592  0.96406106  1  0.12406  0  0.135944  0.101093  0  1.017068  0
H  H5  1  0.78915346  0.66486916  0.53593726  1  0.124119  0  0.135946  0.101087  0  1.017034  0
H  H6  1  0.66486831  0.78915676  0.03593850  1  0.124051  0  0.135947  0.101086  0  1.017082  0
H  H7  1  0.21084610  0.33513428  0.46406147  1  0.124066  0  0.135932  0.101047  0  1.017072  0
H  H8  1  0.41478321  0.37195842  0.12461319  1  0.106092  0  0.118154  0.109988  0  1.022018  0
H  H9  1  0.62804382  0.58521598  0.37538562  1  0.106096  0  0.118144  0.109942  0  1.022039  0
H  H10  1  0.58522015  0.62804017  0.87538676  1  0.106105  0  0.118167  0.110024  0  1.021943  0
H  H11  1  0.37195769  0.41478136  0.62461427  1  0.106034  0  0.118158  0.109999  0  1.02202  0
H  H12  1  0.26146628  0.14431498  0.13354628  1  0.234369  0  0.118674  0.135559  0  1.077426  0
H  H13  1  0.85568619  0.73853608  0.36645264  1  0.234332  0  0.118676  0.135535  0  1.077458  0
H  H14  1  0.73853800  0.85568470  0.86645371  1  0.234349  0  0.118674  0.135545  0  1.077439  0
H  H15  1  0.14431622  0.26146419  0.63354649  1  0.234378  0  0.118666  0.135525  0  1.077454  0
H  H16  1  0.08473301  0.02454114  0.09749864  1  0.097153  0  0.109408  0.118753  0  1.012454  0
H  H17  1  0.97545849  0.91526866  0.40250060  1  0.097126  0  0.109424  0.118755  0  1.012434  0
H  H18  1  0.91526936  0.97546003  0.90250216  1  0.097167  0  0.109413  0.118753  0  1.012433  0
H  H19  1  0.02454107  0.08473385  0.59749894  1  0.097348  0  0.1094  0.118751  0  1.012459  0
H  H20  1  0.94954775  0.82493870  0.06881326  1  0.064909  0  0.103237  0.103925  0  0.998784  0
H  H21  1  0.17506109  0.05045156  0.43118725  1  0.064982  0  0.103255  0.103959  0  0.998748  0
H  H22  1  0.05045181  0.17506287  0.93118751  1  0.064901  0  0.103244  0.103957  0  0.998771  0
H  H23  1  0.82493754  0.94954985  0.56881350  1  0.064932  0  0.103228  0.103908  0  0.998723  0
H  H24  1  0.30603497  0.99984994  0.95350686  1  0.06672  0  0.10736  0.116176  0  1.008072  0
H  H25  1  0.00014853  0.69396319  0.54649144  1  0.066713  0  0.107346  0.116148  0  1.008099  0
H  H26  1  0.69396369  0.00015057  0.04649263  1  0.066718  0  0.107361  0.116159  0  1.008093  0
H  H27  1  0.99985104  0.30603840  0.45350809  1  0.066679  0  0.107362  0.116168  0  1.008119  0
H  H28  1  0.83802762  0.60877189  0.02084145  1  0.117068  0  0.102429  0.108587  0  1.0101  0
H  H29  1  0.39122446  0.16197231  0.47915952  1  0.11707  0  0.10242  0.108599  0  1.010104  0
H  H30  1  0.16197198  0.39122693  0.97915927  1  0.117081  0  0.102421  0.108605  0  1.010085  0
H  H31  1  0.60877604  0.83802945  0.52084044  1  0.117049  0  0.102448  0.108625  0  1.010109  0
H  H32  1  0.77446988  0.41628681  0.96244261  1  0.100484  0  0.109098  0.121185  0  1.014746  0
H  H33  1  0.58370630  0.22552917  0.53755827  1  0.100445  0  0.109139  0.121217  0  1.014792  0
H  H34  1  0.22552974  0.58371203  0.03755646  1  0.100475  0  0.109117  0.121214  0  1.014771  0
H  H35  1  0.41629044  0.77447280  0.46244328  1  0.100521  0  0.109115  0.121204  0  1.014793  0
H  H36  1  0.06376921  0.53632394  0.84842179  1  0.059839  0  0.108318  0.116091  0  1.00564  0
H  H37  1  0.46367566  0.93622683  0.65157877  1  0.059802  0  0.108318  0.116091  0  1.005578  0
H  H38  1  0.93623037  0.46367765  0.15157732  1  0.059856  0  0.10832  0.116102  0  1.005667  0
H  H39  1  0.53632580  0.06377325  0.34842159  1  0.059724  0  0.10831  0.116071  0  1.005639  0
H  H40  1  0.36234942  0.80122384  0.90601253  1  0.034327  0  0.084448  0.119122  0  1.006582  0
H  H41  1  0.19877669  0.63764861  0.59398728  1  0.034306  0  0.08445  0.119118  0  1.00667  0
H  H42  1  0.63764825  0.19877924  0.09398740  1  0.03432  0  0.08441  0.119062  0  1.006715  0
H  H43  1  0.80122477  0.36235241  0.40601185  1  0.034278  0  0.084442  0.119112  0  1.006634  0
H  H44  1  0.29031493  0.65198371  0.87796189  1  0.047148  0  0.087553  0.128269  0  1.014491  0
H  H45  1  0.34801636  0.70968174  0.62203797  1  0.047166  0  0.087562  0.128327  0  1.014509  0
H  H46  1  0.70968091  0.34801720  0.12203798  1  0.047151  0  0.087559  0.128301  0  1.014498  0
H  H47  1  0.65198511  0.29031835  0.37796156  1  0.047164  0  0.087558  0.128302  0  1.014524  0
H  H48  1  0.30577774  0.67961081  0.95059819  1  0.046208  0  0.086127  0.124945  0  1.013825  0
H  H49  1  0.32038841  0.69422046  0.54940250  1  0.046216  0  0.086135  0.124949  0  1.013816  0
H  H50  1  0.69421716  0.32038992  0.04940249  1  0.046188  0  0.086125  0.124912  0  1.013781  0
H  H51  1  0.67961208  0.30578222  0.45059706  1  0.046228  0  0.086148  0.124978  0  1.013771  0
H  H52  1  0.21087178  0.91357463  0.85173593  1  0.050694  0  0.089871  0.133886  0  1.009162  0
H  H53  1  0.08642455  0.78912801  0.64826323  1  0.050697  0  0.089881  0.133899  0  1.009143  0
H  H54  1  0.78912781  0.08642604  0.14826317  1  0.050695  0  0.089881  0.133916  0  1.009139  0
H  H55  1  0.91357598  0.21087284  0.35173547  1  0.050675  0  0.089874  0.133892  0  1.009163  0
H  H56  1  0.04770988  0.86342631  0.85522768  1  0.031915  0  0.086853  0.123143  0  1.020198  0
H  H57  1  0.13657239  0.95228974  0.64477136  1  0.031934  0  0.086817  0.123065  0  1.020219  0
H  H58  1  0.95228878  0.13657513  0.14477017  1  0.031975  0  0.086819  0.123084  0  1.020207  0
H  H59  1  0.86342626  0.04771076  0.35522855  1  0.031959  0  0.086817  0.123075  0  1.020197  0
H  H60  1  0.14052769  0.76773721  0.82059649  1  0.052548  0  0.089044  0.126511  0  0.994955  0
H  H61  1  0.23226160  0.85947121  0.67940314  1  0.052569  0  0.089054  0.126507  0  0.994947  0
H  H62  1  0.85947096  0.23226329  0.17940300  1  0.052563  0  0.089054  0.12652  0  0.99495  0
H  H63  1  0.76773706  0.14052837  0.32059717  1  0.052558  0  0.089066  0.126534  0  0.994957  0
H  H64  1  0.05299209  0.32748827  0.83390779  1  0.145843  0  0.135663  0.09937  0  1.014761  0
H  H65  1  0.67250950  0.94700952  0.66609220  1  0.145869  0  0.135685  0.099399  0  1.014737  0
H  H66  1  0.94701030  0.67251292  0.16609136  1  0.145883  0  0.135672  0.09937  0  1.014734  0
H  H67  1  0.32749104  0.05299040  0.33390731  1  0.145865  0  0.135676  0.099391  0  1.014747  0
H  H68  1  0.68367929  0.30711986  0.88948690  1  0.209671  0  0.119123  0.134605  0  1.085611  0
H  H69  1  0.69287943  0.31632319  0.61051209  1  0.209642  0  0.119093  0.134527  0  1.085701  0
H  H70  1  0.31632405  0.69287871  0.11051470  1  0.210204  0  0.119105  0.134569  0  1.085675  0
H  H71  1  0.30712108  0.68367765  0.38948785  1  0.209646  0  0.119094  0.134521  0  1.085701  0
H  H72  1  0.69965474  0.09947171  0.82001657  1  0.114309  0  0.120149  0.118135  0  0.997524  0
H  H73  1  0.90052884  0.30034481  0.67998136  1  0.114246  0  0.120161  0.118113  0  0.997527  0
H  H74  1  0.30034855  0.90053148  0.17998304  1  0.114274  0  0.120136  0.118127  0  0.99746  0
H  H75  1  0.09947264  0.69965436  0.32001857  1  0.114324  0  0.120172  0.118146  0  0.997536  0
H  H76  1  0.83145946  0.65155403  0.80982634  1  0.032221  0  0.099665  0.085305  0  0.975903  0
H  H77  1  0.34844292  0.16854087  0.69017487  1  0.032273  0  0.099679  0.085294  0  0.975958  0
H  H78  1  0.16853922  0.34844463  0.19017353  1  0.032213  0  0.099682  0.085346  0  0.975903  0
H  H79  1  0.65155570  0.83146054  0.30982629  1  0.032211  0  0.099674  0.085321  0  0.975881  0
H  H80  1  0.62091162  0.70788160  0.78929155  1  0.028374  0  0.090268  0.089138  0  1.006417  0
H  H81  1  0.29211679  0.37908971  0.71071069  1  0.028387  0  0.090245  0.089088  0  1.006532  0
H  H82  1  0.37908705  0.29211706  0.21070832  1  0.028382  0  0.09027  0.089139  0  1.006419  0
H  H83  1  0.70788463  0.62091220  0.28929094  1  0.028324  0  0.090289  0.089168  0  1.006393  0
H  H84  1  0.62645021  0.54668827  0.77861813  1  0.009947  0  0.08561  0.078045  0  1.008113  0
H  H85  1  0.45330955  0.37355015  0.72138300  1  0.010146  0  0.085623  0.078069  0  1.008102  0
H  H86  1  0.37354941  0.45330964  0.22138175  1  0.009978  0  0.085604  0.07803  0  1.008049  0
H  H87  1  0.54669096  0.62644974  0.27861899  1  0.010283  0  0.085606  0.078039  0  1.008054  0
H  H88  1  0.50505108  0.62010179  0.70119272  1  0.050619  0  0.088263  0.084382  0  0.988656  0
H  H89  1  0.37990040  0.49494663  0.79880949  1  0.050596  0  0.088266  0.084373  0  0.988708  0
H  H90  1  0.49494762  0.37989596  0.29880672  1  0.050827  0  0.088256  0.084349  0  0.988713  0
H  H91  1  0.62010105  0.50505252  0.20119292  1  0.050639  0  0.08826  0.08437  0  0.988713  0
H  H92  1  0.63040016  0.73847764  0.68764489  1  0.017707  0  0.085192  0.079742  0  1.003631  0
H  H93  1  0.26152465  0.36959956  0.81235737  1  0.017864  0  0.085153  0.079694  0  1.00359  0
H  H94  1  0.36959947  0.26152028  0.31235499  1  0.017826  0  0.085191  0.079757  0  1.003668  0
H  H95  1  0.73847586  0.63040034  0.18764421  1  0.017874  0  0.085201  0.079776  0  1.003606  0
H  H96  1  0.63680044  0.45795320  0.68006973  1  0.037134  0  0.094633  0.07091  0  0.99604  0
H  H97  1  0.54204860  0.36319432  0.81992940  1  0.037001  0  0.094673  0.070989  0  0.996017  0
H  H98  1  0.36320012  0.54204489  0.31993017  1  0.037152  0  0.094634  0.070917  0  0.996054  0
H  H99  1  0.45795104  0.63680175  0.18007127  1  0.037145  0  0.094659  0.070955  0  0.996007  0
H  H100  1  0.84375735  0.51569645  0.64054857  1  0.014345  0  0.087884  0.085129  0  0.993142  0
H  H101  1  0.48430170  0.15623656  0.85945228  1  0.014331  0  0.087901  0.085081  0  0.993199  0
H  H102  1  0.15624228  0.48430147  0.35945090  1  0.014181  0  0.087894  0.085141  0  0.993166  0
H  H103  1  0.51569513  0.84375899  0.14054916  1  0.014319  0  0.087884  0.085112  0  0.993138  0
H  H104  1  0.83660414  0.67664498  0.65136719  1  0.050389  0  0.086636  0.085713  0  1.006586  0
H  H105  1  0.32335449  0.16339550  0.84863404  1  0.050496  0  0.086617  0.08568  0  1.0066  0
H  H106  1  0.16339545  0.32335476  0.34863313  1  0.050381  0  0.086631  0.085695  0  1.006605  0
H  H107  1  0.67664231  0.83660281  0.15136704  1  0.05043  0  0.086617  0.085673  0  1.006593  0
H  H108  1  0.83853186  0.48532421  0.74166582  1  0.005078  0  0.082904  0.073544  0  1.001201  0
H  H109  1  0.51467214  0.16146664  0.75833468  1  0.005138  0  0.082857  0.073454  0  1.001243  0
H  H110  1  0.16146778  0.51467279  0.25833404  1  0.00511  0  0.082908  0.073535  0  1.001205  0
H  H111  1  0.48532466  0.83853167  0.24166639  1  0.005053  0  0.082906  0.073522  0  1.001218  0
H  H112  1  0.96061967  0.60927517  0.72815845  1  -0.009323  0  0.08956  0.086401  0  0.990737  0
H  H113  1  0.39072098  0.03937779  0.77184162  1  -0.009357  0  0.089524  0.086318  0  0.990744  0
H  H114  1  0.03937900  0.39072350  0.27184142  1  -0.00934  0  0.089523  0.086357  0  0.990747  0
H  H115  1  0.60927584  0.96061961  0.22815861  1  -0.009319  0  0.089538  0.086379  0  0.990745  0
C  C116  1  0.33910137  0.22352178  0.00873118  1  0.992415  0  0.139664  0.092942  0  3.918616  0
C  C117  1  0.77647682  0.66089955  0.49126726  1  0.992339  0  0.139677  0.092952  0  3.918614  0
C  C118  1  0.66089728  0.77647872  0.99126914  1  0.992415  0  0.139647  0.09293  0  3.91859  0
C  C119  1  0.22352271  0.33910573  0.50873150  1  0.992302  0  0.139614  0.092892  0  3.918686  0
C  C120  1  0.37581609  0.30362735  0.09241639  1  0.394913  0  -0.001149  -0.025206  0  4.011797  0
C  C121  1  0.69637043  0.62418276  0.40758237  1  0.394828  0  -0.001119  -0.025107  0  4.011663  0
C  C122  1  0.62418633  0.69637199  0.90758355  1  0.394908  0  -0.001188  -0.025318  0  4.011843  0
C  C123  1  0.30363100  0.37581916  0.59241761  1  0.394895  0  -0.001134  -0.025247  0  4.011673  0
C  C124  1  0.30007824  0.19056479  0.09717463  1  0.254331  0  -0.002181  -0.110921  0  3.883796  0
C  C125  1  0.80943448  0.69992276  0.40282423  1  0.254306  0  -0.002188  -0.110937  0  3.883621  0
C  C126  1  0.69992605  0.80943397  0.90282575  1  0.25432  0  -0.00212  -0.110843  0  3.883874  0
C  C127  1  0.19056706  0.30007275  0.59717481  1  0.254318  0  -0.002146  -0.110861  0  3.883609  0
C  C128  1  0.20185290  0.02401534  0.02700625  1  0.239234  0  0.091949  0.162367  0  4.026254  0
C  C129  1  0.97598543  0.79814783  0.47299311  1  0.239265  0  0.091909  0.162247  0  4.026307  0
C  C130  1  0.79815042  0.97598601  0.97299333  1  0.239549  0  0.091927  0.162319  0  4.02622  0
C  C131  1  0.02401601  0.20185410  0.52700646  1  0.239267  0  0.091931  0.162292  0  4.026232  0
C  C132  1  0.10278801  0.97455021  0.05963446  1  0.048821  0  -0.088997  -0.161649  0  3.982903  0
C  C133  1  0.02545152  0.89721271  0.44036475  1  0.04877  0  -0.08899  -0.161613  0  3.983078  0
C  C134  1  0.89721436  0.02545189  0.94036554  1  0.048398  0  -0.088978  -0.161584  0  3.983019  0
C  C135  1  0.97454899  0.10278906  0.55963438  1  0.04861  0  -0.08898  -0.16167  0  3.982972  0
C  C136  1  0.02671468  0.86234873  0.04329802  1  -0.055625  0  -0.086322  -0.099979  0  4.000708  0
C  C137  1  0.13764952  0.97328303  0.45670111  1  -0.055702  0  -0.086324  -0.099996  0  4.000722  0
C  C138  1  0.97328584  0.13765119  0.95670232  1  -0.05527  0  -0.086351  -0.100088  0  4.000779  0
C  C139  1  0.86234913  0.02671748  0.54329838  1  -0.055638  0  -0.086311  -0.099931  0  4.00069  0
C  C140  1  0.05031423  0.79998967  0.99426673  1  0.022275  0  -0.013087  0.010884  0  4.017671  0
C  C141  1  0.20000915  0.94968389  0.50573318  1  0.022312  0  -0.013096  0.010849  0  4.017717  0
C  C142  1  0.94968348  0.20001158  0.00573276  1  0.022259  0  -0.013094  0.010919  0  4.017738  0
C  C143  1  0.79998854  0.05031828  0.49426673  1  0.022334  0  -0.013104  0.010867  0  4.017686  0
C  C144  1  0.15010220  0.85084748  0.96160194  1  0.002853  0  0.000939  0.044961  0  3.89052  0
C  C145  1  0.14915260  0.84989431  0.53839760  1  0.002829  0  0.000891  0.044938  0  3.890553  0
C  C146  1  0.84989455  0.14915544  0.03839715  1  0.002938  0  0.000929  0.04494  0  3.89072  0
C  C147  1  0.85084512  0.15010602  0.46160229  1  0.002956  0  0.000918  0.044906  0  3.890583  0
C  C148  1  0.22678703  0.96200167  0.97785194  1  -0.0429  0  -0.09344  -0.217229  0  3.970763  0
C  C149  1  0.03799741  0.77321060  0.52214757  1  -0.042888  0  -0.093432  -0.217184  0  3.970719  0
C  C150  1  0.77321256  0.03799900  0.02214799  1  -0.042979  0  -0.093434  -0.217191  0  3.970722  0
C  C151  1  0.96200218  0.22679008  0.47785153  1  -0.042993  0  -0.093448  -0.217169  0  3.970743  0
C  C152  1  0.15967825  0.76660727  0.91085751  1  0.043926  0  -0.004717  0.160758  0  3.843462  0
C  C153  1  0.23339413  0.84031946  0.58914175  1  0.043981  0  -0.004774  0.16073  0  3.843439  0
C  C154  1  0.84031759  0.23339365  0.08914194  1  0.043991  0  -0.004812  0.160586  0  3.843647  0
C  C155  1  0.76660548  0.15968031  0.41085692  1  0.043887  0  -0.004734  0.160699  0  3.843513  0
C  C156  1  0.05302251  0.65990669  0.91942163  1  -0.057252  0  0.00158  0.043584  0  3.886539  0
C  C157  1  0.34009172  0.94697606  0.58057882  1  -0.056798  0  0.001575  0.043594  0  3.88654  0
C  C158  1  0.94697617  0.34009105  0.08057905  1  -0.05731  0  0.001578  0.043651  0  3.886513  0
C  C159  1  0.65990883  0.05302294  0.41942067  1  -0.057152  0  0.001592  0.043639  0  3.886485  0
C  C160  1  0.98923321  0.68168416  0.96784631  1  -0.036467  0  -0.012499  0.009803  0  4.020077  0
C  C161  1  0.31831547  0.01076367  0.53215294  1  -0.036507  0  -0.012529  0.009721  0  4.020132  0
C  C162  1  0.01076639  0.31831560  0.03215319  1  -0.036438  0  -0.012488  0.009774  0  4.02007  0
C  C163  1  0.68168605  0.98923460  0.46784532  1  -0.036529  0  -0.012442  0.009856  0  4.020013  0
C  C164  1  0.88782297  0.59487011  0.98330927  1  -0.012569  0  -0.085156  -0.097735  0  3.985095  0
C  C165  1  0.40513055  0.11217671  0.51669003  1  -0.012574  0  -0.085074  -0.097661  0  3.985124  0
C  C166  1  0.11218032  0.40513215  0.01669157  1  -0.01255  0  -0.085127  -0.097746  0  3.985104  0
C  C167  1  0.59487093  0.88782339  0.48330909  1  -0.012522  0  -0.085221  -0.097805  0  3.985168  0
C  C168  1  0.85160302  0.48617315  0.95058028  1  -0.018662  0  -0.088466  -0.160539  0  3.975797  0
C  C169  1  0.51382403  0.14839793  0.54942029  1  -0.018533  0  -0.088491  -0.160534  0  3.975983  0
C  C170  1  0.14840032  0.51382542  0.04942133  1  -0.018578  0  -0.088483  -0.160518  0  3.97592  0
C  C171  1  0.48617745  0.85160125  0.45057922  1  -0.018587  0  -0.088447  -0.160512  0  3.975937  0
C  C172  1  0.91552753  0.46506690  0.90266435  1  0.25434  0  0.092532  0.162375  0  4.017486  0
C  C173  1  0.53493076  0.08447541  0.59733635  1  0.254348  0  0.092519  0.162348  0  4.01755  0
C  C174  1  0.08447486  0.53493242  0.09733767  1  0.254199  0  0.09252  0.162274  0  4.017675  0
C  C175  1  0.46507069  0.91552560  0.40266320  1  0.254369  0  0.092508  0.162297  0  4.017708  0
C  C176  1  0.01616066  0.55254827  0.88635474  1  0.039131  0  -0.090217  -0.212967  0  3.969878  0
C  C177  1  0.44745154  0.98383767  0.61364539  1  0.038605  0  -0.090239  -0.212999  0  3.969807  0
C  C178  1  0.98384082  0.44745089  0.11364560  1  0.039119  0  -0.090226  -0.212988  0  3.97  0
C  C179  1  0.55254900  0.01616226  0.38635371  1  0.03916  0  -0.090247  -0.213002  0  3.969925  0
C  C180  1  0.28696722  0.72217309  0.91134428  1  -0.088087  0  -0.239588  -0.40712  0  3.891347  0
C  C181  1  0.27782671  0.71302982  0.58865592  1  -0.088129  0  -0.239576  -0.407189  0  3.891509  0
C  C182  1  0.71302862  0.27782782  0.08865558  1  -0.08815  0  -0.239523  -0.407007  0  3.891448  0
C  C183  1  0.72217381  0.28697103  0.41134360  1  -0.088123  0  -0.239587  -0.407176  0  3.891451  0
C  C184  1  0.13852241  0.83184092  0.85659767  1  -0.077535  0  -0.238089  -0.405524  0  3.879776  0
C  C185  1  0.16816013  0.86147726  0.64340111  1  -0.077534  0  -0.238037  -0.40541  0  3.879704  0
C  C186  1  0.86147530  0.16816034  0.14340099  1  -0.07755  0  -0.238035  -0.405436  0  3.879741  0
C  C187  1  0.83184038  0.13852451  0.35659843  1  -0.077554  0  -0.238058  -0.405443  0  3.87976  0
C  C188  1  0.95454845  0.29314560  0.83833105  1  0.953027  0  0.138657  0.084668  0  3.935  0
C  C189  1  0.70685424  0.04545376  0.66166987  1  0.953065  0  0.138672  0.084732  0  3.934905  0
C  C190  1  0.04545395  0.70685465  0.16166932  1  0.953047  0  0.138697  0.084731  0  3.934906  0
C  C191  1  0.29314723  0.95454634  0.33832966  1  0.953031  0  0.138666  0.084688  0  3.934945  0
C  C192  1  0.76137679  0.27897334  0.86770454  1  0.287823  0  -0.001548  -0.10562  0  3.886377  0
C  C193  1  0.72102588  0.23862473  0.63229453  1  0.287783  0  -0.00151  -0.105513  0  3.886402  0
C  C194  1  0.23862558  0.72102783  0.13229626  1  0.287147  0  -0.001485  -0.105536  0  3.886391  0
C  C195  1  0.27897465  0.76137519  0.36770539  1  0.287779  0  -0.001507  -0.105473  0  3.886427  0
C  C196  1  0.77043433  0.17838699  0.83314297  1  0.378914  0  -0.005758  -0.036919  0  4.016824  0
C  C197  1  0.82161315  0.22956696  0.66685581  1  0.378973  0  -0.00572  -0.036811  0  4.016649  0
C  C198  1  0.22956714  0.82161311  0.16685615  1  0.378987  0  -0.005719  -0.036852  0  4.016677  0
C  C199  1  0.17838737  0.77043388  0.33314372  1  0.37892  0  -0.005792  -0.036982  0  4.016838  0
C  C200  1  0.84913301  0.80614375  0.75900686  1  1.533504  0  0.191672  0.573848  0  4.156277  0
C  C201  1  0.19385378  0.15086861  0.74099384  1  1.533085  0  0.191731  0.573978  0  4.156188  0
C  C202  1  0.15086661  0.19385417  0.24099302  1  1.53336  0  0.1917  0.573863  0  4.156305  0
C  C203  1  0.80614482  0.84913463  0.25900652  1  1.533457  0  0.191702  0.573879  0  4.156228  0
C  C204  1  0.80186140  0.66758183  0.76689040  1  0.005759  0  -0.089547  -0.102406  0  3.854185  0
C  C205  1  0.33241608  0.19813874  0.73311078  1  0.005783  0  -0.089515  -0.102383  0  3.854214  0
C  C206  1  0.19813728  0.33241683  0.23310947  1  0.005754  0  -0.089519  -0.102434  0  3.854102  0
C  C207  1  0.66758349  0.80186192  0.26689038  1  0.005763  0  -0.089529  -0.102438  0  3.854285  0
C  C208  1  0.65816401  0.64009306  0.76269491  1  -0.011113  0  -0.164744  -0.162921  0  3.921237  0
C  C209  1  0.35990596  0.34183589  0.73730659  1  -0.011131  0  -0.164716  -0.162897  0  3.921267  0
C  C210  1  0.34183468  0.35990469  0.23730495  1  -0.011136  0  -0.164735  -0.162877  0  3.921119  0
C  C211  1  0.64009548  0.65816418  0.26269501  1  -0.011233  0  -0.164763  -0.16292  0  3.921134  0
C  C212  1  0.60759292  0.64347027  0.70308190  1  -0.039676  0  -0.168105  -0.158435  0  3.944289  0
C  C213  1  0.35653257  0.39240574  0.79692042  1  -0.039784  0  -0.168036  -0.158283  0  3.944306  0
C  C214  1  0.39240671  0.35652764  0.29691798  1  -0.040036  0  -0.168112  -0.158447  0  3.944352  0
C  C215  1  0.64346888  0.60759433  0.20308118  1  -0.039846  0  -0.168087  -0.158434  0  3.944339  0
C  C216  1  0.66258569  0.55325986  0.66494404  1  -0.006736  0  -0.09477  -0.110365  0  3.886478  0
C  C217  1  0.44674449  0.33741229  0.83505595  1  -0.006664  0  -0.094875  -0.110624  0  3.886586  0
C  C218  1  0.33741393  0.44673899  0.33505461  1  -0.006728  0  -0.09481  -0.110416  0  3.886504  0
C  C219  1  0.55325699  0.66258595  0.16494479  1  -0.006792  0  -0.094814  -0.11051  0  3.886576  0
C  C220  1  0.80629639  0.58322570  0.66739015  1  -0.02348  0  -0.166591  -0.16336  0  3.909884  0
C  C221  1  0.41677520  0.19370150  0.83261072  1  -0.023645  0  -0.166561  -0.16324  0  3.90982  0
C  C222  1  0.19370323  0.41677314  0.33260892  1  -0.023681  0  -0.166577  -0.163353  0  3.909955  0
C  C223  1  0.58322346  0.80629715  0.16739040  1  -0.023874  0  -0.166543  -0.163232  0  3.909692  0
C  C224  1  0.85856363  0.58143701  0.72701207  1  0.018069  0  -0.167068  -0.156536  0  3.933287  0
C  C225  1  0.41855990  0.14143466  0.77298795  1  0.018077  0  -0.167017  -0.15633  0  3.933217  0
C  C226  1  0.14143505  0.41856166  0.27298780  1  0.018426  0  -0.167052  -0.156448  0  3.933245  0
C  C227  1  0.58143783  0.85856382  0.22701314  1  0.018483  0  -0.16706  -0.156487  0  3.933301  0
C  C228  1  0.61107738  0.54798765  0.60531585  1  1.51649  0  0.187842  0.567519  0  4.176757  0
C  C229  1  0.45201753  0.38892208  0.89468414  1  1.516468  0  0.187869  0.567655  0  4.176578  0
C  C230  1  0.38892317  0.45201135  0.39468406  1  1.516501  0  0.187808  0.567474  0  4.176835  0
C  C231  1  0.54798394  0.61107708  0.10531662  1  1.516479  0  0.187864  0.567712  0  4.176609  0
N  N232  1  0.39932645  0.32291387  0.03738414  1  -1.231547  0  -0.357851  -0.293983  0  3.564643  0
N  N233  1  0.67708495  0.60067232  0.46261464  1  -1.231449  0  -0.357889  -0.294111  0  3.564756  0
N  N234  1  0.60067408  0.67708605  0.96261578  1  -1.231532  0  -0.357846  -0.293946  0  3.564602  0
N  N235  1  0.32291558  0.39932853  0.53738448  1  -1.231469  0  -0.357834  -0.293964  0  3.564685  0
N  N236  1  0.27741383  0.14009045  0.04349693  1  -1.26048  0  -0.220601  0.017144  0  3.787222  0
N  N237  1  0.85990962  0.72258653  0.45650196  1  -1.260468  0  -0.22056  0.017314  0  3.786996  0
N  N238  1  0.72258665  0.85991222  0.95650346  1  -1.260744  0  -0.220613  0.017164  0  3.787206  0
N  N239  1  0.14009090  0.27741524  0.54349675  1  -1.260444  0  -0.220591  0.017269  0  3.787073  0
N  N240  1  0.87908357  0.35188672  0.87055457  1  -1.260046  0  -0.224183  0.014533  0  3.796204  0
N  N241  1  0.64811025  0.12091850  0.62944535  1  -1.260033  0  -0.224219  0.014433  0  3.796167  0
N  N242  1  0.12091790  0.64811244  0.12944577  1  -1.260002  0  -0.22422  0.014532  0  3.796058  0
N  N243  1  0.35188933  0.87908217  0.37055458  1  -1.260123  0  -0.224198  0.014513  0  3.796206  0
N  N244  1  0.89092932  0.18821756  0.81532116  1  -1.226288  0  -0.358182  -0.29303  0  3.562436  0
N  N245  1  0.81178306  0.10907231  0.68467856  1  -1.22619  0  -0.358223  -0.293118  0  3.562322  0
N  N246  1  0.10907214  0.81178253  0.18467878  1  -1.226267  0  -0.358248  -0.293152  0  3.56237  0
N  N247  1  0.18821839  0.89092870  0.31532140  1  -1.226255  0  -0.358173  -0.293009  0  3.562386  0
O  O248  1  0.62286287  0.45099171  0.57517919  1  -1.177908  0  -0.343514  -0.578848  0  2.237408  0
O  O249  1  0.54901176  0.37713603  0.92482044  1  -1.178008  0  -0.343492  -0.578873  0  2.237344  0
O  O250  1  0.37713675  0.54900713  0.42481987  1  -1.177867  0  -0.343518  -0.57885  0  2.237462  0
O  O251  1  0.45098876  0.62286388  0.07518031  1  -1.177962  0  -0.343532  -0.578944  0  2.237388  0
O  O252  1  0.55882934  0.63542161  0.58704562  1  -1.18265  0  -0.336244  -0.566274  0  2.141951  0
O  O253  1  0.36458256  0.44116969  0.91295420  1  -1.182517  0  -0.336294  -0.566384  0  2.141896  0
O  O254  1  0.44117121  0.36457739  0.41295429  1  -1.182672  0  -0.336196  -0.566219  0  2.142029  0
O  O255  1  0.63541799  0.55882931  0.08704571  1  -1.182552  0  -0.336274  -0.566399  0  2.141923  0
O  O256  1  0.80888467  0.88584661  0.79092505  1  -1.197102  0  -0.34486  -0.582566  0  2.200378  0
O  O257  1  0.11415083  0.19111551  0.70907510  1  -1.196764  0  -0.344898  -0.582608  0  2.200336  0
O  O258  1  0.19111215  0.11415173  0.20907396  1  -1.196981  0  -0.34489  -0.582588  0  2.200441  0
O  O259  1  0.88584775  0.80888865  0.29092569  1  -1.197095  0  -0.344878  -0.582555  0  2.200334  0
O  O260  1  0.92808421  0.83945262  0.72232331  1  -1.157654  0  -0.32993  -0.544382  0  2.187935  0
O  O261  1  0.16054367  0.07191676  0.77767740  1  -1.157609  0  -0.329984  -0.544489  0  2.187925  0
O  O262  1  0.07191636  0.16054454  0.27767739  1  -1.157668  0  -0.329957  -0.544415  0  2.187925  0
O  O263  1  0.83945401  0.92808540  0.22232293  1  -1.157644  0  -0.329971  -0.544438  0  2.187921  0
