# generated using pymatgen
data_NdH3C4O9
_symmetry_space_group_name_H-M   'P 1'
_cell_length_a   10.35208560
_cell_length_b   10.63428708
_cell_length_c   11.95067427
_cell_angle_alpha   89.99933294
_cell_angle_beta   109.04182457
_cell_angle_gamma   90.00091301
_symmetry_Int_Tables_number   1
_chemical_formula_structural   NdH3C4O9
_chemical_formula_sum   'Nd4 H12 C16 O36'
_cell_volume   1243.62493053
_cell_formula_units_Z   4
loop_
 _symmetry_equiv_pos_site_id
 _symmetry_equiv_pos_as_xyz
  1  'x, y, z'
loop_
 _atom_site_type_symbol
 _atom_site_label
 _atom_site_symmetry_multiplicity
 _atom_site_fract_x
 _atom_site_fract_y
 _atom_site_fract_z
 _atom_site_occupancy
 _atom_site_hle17_bader_spin_density
 _atom_site_hle17_ddec_charge
 _atom_site_hle17_ddec_spin_density
 _atom_site_hle17_ddec_sum_bond_order
 _atom_site_hle17_magmom
 _atom_site_hse06_10hf_bader_spin_density
 _atom_site_hse06_10hf_ddec_charge
 _atom_site_hse06_10hf_ddec_spin_density
 _atom_site_hse06_10hf_ddec_sum_bond_order
 _atom_site_hse06_10hf_magmom
 _atom_site_hse06_bader_spin_density
 _atom_site_hse06_ddec_charge
 _atom_site_hse06_ddec_spin_density
 _atom_site_hse06_ddec_sum_bond_order
 _atom_site_hse06_magmom
 _atom_site_pbe_bader_spin_density
 _atom_site_pbe_cm5_charge
 _atom_site_pbe_ddec_charge
 _atom_site_pbe_ddec_spin_density
 _atom_site_pbe_ddec_sum_bond_order
 _atom_site_pbe_magmom
Nd  Nd0  1  0.19730066  0.39321598  0.37555828  1  0  2.232326  0  1.639347  0  0  2.059137  0  2.116328  0  0  2.161607  0  1.961208  0  0  1.51632  2.026949  0  2.149986  0
Nd  Nd1  1  0.30268760  0.89321601  0.12445214  1  0  2.232398  0  1.639102  0  0  2.059251  0  2.116009  0  0  2.161723  0  1.960882  0  0  1.516347  2.027037  0  2.149692  0
Nd  Nd2  1  0.80271212  0.60679128  0.62445120  1  0  2.232399  0  1.639106  0  0  2.059184  0  2.11607  0  0  2.161698  0  1.960887  0  0  1.516387  2.026953  0  2.149791  0
Nd  Nd3  1  0.69727236  0.10678560  0.87554730  1  0  2.232402  0  1.6394  0  0  2.059201  0  2.116397  0  0  2.161723  0  1.961195  0  0  1.516331  2.027004  0  2.150102  0
H  H4  1  0.99318763  0.25713044  0.12265002  1  0  0.457237  0  0.830524  0  0  0.423671  0  0.895061  0  0  0.436147  0  0.877182  0  0  0.308845  0.415182  0  0.907218  0
H  H5  1  0.50679878  0.75714576  0.37735943  1  0  0.457245  0  0.830538  0  0  0.423712  0  0.895013  0  0  0.436155  0  0.877171  0  0  0.308879  0.415193  0  0.907212  0
H  H6  1  0.00680915  0.74286272  0.87735869  1  0  0.45722  0  0.8306  0  0  0.423696  0  0.895049  0  0  0.436136  0  0.87722  0  0  0.308892  0.415197  0  0.90723  0
H  H7  1  0.49320288  0.24286432  0.62263936  1  0  0.457184  0  0.830635  0  0  0.423625  0  0.895142  0  0  0.436105  0  0.877253  0  0  0.308823  0.415137  0  0.907306  0
H  H8  1  0.94486140  0.38130079  0.17122109  1  0  0.457096  0  0.784342  0  0  0.43581  0  0.839737  0  0  0.444664  0  0.830571  0  0  0.341681  0.429466  0  0.847051  0
H  H9  1  0.55512671  0.88130893  0.32877736  1  0  0.457095  0  0.78443  0  0  0.435824  0  0.839839  0  0  0.444655  0  0.830671  0  0  0.341702  0.429448  0  0.847179  0
H  H10  1  0.05515561  0.61870647  0.82878171  1  0  0.457225  0  0.784515  0  0  0.435967  0  0.839858  0  0  0.444792  0  0.830709  0  0  0.341758  0.429615  0  0.847181  0
H  H11  1  0.44486609  0.11868799  0.67119523  1  0  0.457145  0  0.784293  0  0  0.435859  0  0.839699  0  0  0.44472  0  0.830512  0  0  0.341717  0.429518  0  0.847012  0
H  H12  1  0.10964468  0.44100954  0.10197153  1  0  0.410556  0  0.85845  0  0  0.369638  0  0.958144  0  0  0.381095  0  0.947419  0  0  0.314748  0.361239  0  0.966927  0
H  H13  1  0.39035065  0.94101514  0.39803314  1  0  0.410371  0  0.85833  0  0  0.369499  0  0.958316  0  0  0.382329  0  0.945452  0  0  0.314666  0.361051  0  0.966844  0
H  H14  1  0.89037650  0.55897421  0.89803297  1  0  0.410546  0  0.85845  0  0  0.370852  0  0.957041  0  0  0.382482  0  0.945614  0  0  0.31472  0.361278  0  0.967137  0
H  H15  1  0.60966684  0.05898836  0.60197396  1  0  0.410366  0  0.858327  0  0  0.370378  0  0.956682  0  0  0.382352  0  0.945446  0  0  0.314647  0.361031  0  0.966817  0
C  C16  1  0.93784540  0.46832137  0.45227215  1  0  0.576633  0  3.921264  0  0  0.53526  0  4.218251  0  0  0.564587  0  4.216559  0  0  0.226739  0.514799  0  4.223872  0
C  C17  1  0.56213165  0.96831882  0.04773993  1  0  0.576458  0  3.921242  0  0  0.535149  0  4.218114  0  0  0.564478  0  4.21642  0  0  0.226758  0.514704  0  4.223721  0
C  C18  1  0.06217246  0.53167461  0.54773839  1  0  0.576447  0  3.921506  0  0  0.534971  0  4.218606  0  0  0.564298  0  4.216926  0  0  0.226767  0.51452  0  4.224214  0
C  C19  1  0.43783331  0.03168468  0.95225969  1  0  0.576896  0  3.921297  0  0  0.535466  0  4.218286  0  0  0.564782  0  4.216614  0  0  0.226999  0.515004  0  4.223904  0
C  C20  1  0.51655278  0.44783965  0.54775764  1  0  0.590298  0  3.88177  0  0  0.547073  0  4.171736  0  0  0.577648  0  4.167162  0  0  0.242966  0.526053  0  4.178114  0
C  C21  1  0.98345653  0.94783749  0.95224669  1  0  0.590274  0  3.882021  0  0  0.547075  0  4.171879  0  0  0.577668  0  4.167274  0  0  0.242896  0.52606  0  4.178248  0
C  C22  1  0.48348945  0.55216479  0.45223944  1  0  0.590189  0  3.881925  0  0  0.546752  0  4.172126  0  0  0.577352  0  4.167516  0  0  0.242742  0.525719  0  4.178509  0
C  C23  1  0.01651316  0.05216506  0.04775979  1  0  0.590335  0  3.882063  0  0  0.547009  0  4.172058  0  0  0.577606  0  4.167448  0  0  0.242884  0.525985  0  4.178429  0
C  C24  1  0.34822140  0.15182288  0.29801231  1  0  0.592947  0  3.964772  0  0  0.547514  0  4.267038  0  0  0.578519  0  4.261637  0  0  0.230048  0.526429  0  4.273591  0
C  C25  1  0.15175599  0.65182545  0.20199666  1  0  0.592533  0  3.964855  0  0  0.547217  0  4.267091  0  0  0.578221  0  4.26177  0  0  0.229857  0.526149  0  4.273588  0
C  C26  1  0.65177319  0.84815523  0.70200351  1  0  0.592901  0  3.964176  0  0  0.547482  0  4.266554  0  0  0.578504  0  4.26116  0  0  0.229982  0.526402  0  4.273113  0
C  C27  1  0.84823440  0.34818181  0.79800821  1  0  0.592546  0  3.964917  0  0  0.547264  0  4.267024  0  0  0.578253  0  4.261739  0  0  0.229869  0.526169  0  4.273628  0
C  C28  1  0.29517939  0.09978081  0.39713747  1  0  0.560912  0  3.773114  0  0  0.511757  0  4.081038  0  0  0.541814  0  4.072808  0  0  0.252273  0.490992  0  4.088842  0
C  C29  1  0.20481394  0.59977686  0.10286104  1  0  0.56118  0  3.772224  0  0  0.511735  0  4.080549  0  0  0.541797  0  4.072242  0  0  0.252321  0.491004  0  4.088319  0
C  C30  1  0.70484148  0.90022081  0.60285520  1  0  0.561169  0  3.77224  0  0  0.511732  0  4.08072  0  0  0.541843  0  4.072338  0  0  0.252174  0.491003  0  4.088362  0
C  C31  1  0.79518699  0.40021629  0.89714012  1  0  0.561515  0  3.772794  0  0  0.512106  0  4.081228  0  0  0.542124  0  4.072978  0  0  0.252344  0.491391  0  4.08886  0
O  O32  1  0.82004720  0.49420187  0.45601394  1  0  -0.653739  0  1.987957  0  0  -0.609602  0  2.21822  0  0  -0.639452  0  2.204536  0  0  -0.388391  -0.594339  0  2.225605  0
O  O33  1  0.67995819  0.99420578  0.04398103  1  0  -0.653902  0  1.987185  0  0  -0.609802  0  2.217435  0  0  -0.639663  0  2.203751  0  0  -0.388527  -0.594539  0  2.224816  0
O  O34  1  0.17997251  0.50579128  0.54399530  1  0  -0.653695  0  1.988  0  0  -0.60954  0  2.218309  0  0  -0.639383  0  2.204634  0  0  -0.388469  -0.594286  0  2.225691  0
O  O35  1  0.32001498  0.00579678  0.95601188  1  0  -0.654017  0  1.987171  0  0  -0.609894  0  2.217461  0  0  -0.63974  0  2.203787  0  0  -0.388623  -0.594623  0  2.224838  0
O  O36  1  0.96524584  0.39620434  0.37865007  1  0  -0.662993  0  1.996048  0  0  -0.615233  0  2.226569  0  0  -0.644719  0  2.211851  0  0  -0.387296  -0.599781  0  2.234863  0
O  O37  1  0.53474685  0.89621933  0.12135169  1  0  -0.662831  0  1.996722  0  0  -0.615094  0  2.227209  0  0  -0.644567  0  2.212479  0  0  -0.387292  -0.599654  0  2.235505  0
O  O38  1  0.03478074  0.60378976  0.62136730  1  0  -0.662837  0  1.996095  0  0  -0.615032  0  2.226632  0  0  -0.64453  0  2.211924  0  0  -0.387175  -0.599581  0  2.234925  0
O  O39  1  0.46521531  0.10378699  0.87864064  1  0  -0.662826  0  1.996767  0  0  -0.615055  0  2.2273  0  0  -0.644531  0  2.21258  0  0  -0.387178  -0.599608  0  2.2356  0
O  O40  1  0.63011756  0.45281165  0.62894250  1  0  -0.644688  0  2.049836  0  0  -0.593845  0  2.286721  0  0  -0.625129  0  2.275913  0  0  -0.361581  -0.576865  0  2.292446  0
O  O41  1  0.86987117  0.95282479  0.87104577  1  0  -0.645046  0  2.049402  0  0  -0.594221  0  2.286265  0  0  -0.625514  0  2.275445  0  0  -0.361755  -0.57724  0  2.291992  0
O  O42  1  0.36990506  0.54717022  0.37104801  1  0  -0.644904  0  2.049013  0  0  -0.594027  0  2.286012  0  0  -0.625311  0  2.275181  0  0  -0.361681  -0.577035  0  2.291732  0
O  O43  1  0.13009106  0.04718999  0.12893816  1  0  -0.644908  0  2.049478  0  0  -0.594087  0  2.28644  0  0  -0.625368  0  2.27561  0  0  -0.361702  -0.577105  0  2.292158  0
O  O44  1  0.42618886  0.36324665  0.53641350  1  0  -0.659362  0  2.062132  0  0  -0.600803  0  2.28843  0  0  -0.632568  0  2.276756  0  0  -0.339491  -0.582991  0  2.294766  0
O  O45  1  0.07379232  0.86325723  0.96358535  1  0  -0.658963  0  2.062609  0  0  -0.600422  0  2.288858  0  0  -0.63219  0  2.277202  0  0  -0.339267  -0.582615  0  2.295196  0
O  O46  1  0.57383121  0.63674556  0.46358993  1  0  -0.659012  0  2.062952  0  0  -0.600357  0  2.289301  0  0  -0.632129  0  2.277621  0  0  -0.339194  -0.582543  0  2.295632  0
O  O47  1  0.92615194  0.13674815  0.03641588  1  0  -0.659192  0  2.062522  0  0  -0.600593  0  2.288847  0  0  -0.632374  0  2.27718  0  0  -0.33927  -0.582775  0  2.295161  0
O  O48  1  0.32995139  0.26774601  0.27889576  1  0  -0.636119  0  2.001873  0  0  -0.59566  0  2.234791  0  0  -0.624967  0  2.221948  0  0  -0.365575  -0.580364  0  2.2414  0
O  O49  1  0.17003227  0.76775332  0.22109063  1  0  -0.636039  0  2.001987  0  0  -0.595581  0  2.234839  0  0  -0.624869  0  2.221968  0  0  -0.365604  -0.580311  0  2.241468  0
O  O50  1  0.67008632  0.73225373  0.72110542  1  0  -0.636006  0  2.002505  0  0  -0.59547  0  2.235369  0  0  -0.624788  0  2.22253  0  0  -0.365519  -0.580218  0  2.242041  0
O  O51  1  0.82994059  0.23224548  0.77889046  1  0  -0.636159  0  2.001439  0  0  -0.595699  0  2.234268  0  0  -0.624998  0  2.221409  0  0  -0.365627  -0.580434  0  2.240921  0
O  O52  1  0.40309363  0.07425091  0.24752040  1  0  -0.674076  0  2.044429  0  0  -0.625188  0  2.282473  0  0  -0.655601  0  2.268949  0  0  -0.386562  -0.608777  0  2.289674  0
O  O53  1  0.09689287  0.57422482  0.25248284  1  0  -0.67383  0  2.044755  0  0  -0.624983  0  2.282781  0  0  -0.655423  0  2.269134  0  0  -0.386391  -0.60856  0  2.289964  0
O  O54  1  0.59687961  0.92578644  0.75246412  1  0  -0.674141  0  2.043909  0  0  -0.62524  0  2.282068  0  0  -0.655657  0  2.268441  0  0  -0.386533  -0.608821  0  2.289152  0
O  O55  1  0.90311844  0.42574953  0.74753139  1  0  -0.673862  0  2.045003  0  0  -0.624938  0  2.283088  0  0  -0.655401  0  2.269475  0  0  -0.386369  -0.60856  0  2.290184  0
O  O56  1  0.22172252  0.16664396  0.43646770  1  0  -0.582472  0  1.980814  0  0  -0.538752  0  2.203801  0  0  -0.56582  0  2.190607  0  0  -0.324768  -0.525606  0  2.211354  0
O  O57  1  0.27826578  0.66665658  0.06352993  1  0  -0.582623  0  1.980452  0  0  -0.538837  0  2.203608  0  0  -0.565899  0  2.190447  0  0  -0.324873  -0.525689  0  2.211137  0
O  O58  1  0.77829411  0.83335108  0.56353166  1  0  -0.582581  0  1.981126  0  0  -0.538782  0  2.204246  0  0  -0.565857  0  2.19104  0  0  -0.324728  -0.525632  0  2.211801  0
O  O59  1  0.72172752  0.33335632  0.93645621  1  0  -0.582657  0  1.981033  0  0  -0.538843  0  2.204142  0  0  -0.565913  0  2.190997  0  0  -0.324752  -0.525712  0  2.211701  0
O  O60  1  0.33156444  0.98623518  0.43870037  1  0  -0.468877  0  2.090374  0  0  -0.416301  0  2.301213  0  0  -0.437681  0  2.284923  0  0  -0.294074  -0.402023  0  2.311042  0
O  O61  1  0.16842618  0.48622151  0.06130034  1  0  -0.469074  0  2.090272  0  0  -0.416223  0  2.30113  0  0  -0.436711  0  2.287215  0  0  -0.294126  -0.402118  0  2.311004  0
O  O62  1  0.66845006  0.01378713  0.56129770  1  0  -0.468997  0  2.089883  0  0  -0.416826  0  2.299383  0  0  -0.437746  0  2.284477  0  0  -0.294094  -0.40201  0  2.310681  0
O  O63  1  0.83159287  0.51375942  0.93870288  1  0  -0.469332  0  2.090228  0  0  -0.41765  0  2.299316  0  0  -0.438109  0  2.285006  0  0  -0.294236  -0.40256  0  2.311036  0
O  O64  1  0.02636782  0.33954901  0.16471352  1  0  -0.895522  0  1.867176  0  0  -0.834279  0  2.06214  0  0  -0.860832  0  2.03003  0  0  -0.585811  -0.82013  0  2.082668  0
O  O65  1  0.47362585  0.83955844  0.33529941  1  0  -0.895539  0  1.867363  0  0  -0.834345  0  2.062331  0  0  -0.861419  0  2.030141  0  0  -0.585806  -0.820115  0  2.082872  0
O  O66  1  0.97365014  0.66044508  0.83529788  1  0  -0.895678  0  1.867546  0  0  -0.834969  0  2.062526  0  0  -0.861559  0  2.030357  0  0  -0.585908  -0.820328  0  2.083072  0
O  O67  1  0.52636989  0.16044318  0.66469984  1  0  -0.895548  0  1.867315  0  0  -0.834697  0  2.062167  0  0  -0.861459  0  2.030116  0  0  -0.585835  -0.820133  0  2.082828  0
