# generated using pymatgen
data_ZnH9C13N2O5
_symmetry_space_group_name_H-M   'P 1'
_cell_length_a   7.73954449
_cell_length_b   8.47456344
_cell_length_c   11.16845934
_cell_angle_alpha   107.57946055
_cell_angle_beta   93.91917623
_cell_angle_gamma   101.59976810
_symmetry_Int_Tables_number   1
_chemical_formula_structural   ZnH9C13N2O5
_chemical_formula_sum   'Zn2 H18 C26 N4 O10'
_cell_volume   677.49214740
_cell_formula_units_Z   2
loop_
 _symmetry_equiv_pos_site_id
 _symmetry_equiv_pos_as_xyz
  1  'x, y, z'
loop_
 _atom_site_type_symbol
 _atom_site_label
 _atom_site_symmetry_multiplicity
 _atom_site_fract_x
 _atom_site_fract_y
 _atom_site_fract_z
 _atom_site_occupancy
 _atom_site_hle17_bader_spin_density
 _atom_site_hle17_ddec_charge
 _atom_site_hle17_ddec_spin_density
 _atom_site_hle17_ddec_sum_bond_order
 _atom_site_hle17_magmom
 _atom_site_hse06_10hf_bader_spin_density
 _atom_site_hse06_10hf_ddec_charge
 _atom_site_hse06_10hf_ddec_spin_density
 _atom_site_hse06_10hf_ddec_sum_bond_order
 _atom_site_hse06_10hf_magmom
 _atom_site_hse06_bader_spin_density
 _atom_site_hse06_ddec_charge
 _atom_site_hse06_ddec_spin_density
 _atom_site_hse06_ddec_sum_bond_order
 _atom_site_hse06_magmom
 _atom_site_pbe_bader_spin_density
 _atom_site_pbe_cm5_charge
 _atom_site_pbe_ddec_charge
 _atom_site_pbe_ddec_spin_density
 _atom_site_pbe_ddec_sum_bond_order
 _atom_site_pbe_magmom
Zn  Zn0  1  0.54126845  0.91390835  0.84809471  1  0  1.05895  0  1.824937  0  0  0.877213  0  2.306387  0  0  0.925923  0  2.245494  0  0  0.699712  0.843153  0  2.348277  0
Zn  Zn1  1  0.45873135  0.08609207  0.15190613  1  0  1.058928  0  1.824965  0  0  0.877184  0  2.306407  0  0  0.925895  0  2.245515  0  0  0.699704  0.843122  0  2.348296  0
H  H2  1  0.00980823  0.81969265  0.99289000  1  0  0.111284  0  0.932248  0  0  0.121211  0  0.993651  0  0  0.124301  0  0.990565  0  0  0.110488  0.118832  0  0.996039  0
H  H3  1  0.99019774  0.18030651  0.00711175  1  0  0.111268  0  0.932301  0  0  0.121161  0  0.99375  0  0  0.124251  0  0.990665  0  0  0.110463  0.118784  0  0.996136  0
H  H4  1  0.21373621  0.66480864  0.06673086  1  0  0.138646  0  0.928698  0  0  0.148569  0  0.98369  0  0  0.15272  0  0.98267  0  0  0.111797  0.1456  0  0.984691  0
H  H5  1  0.78626619  0.33519182  0.93327280  1  0  0.138697  0  0.928701  0  0  0.148621  0  0.983695  0  0  0.152773  0  0.982674  0  0  0.111814  0.145652  0  0.984696  0
H  H6  1  0.64935022  0.69449879  0.24564158  1  0  0.10672  0  0.914258  0  0  0.117907  0  0.973815  0  0  0.121654  0  0.969122  0  0  0.133004  0.115168  0  0.977192  0
H  H7  1  0.35064699  0.30550161  0.75435823  1  0  0.106702  0  0.914212  0  0  0.117896  0  0.973764  0  0  0.121642  0  0.969071  0  0  0.132999  0.115157  0  0.977141  0
H  H8  1  0.85654109  0.77981048  0.76226257  1  0  0.103311  0  0.93596  0  0  0.11107  0  0.998074  0  0  0.113984  0  0.995156  0  0  0.124845  0.108856  0  1.000327  0
H  H9  1  0.14345770  0.22019116  0.23773491  1  0  0.103293  0  0.935896  0  0  0.111038  0  0.998035  0  0  0.113952  0  0.995118  0  0  0.124836  0.108827  0  1.00029  0
H  H10  1  0.07568577  0.82716744  0.61868458  1  0  0.121254  0  1.002256  0  0  0.129691  0  1.062905  0  0  0.133126  0  1.062138  0  0  0.10966  0.127201  0  1.063576  0
H  H11  1  0.92431211  0.17283040  0.38131380  1  0  0.121228  0  1.002297  0  0  0.129657  0  1.062943  0  0  0.133089  0  1.062181  0  0  0.109658  0.12717  0  1.063616  0
H  H12  1  0.75157488  0.12818333  0.49514913  1  0  0.13374  0  0.975367  0  0  0.142907  0  1.03572  0  0  0.146909  0  1.03343  0  0  0.114275  0.139942  0  1.037571  0
H  H13  1  0.24842455  0.87182090  0.50485254  1  0  0.133806  0  0.975275  0  0  0.142965  0  1.03564  0  0  0.146975  0  1.03335  0  0  0.114297  0.139999  0  1.037493  0
H  H14  1  0.55129875  0.07253008  0.64851626  1  0  0.087249  0  0.932575  0  0  0.096443  0  0.994609  0  0  0.098891  0  0.992514  0  0  0.122564  0.094616  0  0.996195  0
H  H15  1  0.44870456  0.92747415  0.35148469  1  0  0.087272  0  0.932524  0  0  0.096423  0  0.99461  0  0  0.098872  0  0.992513  0  0  0.122547  0.094605  0  0.996184  0
H  H16  1  0.76955294  0.61244732  0.41030862  1  0  0.107248  0  0.917362  0  0  0.123449  0  0.972672  0  0  0.124616  0  0.972847  0  0  0.120935  0.122639  0  0.972645  0
H  H17  1  0.23044526  0.38755182  0.58969186  1  0  0.107268  0  0.91739  0  0  0.123468  0  0.972703  0  0  0.124634  0  0.972877  0  0  0.120929  0.122655  0  0.972675  0
H  H18  1  0.96213059  0.52689682  0.39294845  1  0  0.123265  0  0.923701  0  0  0.134006  0  0.986382  0  0  0.137288  0  0.983253  0  0  0.124416  0.131537  0  0.988964  0
H  H19  1  0.03786791  0.47310360  0.60705233  1  0  0.123265  0  0.923697  0  0  0.134014  0  0.986373  0  0  0.137297  0  0.983241  0  0  0.124399  0.131543  0  0.988957  0
C  C20  1  0.69041445  0.86141690  0.07425138  1  0  0.681414  0  3.888725  0  0  0.631022  0  4.170938  0  0  0.668481  0  4.163028  0  0  0.219916  0.605505  0  4.175686  0
C  C21  1  0.30958603  0.13858096  0.92574802  1  0  0.681376  0  3.888663  0  0  0.630998  0  4.170867  0  0  0.668457  0  4.162958  0  0  0.21992  0.60548  0  4.175616  0
C  C22  1  0.81240928  0.76768956  0.11337740  1  0  -0.171121  0  3.818292  0  0  -0.150809  0  4.072137  0  0  -0.169867  0  4.097802  0  0  -0.03836  -0.138365  0  4.054691  0
C  C23  1  0.18759280  0.23230958  0.88662236  1  0  -0.171064  0  3.81823  0  0  -0.150761  0  4.072086  0  0  -0.169819  0  4.097753  0  0  -0.03832  -0.138317  0  4.054642  0
C  C24  1  0.97526037  0.75728514  0.06294120  1  0  0.025205  0  3.718117  0  0  -0.01108  0  3.981024  0  0  -0.00064  0  3.996421  0  0  -0.064836  -0.01761  0  3.970481  0
C  C25  1  0.02474430  0.24271403  0.93706048  1  0  0.025333  0  3.717946  0  0  -0.010933  0  3.980868  0  0  -0.000493  0  3.996265  0  0  -0.064772  -0.017464  0  3.970325  0
C  C26  1  0.08790689  0.67301960  0.10354905  1  0  -0.242564  0  3.703351  0  0  -0.258497  0  3.965582  0  0  -0.272795  0  3.985183  0  0  -0.100656  -0.249417  0  3.952531  0
C  C27  1  0.91209550  0.32698086  0.89645461  1  0  -0.242771  0  3.703257  0  0  -0.258711  0  3.965456  0  0  -0.27301  0  3.985057  0  0  -0.100731  -0.249629  0  3.952407  0
C  C28  1  0.77239383  0.69136834  0.20406407  1  0  0.11333  0  3.641817  0  0  0.055098  0  3.902944  0  0  0.070471  0  3.916266  0  0  0.06076  0.04494  0  3.89412  0
C  C29  1  0.22760597  0.30863207  0.79593677  1  0  0.11338  0  3.64173  0  0  0.055145  0  3.902854  0  0  0.070517  0  3.916177  0  0  0.060779  0.04499  0  3.894024  0
C  C30  1  0.83986572  0.85767719  0.70230724  1  0  0.141325  0  3.666324  0  0  0.11075  0  3.912413  0  0  0.118028  0  3.93014  0  0  0.056796  0.105998  0  3.900443  0
C  C31  1  0.16013438  0.14232448  0.29769210  1  0  0.141411  0  3.666172  0  0  0.110847  0  3.912271  0  0  0.118127  0  3.929995  0  0  0.056824  0.106089  0  3.900306  0
C  C32  1  0.96093433  0.88376541  0.62012341  1  0  -0.157294  0  3.684839  0  0  -0.175184  0  3.932396  0  0  -0.183517  0  3.954254  0  0  -0.078618  -0.16981  0  3.917814  0
C  C33  1  0.03906355  0.11623243  0.37987497  1  0  -0.157405  0  3.684848  0  0  -0.175251  0  3.932446  0  0  -0.183584  0  3.954299  0  0  -0.078678  -0.169883  0  3.917867  0
C  C34  1  0.78212986  0.04969227  0.55138317  1  0  -0.160196  0  3.6668  0  0  -0.180633  0  3.916603  0  0  -0.188404  0  3.937263  0  0  -0.078972  -0.175511  0  3.902684  0
C  C35  1  0.21786962  0.95030683  0.44861378  1  0  -0.16028  0  3.666806  0  0  -0.180695  0  3.916631  0  0  -0.188475  0  3.937296  0  0  -0.078977  -0.175575  0  3.902717  0
C  C36  1  0.66820324  0.01909588  0.63663286  1  0  0.142233  0  3.694065  0  0  0.109596  0  3.945609  0  0  0.116668  0  3.964461  0  0  0.052102  0.10499  0  3.932882  0
C  C37  1  0.33179495  0.98090326  0.36336762  1  0  0.142307  0  3.693933  0  0  0.109718  0  3.945471  0  0  0.11679  0  3.964325  0  0  0.052161  0.105105  0  3.932738  0
C  C38  1  0.93519669  0.98318250  0.54303514  1  0  0.092487  0  3.73561  0  0  0.100665  0  3.975557  0  0  0.104676  0  3.997056  0  0  0.011771  0.098145  0  3.960848  0
C  C39  1  0.06480279  0.01681660  0.45696180  1  0  0.092624  0  3.7355  0  0  0.100693  0  3.97555  0  0  0.104702  0  3.997053  0  0  0.011761  0.098174  0  3.960841  0
C  C40  1  0.83769358  0.53165304  0.34256352  1  0  -0.157882  0  3.640532  0  0  -0.220157  0  3.892571  0  0  -0.219744  0  3.898097  0  0  -0.05839  -0.220515  0  3.889082  0
C  C41  1  0.16230462  0.46834610  0.65743696  1  0  -0.157969  0  3.640646  0  0  -0.220246  0  3.89266  0  0  -0.219835  0  3.898188  0  0  -0.058387  -0.220599  0  3.889167  0
C  C42  1  0.04639805  0.58900485  0.19598040  1  0  0.493649  0  3.852422  0  0  0.455665  0  4.13442  0  0  0.483494  0  4.138858  0  0  0.212941  0.437297  0  4.130586  0
C  C43  1  0.95360403  0.41099428  0.80401937  1  0  0.493687  0  3.85231  0  0  0.455744  0  4.134246  0  0  0.483572  0  4.138685  0  0  0.212944  0.437375  0  4.130414  0
C  C44  1  0.71618378  0.35267922  0.29368268  1  0  0.672048  0  3.881613  0  0  0.630524  0  4.175659  0  0  0.662889  0  4.169732  0  0  0.20623  0.608575  0  4.17868  0
C  C45  1  0.28381280  0.64731862  0.70631564  1  0  0.672244  0  3.881531  0  0  0.630718  0  4.175574  0  0  0.663085  0  4.169642  0  0  0.206336  0.608768  0  4.178598  0
N  N46  1  0.88349067  0.60878241  0.24536340  1  0  -0.126527  0  3.467984  0  0  -0.036641  0  3.688321  0  0  -0.057205  0  3.711708  0  0  -0.23228  -0.022984  0  3.672193  0
N  N47  1  0.11651073  0.39121928  0.75463780  1  0  -0.126542  0  3.468026  0  0  -0.036653  0  3.688337  0  0  -0.057216  0  3.711722  0  0  -0.232291  -0.022996  0  3.67221  0
N  N48  1  0.69689729  0.92635630  0.71179488  1  0  -0.333742  0  3.329606  0  0  -0.246736  0  3.603256  0  0  -0.267025  0  3.619128  0  0  -0.330567  -0.23307  0  3.592398  0
N  N49  1  0.30310281  0.07364535  0.28820356  1  0  -0.333813  0  3.329463  0  0  -0.246818  0  3.60312  0  0  -0.267106  0  3.618989  0  0  -0.330577  -0.23315  0  3.592265  0
O  O50  1  0.72598430  0.91887114  0.98285588  1  0  -0.645068  0  2.074515  0  0  -0.573207  0  2.349988  0  0  -0.601203  0  2.332052  0  0  -0.317701  -0.553822  0  2.361723  0
O  O51  1  0.27401426  0.08112416  0.01714197  1  0  -0.645088  0  2.07451  0  0  -0.573212  0  2.349951  0  0  -0.60121  0  2.332013  0  0  -0.317738  -0.553828  0  2.361686  0
O  O52  1  0.55753145  0.88356749  0.13488136  1  0  -0.649251  0  2.075415  0  0  -0.580907  0  2.353582  0  0  -0.60856  0  2.335113  0  0  -0.319759  -0.561738  0  2.365669  0
O  O53  1  0.44246964  0.11643291  0.86511774  1  0  -0.649243  0  2.075363  0  0  -0.580921  0  2.353555  0  0  -0.60856  0  2.33506  0  0  -0.319745  -0.561751  0  2.365641  0
O  O54  1  0.63335119  0.30347098  0.17964824  1  0  -0.636933  0  1.99676  0  0  -0.565726  0  2.252035  0  0  -0.595366  0  2.238288  0  0  -0.33029  -0.544806  0  2.260555  0
O  O55  1  0.36664860  0.69652939  0.82034900  1  0  -0.637014  0  1.996785  0  0  -0.565821  0  2.252087  0  0  -0.59546  0  2.238334  0  0  -0.330372  -0.544902  0  2.260612  0
O  O56  1  0.70050759  0.26859598  0.36862494  1  0  -0.622733  0  1.942009  0  0  -0.579594  0  2.162673  0  0  -0.603237  0  2.154277  0  0  -0.325723  -0.562687  0  2.167732  0
O  O57  1  0.29948868  0.73140058  0.63137218  1  0  -0.622791  0  1.941921  0  0  -0.579652  0  2.162589  0  0  -0.603301  0  2.154195  0  0  -0.325723  -0.562743  0  2.167647  0
O  O58  1  0.13803165  0.50491234  0.23480327  1  0  -0.550071  0  1.880549  0  0  -0.516597  0  2.087005  0  0  -0.536537  0  2.081078  0  0  -0.31606  -0.502639  0  2.090596  0
O  O59  1  0.86196272  0.49508173  0.76519769  1  0  -0.550087  0  1.880444  0  0  -0.516635  0  2.086886  0  0  -0.536578  0  2.080962  0  0  -0.31606  -0.502676  0  2.090475  0
