# generated using pymatgen
data_CdH18C24(N3O2)2
_symmetry_space_group_name_H-M   'P 1'
_cell_length_a   10.19727328
_cell_length_b   11.11731057
_cell_length_c   22.44399146
_cell_angle_alpha   90.00107560
_cell_angle_beta   89.99917565
_cell_angle_gamma   103.37628686
_symmetry_Int_Tables_number   1
_chemical_formula_structural   CdH18C24(N3O2)2
_chemical_formula_sum   'Cd4 H72 C96 N24 O16'
_cell_volume   2475.36624835
_cell_formula_units_Z   4
loop_
 _symmetry_equiv_pos_site_id
 _symmetry_equiv_pos_as_xyz
  1  'x, y, z'
loop_
 _atom_site_type_symbol
 _atom_site_label
 _atom_site_symmetry_multiplicity
 _atom_site_fract_x
 _atom_site_fract_y
 _atom_site_fract_z
 _atom_site_occupancy
 _atom_site_pbe_bader_charge
 _atom_site_pbe_bader_spin_density
 _atom_site_pbe_cm5_charge
 _atom_site_pbe_ddec_charge
 _atom_site_pbe_ddec_spin_density
 _atom_site_pbe_ddec_sum_bond_order
 _atom_site_pbe_magmom
Cd  Cd0  1  0.85198346  0.18739790  0.08521153  1  1.25729  0  0.768089  0.832423  0  2.279429  0
Cd  Cd1  1  0.64800874  0.81258676  0.58521261  1  1.257179  0  0.768077  0.832375  0  2.279576  0
Cd  Cd2  1  0.14799718  0.81259886  0.91478798  1  1.257178  0  0.768097  0.832462  0  2.279373  0
Cd  Cd3  1  0.35200399  0.18740894  0.41479314  1  1.257209  0  0.768068  0.83235  0  2.279546  0
H  H4  1  0.69151317  0.08030473  0.78329906  1  0.078374  0  0.119885  0.138368  0  0.99791  0
H  H5  1  0.80849125  0.91969474  0.28329347  1  0.078321  0  0.119906  0.138372  0  0.998025  0
H  H6  1  0.30847133  0.91969942  0.21670134  1  0.078369  0  0.119877  0.138305  0  0.998076  0
H  H7  1  0.19154151  0.08030643  0.71670470  1  0.078495  0  0.119881  0.138365  0  0.998126  0
H  H8  1  0.92977086  0.39952405  0.87432368  1  0.101502  0  0.123098  0.141711  0  1.005393  0
H  H9  1  0.57023098  0.60047657  0.37431936  1  0.101634  0  0.123076  0.141576  0  1.005483  0
H  H10  1  0.07022204  0.60047080  0.12567895  1  0.101584  0  0.123047  0.141558  0  1.005404  0
H  H11  1  0.42977872  0.39953024  0.62567837  1  0.100852  0  0.123084  0.141687  0  1.005312  0
H  H12  1  0.89725081  0.39949223  0.68269388  1  0.124533  0  0.115162  0.135651  0  1.029827  0
H  H13  1  0.60273019  0.60051049  0.18268979  1  0.124323  0  0.115129  0.135687  0  1.029745  0
H  H14  1  0.10274696  0.60050630  0.31730697  1  0.124499  0  0.115152  0.13562  0  1.029836  0
H  H15  1  0.39726767  0.39950748  0.81730749  1  0.124345  0  0.115197  0.135734  0  1.029702  0
H  H16  1  0.92880223  0.28191812  0.94906341  1  0.180772  0  0.14009  0.112926  0  1.002069  0
H  H17  1  0.57119494  0.71808499  0.44906374  1  0.180806  0  0.140099  0.112948  0  1.002046  0
H  H18  1  0.07118598  0.71808138  0.05093655  1  0.180734  0  0.14006  0.112891  0  1.001999  0
H  H19  1  0.42882468  0.28190697  0.55094201  1  0.180931  0  0.140048  0.112899  0  1.002019  0
H  H20  1  0.61408181  0.97542879  0.98904094  1  0.132681  0  0.125964  0.119677  0  0.989052  0
H  H21  1  0.88592508  0.02455986  0.48904970  1  0.132463  0  0.125945  0.119636  0  0.989025  0
H  H22  1  0.38591822  0.02456326  0.01095635  1  0.132526  0  0.125937  0.119643  0  0.989093  0
H  H23  1  0.11407711  0.97543681  0.51096540  1  0.132408  0  0.125985  0.119678  0  0.989147  0
H  H24  1  0.59836840  0.02290331  0.86987105  1  0.161475  0  0.126009  0.132527  0  1.015138  0
H  H25  1  0.90164652  0.97709804  0.36987741  1  0.161291  0  0.126053  0.132605  0  1.015077  0
H  H26  1  0.40162299  0.97709710  0.13012757  1  0.16161  0  0.126061  0.132692  0  1.015007  0
H  H27  1  0.09837239  0.02292170  0.63013324  1  0.161079  0  0.12601  0.132703  0  1.015182  0
H  H28  1  0.93938115  0.59769722  0.86109474  1  0.177275  0  0.130453  0.094405  0  1.067317  0
H  H29  1  0.56059986  0.40231231  0.36109489  1  0.177514  0  0.130488  0.094535  0  1.067327  0
H  H30  1  0.06059180  0.40231160  0.13889942  1  0.177669  0  0.130475  0.09448  0  1.067248  0
H  H31  1  0.43940981  0.59769821  0.63891041  1  0.177391  0  0.130483  0.094494  0  1.067347  0
H  H32  1  0.23454615  0.77405340  0.73852208  1  0.071789  0  0.119431  0.115586  0  0.986514  0
H  H33  1  0.26546230  0.22594948  0.23851613  1  0.071813  0  0.1194  0.115581  0  0.98647  0
H  H34  1  0.76545231  0.22595162  0.26148055  1  0.071845  0  0.119447  0.115685  0  0.986376  0
H  H35  1  0.73456059  0.77406283  0.76148472  1  0.071388  0  0.119432  0.115611  0  0.986321  0
H  H36  1  0.11974843  0.54012416  0.69623032  1  0.130669  0  0.118668  0.119139  0  1.038047  0
H  H37  1  0.38024235  0.45988111  0.19623024  1  0.130626  0  0.118629  0.119058  0  1.038045  0
H  H38  1  0.88026157  0.45987618  0.30377676  1  0.130703  0  0.118601  0.119022  0  1.038091  0
H  H39  1  0.61975212  0.54013133  0.80377684  1  0.130754  0  0.118627  0.119059  0  1.038029  0
H  H40  1  0.78218160  0.99163690  0.69544607  1  0.161156  0  0.143271  0.112118  0  0.985026  0
H  H41  1  0.71781537  0.00835322  0.19543708  1  0.161545  0  0.143261  0.112143  0  0.984978  0
H  H42  1  0.21782321  0.00836994  0.30455923  1  0.161267  0  0.143319  0.112148  0  0.985038  0
H  H43  1  0.28219587  0.99164433  0.80456600  1  0.161595  0  0.143241  0.112107  0  0.985002  0
H  H44  1  0.60534911  0.11094823  0.54348653  1  0.152478  0  0.127975  0.131143  0  0.991615  0
H  H45  1  0.89465447  0.88901834  0.04347920  1  0.15237  0  0.127967  0.131012  0  0.991596  0
H  H46  1  0.39465578  0.88904750  0.45651521  1  0.152415  0  0.127938  0.131089  0  0.991709  0
H  H47  1  0.10534701  0.11097555  0.95651942  1  0.152431  0  0.12797  0.131071  0  0.991572  0
H  H48  1  0.67528577  0.30872199  0.62342175  1  0.124471  0  0.128506  0.132586  0  1.000042  0
H  H49  1  0.82472323  0.69125645  0.12342284  1  0.124076  0  0.128512  0.132582  0  0.99996  0
H  H50  1  0.32471788  0.69127652  0.37657732  1  0.124502  0  0.12848  0.132539  0  1.000095  0
H  H51  1  0.17528727  0.30874203  0.87658157  1  0.124233  0  0.128484  0.132575  0  0.999911  0
H  H52  1  0.46724742  0.72362621  0.10712181  1  0.011352  0  0.077887  0.108383  0  1.025281  0
H  H53  1  0.03272776  0.27634934  0.60710887  1  0.011434  0  0.077873  0.108442  0  1.025239  0
H  H54  1  0.53274690  0.27637419  0.89288439  1  0.011431  0  0.077902  0.108377  0  1.025115  0
H  H55  1  0.96724931  0.72363355  0.39287504  1  0.011213  0  0.077907  0.108412  0  1.025105  0
H  H56  1  0.39774988  0.70772497  0.03434391  1  0.023086  0  0.090435  0.133696  0  1.023914  0
H  H57  1  0.10224089  0.29225645  0.53433200  1  0.023492  0  0.090429  0.133635  0  1.023776  0
H  H58  1  0.60224682  0.29228468  0.96566273  1  0.023309  0  0.090392  0.133679  0  1.023821  0
H  H59  1  0.89774767  0.70772917  0.46565548  1  0.023011  0  0.090446  0.133768  0  1.023793  0
H  H60  1  0.57179411  0.71317289  0.04526254  1  0.040604  0  0.086508  0.1246  0  1.025581  0
H  H61  1  0.92818758  0.28680031  0.54524711  1  0.039969  0  0.086536  0.124667  0  1.025477  0
H  H62  1  0.42819683  0.28682197  0.95474543  1  0.040247  0  0.08655  0.124593  0  1.025424  0
H  H63  1  0.07179923  0.71318995  0.45473547  1  0.040472  0  0.086543  0.124681  0  1.025513  0
H  H64  1  0.35196543  0.18197428  0.09357351  1  0.091787  0  0.097933  0.09979  0  1.060036  0
H  H65  1  0.14802714  0.81801000  0.59356930  1  0.092035  0  0.097977  0.099806  0  1.060018  0
H  H66  1  0.64803035  0.81802796  0.90642422  1  0.091865  0  0.097916  0.099758  0  1.060043  0
H  H67  1  0.85198390  0.18198292  0.40642754  1  0.091834  0  0.097934  0.099746  0  1.06017  0
H  H68  1  0.64531925  0.52710492  0.08231991  1  0.084208  0  0.09603  0.098524  0  1.032878  0
H  H69  1  0.85466144  0.47288802  0.58229689  1  0.083892  0  0.095969  0.098457  0  1.032912  0
H  H70  1  0.35466763  0.47290847  0.91768361  1  0.084063  0  0.095954  0.098508  0  1.032848  0
H  H71  1  0.14533366  0.52710775  0.41768213  1  0.083915  0  0.096011  0.098662  0  1.032788  0
H  H72  1  0.22555211  0.51389667  0.05022221  1  0.08832  0  0.09905  0.109932  0  1.02152  0
H  H73  1  0.27443245  0.48608159  0.55021498  1  0.089041  0  0.099048  0.109887  0  1.021537  0
H  H74  1  0.77443293  0.48610192  0.94978131  1  0.088563  0  0.099059  0.109899  0  1.021606  0
H  H75  1  0.72556315  0.51391233  0.44977383  1  0.088596  0  0.099058  0.109933  0  1.021452  0
C  C76  1  0.75644869  0.17291156  0.78265055  1  0.079536  0  -0.093467  -0.27375  0  3.935365  0
C  C77  1  0.74355525  0.82708974  0.28264854  1  0.079113  0  -0.093433  -0.273674  0  3.935386  0
C  C78  1  0.24354290  0.82709348  0.21734985  1  0.079073  0  -0.093431  -0.273613  0  3.935337  0
C  C79  1  0.25646526  0.17291333  0.71735365  1  0.079275  0  -0.093354  -0.273616  0  3.935429  0
C  C80  1  0.80705193  0.23245300  0.83544653  1  0.27281  0  0.109623  0.223453  0  4.035682  0
C  C81  1  0.69295668  0.76754632  0.33544563  1  0.272355  0  0.109485  0.223307  0  4.035797  0
C  C82  1  0.19294313  0.76754648  0.16455387  1  0.272723  0  0.109596  0.223318  0  4.03596  0
C  C83  1  0.30706379  0.23246045  0.66455744  1  0.273269  0  0.109571  0.223427  0  4.035725  0
C  C84  1  0.88989691  0.35183240  0.83357059  1  0.085933  0  -0.089908  -0.280538  0  3.934752  0
C  C85  1  0.61011122  0.64817240  0.33356912  1  0.085929  0  -0.089788  -0.280165  0  3.934649  0
C  C86  1  0.11010573  0.64816981  0.16642937  1  0.085886  0  -0.089857  -0.280254  0  3.934403  0
C  C87  1  0.38990504  0.35184086  0.66643440  1  0.086125  0  -0.089948  -0.28064  0  3.934867  0
C  C88  1  0.92152658  0.41105563  0.77864514  1  0.346535  0  0.107697  0.218218  0  4.04043  0
C  C89  1  0.57846935  0.58894835  0.27864378  1  0.346604  0  0.10768  0.218085  0  4.040524  0
C  C90  1  0.07847508  0.58894659  0.22135838  1  0.346561  0  0.107662  0.218219  0  4.040334  0
C  C91  1  0.42154006  0.41106495  0.72135840  1  0.346625  0  0.107701  0.21825  0  4.040593  0
C  C92  1  0.87234691  0.35298160  0.72534302  1  -0.011695  0  -0.091992  -0.263178  0  3.922763  0
C  C93  1  0.62764215  0.64702342  0.22534009  1  -0.011687  0  -0.091856  -0.263028  0  3.922703  0
C  C94  1  0.12765326  0.64702248  0.27465827  1  -0.011704  0  -0.091936  -0.263057  0  3.922997  0
C  C95  1  0.37235942  0.35298991  0.77466164  1  -0.011716  0  -0.091971  -0.26304  0  3.922548  0
C  C96  1  0.79042675  0.23393053  0.72843844  1  0.301915  0  0.101059  0.206442  0  4.058763  0
C  C97  1  0.70957115  0.76606345  0.22843475  1  0.302395  0  0.100917  0.206108  0  4.058969  0
C  C98  1  0.20956859  0.76606617  0.27156419  1  0.302491  0  0.101037  0.206356  0  4.058756  0
C  C99  1  0.29044467  0.23394426  0.77156655  1  0.302269  0  0.100885  0.206213  0  4.059003  0
C  C100  1  0.84145480  0.20583865  0.94345204  1  0.9506  0  0.149726  0.100688  0  3.906483  0
C  C101  1  0.65854638  0.79416796  0.44345206  1  0.950762  0  0.14973  0.100672  0  3.906463  0
C  C102  1  0.15854493  0.79415988  0.05654658  1  0.950674  0  0.149806  0.100846  0  3.906554  0
C  C103  1  0.34146068  0.20583238  0.55655057  1  0.950557  0  0.149743  0.100829  0  3.906186  0
C  C104  1  0.67793603  0.04709840  0.96247297  1  0.467587  0  0.01637  0.004034  0  3.966833  0
C  C105  1  0.82205667  0.95290424  0.46247517  1  0.467848  0  0.016417  0.004089  0  3.966979  0
C  C106  1  0.32205907  0.95289737  0.03752610  1  0.467947  0  0.016377  0.004087  0  3.967047  0
C  C107  1  0.17793300  0.04709710  0.53752925  1  0.468066  0  0.016268  0.003946  0  3.966662  0
C  C108  1  0.66983668  0.06995457  0.90279165  1  0.218732  0  0.008749  -0.093342  0  3.880604  0
C  C109  1  0.83016569  0.93005162  0.40279536  1  0.219083  0  0.008706  -0.093324  0  3.880517  0
C  C110  1  0.33015373  0.93004585  0.09720653  1  0.218727  0  0.008617  -0.093613  0  3.880747  0
C  C111  1  0.16983642  0.06995615  0.59721440  1  0.218837  0  0.008712  -0.093597  0  3.880634  0
C  C112  1  0.00339454  0.61726916  0.82206920  1  0.951053  0  0.136838  0.104526  0  3.917011  0
C  C113  1  0.49659526  0.38274396  0.32207076  1  0.9504  0  0.136941  0.104513  0  3.916685  0
C  C114  1  0.99658575  0.38274148  0.17792809  1  0.950366  0  0.137054  0.104779  0  3.916746  0
C  C115  1  0.50341023  0.61726936  0.67793232  1  0.951203  0  0.136951  0.104729  0  3.916919  0
C  C116  1  0.15469021  0.70355771  0.75815533  1  0.432845  0  0.000791  -0.014258  0  3.999659  0
C  C117  1  0.34530971  0.29644493  0.25815129  1  0.432683  0  0.0008  -0.014266  0  3.999627  0
C  C118  1  0.84530700  0.29645009  0.24184685  1  0.433209  0  0.000698  -0.014562  0  3.999565  0
C  C119  1  0.65470709  0.70356278  0.74184777  1  0.433421  0  0.000748  -0.014343  0  3.99941  0
C  C120  1  0.10008945  0.58732846  0.73634245  1  0.287345  0  -0.002724  -0.104169  0  3.903079  0
C  C121  1  0.39990875  0.41267624  0.23633958  1  0.287393  0  -0.002706  -0.104113  0  3.902944  0
C  C122  1  0.89991637  0.41267467  0.26366196  1  0.287209  0  -0.002641  -0.103858  0  3.90287  0
C  C123  1  0.60009436  0.58732783  0.76366127  1  0.287512  0  -0.002798  -0.104169  0  3.902774  0
C  C124  1  0.74092851  0.04889789  0.66493211  1  0.968246  0  0.148578  0.097149  0  3.915887  0
C  C125  1  0.75907534  0.95108472  0.16492000  1  0.968069  0  0.148642  0.096978  0  3.91645  0
C  C126  1  0.25907903  0.95110431  0.33507186  1  0.967798  0  0.148617  0.097135  0  3.91622  0
C  C127  1  0.24093617  0.04891006  0.83507728  1  0.968099  0  0.148737  0.097158  0  3.916239  0
C  C128  1  0.65217841  0.11592818  0.58712926  1  0.442063  0  0.014144  -0.004207  0  3.947737  0
C  C129  1  0.84782169  0.88404170  0.08712397  1  0.441926  0  0.014094  -0.004221  0  3.947783  0
C  C130  1  0.34781989  0.88406480  0.41287337  1  0.441931  0  0.014082  -0.004285  0  3.947973  0
C  C131  1  0.15218516  0.11595402  0.91287599  1  0.441391  0  0.014152  -0.004242  0  3.947687  0
C  C132  1  0.68607714  0.21415043  0.62577202  1  0.253561  0  0.002009  -0.109653  0  3.902265  0
C  C133  1  0.81392738  0.78582995  0.12576782  1  0.253543  0  0.002053  -0.109634  0  3.902331  0
C  C134  1  0.31391819  0.78584626  0.37423061  1  0.253653  0  0.00205  -0.109603  0  3.902291  0
C  C135  1  0.18609022  0.21416942  0.87423347  1  0.253529  0  0.001943  -0.109679  0  3.90209  0
C  C136  1  0.13170554  0.26743560  0.06650057  1  1.534173  0  0.175319  0.534452  0  4.277604  0
C  C137  1  0.36829214  0.73253852  0.56649545  1  1.533843  0  0.175482  0.534969  0  4.276991  0
C  C138  1  0.86828537  0.73256297  0.93349850  1  1.534967  0  0.175516  0.534904  0  4.27723  0
C  C139  1  0.63171626  0.26744794  0.43349648  1  1.534654  0  0.175473  0.53498  0  4.277227  0
C  C140  1  0.62288401  0.28318581  0.09692232  1  1.559523  0  0.179593  0.555277  0  4.244712  0
C  C141  1  0.87710818  0.71679645  0.59691878  1  1.558781  0  0.179613  0.555221  0  4.244667  0
C  C142  1  0.37711079  0.71681644  0.90307452  1  1.559519  0  0.179494  0.555026  0  4.245169  0
C  C143  1  0.12289650  0.28319465  0.40307939  1  1.559177  0  0.179603  0.555253  0  4.244647  0
C  C144  1  0.47045893  0.67822711  0.06366051  1  -0.033004  0  -0.247818  -0.415754  0  3.965637  0
C  C145  1  0.02952526  0.32175900  0.56364936  1  -0.032598  0  -0.247878  -0.41592  0  3.965515  0
C  C146  1  0.52953534  0.32178069  0.93634791  1  -0.032832  0  -0.247847  -0.415734  0  3.965313  0
C  C147  1  0.97046399  0.67823309  0.43633902  1  -0.032593  0  -0.24792  -0.416064  0  3.965575  0
C  C148  1  0.27472568  0.34103673  0.07181767  1  -0.037855  0  -0.027938  -0.035429  0  4.010744  0
C  C149  1  0.22526452  0.65893944  0.57181326  1  -0.038758  0  -0.028009  -0.035651  0  4.010505  0
C  C150  1  0.72525766  0.65895909  0.92818317  1  -0.038122  0  -0.027979  -0.035582  0  4.010782  0
C  C151  1  0.77474212  0.34105165  0.42818046  1  -0.038017  0  -0.027999  -0.035595  0  4.010384  0
C  C152  1  0.37689028  0.28148391  0.08665266  1  -0.01304  0  -0.085624  -0.12395  0  3.959639  0
C  C153  1  0.12309931  0.71849553  0.58664635  1  -0.013008  0  -0.085655  -0.123894  0  3.959654  0
C  C154  1  0.62309449  0.71851746  0.91334730  1  -0.012833  0  -0.085593  -0.123896  0  3.959636  0
C  C155  1  0.87691078  0.28149370  0.41334737  1  -0.012673  0  -0.085723  -0.124049  0  3.959988  0
C  C156  1  0.51040158  0.34883464  0.09006369  1  -0.064398  0  -0.021624  -0.021675  0  3.992149  0
C  C157  1  0.98958293  0.65114743  0.59005213  1  -0.063541  0  -0.021555  -0.021732  0  3.992595  0
C  C158  1  0.48958051  0.65116396  0.90994027  1  -0.064447  0  -0.021592  -0.021667  0  3.992296  0
C  C159  1  0.01042273  0.34884367  0.40993803  1  -0.064368  0  -0.021588  -0.021584  0  3.992278  0
C  C160  1  0.53974443  0.47729353  0.08191145  1  -0.087964  0  -0.091709  -0.167784  0  3.941795  0
C  C161  1  0.96023561  0.52268922  0.58189577  1  -0.088003  0  -0.091695  -0.1676  0  3.941979  0
C  C162  1  0.46024057  0.52270877  0.91809251  1  -0.088183  0  -0.091665  -0.167711  0  3.941798  0
C  C163  1  0.03976320  0.47730190  0.41808859  1  -0.087807  0  -0.091725  -0.16802  0  3.941814  0
C  C164  1  0.43812536  0.53992257  0.07023813  1  -0.014195  0  -0.015697  0.161505  0  3.995756  0
C  C165  1  0.06185799  0.46005728  0.57022760  1  -0.014367  0  -0.015627  0.161483  0  3.995751  0
C  C166  1  0.56185917  0.46007787  0.92976628  1  -0.01428  0  -0.015715  0.161449  0  3.995868  0
C  C167  1  0.93814376  0.53993383  0.42975944  1  -0.014249  0  -0.015656  0.161694  0  3.995622  0
C  C168  1  0.30591706  0.46966724  0.06362711  1  -0.024098  0  -0.091236  -0.165674  0  3.928046  0
C  C169  1  0.19406599  0.53030685  0.56361993  1  -0.024616  0  -0.091234  -0.16553  0  3.928108  0
C  C170  1  0.69406699  0.53033136  0.93637641  1  -0.024031  0  -0.091255  -0.165613  0  3.928506  0
C  C171  1  0.80593210  0.46968150  0.43637067  1  -0.02456  0  -0.091167  -0.165574  0  3.927888  0
N  N172  1  0.78512871  0.13181843  0.98691518  1  -1.200465  0  -0.34408  -0.275465  0  3.498623  0
N  N173  1  0.71486319  0.86818409  0.48691463  1  -1.20064  0  -0.344092  -0.275454  0  3.498703  0
N  N174  1  0.21486885  0.86817547  0.01308477  1  -1.20068  0  -0.344143  -0.275547  0  3.498757  0
N  N175  1  0.28513239  0.13181353  0.51308934  1  -1.20053  0  -0.343984  -0.275291  0  3.498334  0
N  N176  1  0.77485404  0.17204932  0.89070435  1  -1.252131  0  -0.224019  -0.004117  0  3.779359  0
N  N177  1  0.72514911  0.82795462  0.39070469  1  -1.251853  0  -0.224021  -0.004229  0  3.779257  0
N  N178  1  0.22513930  0.82795109  0.10929516  1  -1.252217  0  -0.223956  -0.004141  0  3.779541  0
N  N179  1  0.27485988  0.17204942  0.60929927  1  -1.25239  0  -0.22393  -0.004223  0  3.779251  0
N  N180  1  0.09294239  0.72152135  0.81144739  1  -1.19845  0  -0.344688  -0.304316  0  3.410349  0
N  N181  1  0.40704673  0.27848402  0.31144456  1  -1.198389  0  -0.344771  -0.304381  0  3.410191  0
N  N182  1  0.90703888  0.27848929  0.18855034  1  -1.198869  0  -0.344822  -0.304391  0  3.410236  0
N  N183  1  0.59296615  0.72152371  0.68855673  1  -1.199068  0  -0.344773  -0.30442  0  3.410612  0
N  N184  1  0.00378792  0.53220573  0.77805836  1  -1.255098  0  -0.230917  -0.002201  0  3.787964  0
N  N185  1  0.49620242  0.46780409  0.27805714  1  -1.25468  0  -0.230958  -0.002202  0  3.788093  0
N  N186  1  0.99620834  0.46779837  0.22194294  1  -1.254733  0  -0.230928  -0.002466  0  3.788278  0
N  N187  1  0.50379719  0.53220925  0.72194593  1  -1.255254  0  -0.230777  -0.002205  0  3.788162  0
N  N188  1  0.68787430  0.01474858  0.61225433  1  -1.195553  0  -0.345241  -0.255177  0  3.539583  0
N  N189  1  0.81212249  0.98522676  0.11224620  1  -1.195036  0  -0.345217  -0.254982  0  3.539746  0
N  N190  1  0.31212934  0.98524993  0.38774919  1  -1.195066  0  -0.345196  -0.255043  0  3.539624  0
N  N191  1  0.18788071  0.01476619  0.88775197  1  -1.195259  0  -0.345243  -0.255017  0  3.539735  0
N  N192  1  0.74164753  0.16999023  0.67542456  1  -1.255748  0  -0.229501  -0.00026  0  3.813282  0
N  N193  1  0.75835332  0.83000106  0.17541891  1  -1.255825  0  -0.229559  -8.8e-05  0  3.813073  0
N  N194  1  0.25834971  0.83001386  0.32457718  1  -1.25586  0  -0.229553  -0.000258  0  3.813197  0
N  N195  1  0.24166378  0.17000017  0.82458149  1  -1.255153  0  -0.229484  -0.000237  0  3.813022  0
O  O196  1  0.10183542  0.15547872  0.08239527  1  -1.17758  0  -0.347953  -0.56451  0  2.112122  0
O  O197  1  0.39816257  0.84450240  0.58238521  1  -1.177222  0  -0.347975  -0.56477  0  2.111778  0
O  O198  1  0.89815329  0.84451893  0.91760424  1  -1.177624  0  -0.347883  -0.56458  0  2.112255  0
O  O199  1  0.60185164  0.15549144  0.41759916  1  -1.177672  0  -0.347928  -0.564693  0  2.112087  0
O  O200  1  0.04362391  0.32636877  0.04859478  1  -1.17813  0  -0.352566  -0.571265  0  2.186618  0
O  O201  1  0.45637374  0.67359920  0.54859656  1  -1.177984  0  -0.352684  -0.571373  0  2.186674  0
O  O202  1  0.95636317  0.67361870  0.95140429  1  -1.178532  0  -0.352744  -0.57148  0  2.186368  0
O  O203  1  0.54363637  0.32638632  0.45140340  1  -1.17819  0  -0.352671  -0.571435  0  2.186654  0
O  O204  1  0.59746542  0.17088677  0.11333072  1  -1.193659  0  -0.355893  -0.589382  0  2.104596  0
O  O205  1  0.90253125  0.82909972  0.61332762  1  -1.193235  0  -0.355962  -0.58938  0  2.104398  0
O  O206  1  0.40252985  0.82911733  0.88667369  1  -1.19385  0  -0.35582  -0.589259  0  2.104828  0
O  O207  1  0.09748100  0.17089413  0.38666833  1  -1.193473  0  -0.355895  -0.589352  0  2.104495  0
O  O208  1  0.74094650  0.34553226  0.08247604  1  -1.153209  0  -0.350335  -0.558892  0  2.189521  0
O  O209  1  0.75904374  0.65445972  0.58247403  1  -1.153166  0  -0.350315  -0.558871  0  2.189668  0
O  O210  1  0.25904192  0.65447187  0.91751546  1  -1.153177  0  -0.350354  -0.558858  0  2.18961  0
O  O211  1  0.24095655  0.34552955  0.41753305  1  -1.153209  0  -0.350281  -0.558857  0  2.189547  0
