# generated using pymatgen
data_CdH7C8NO5
_symmetry_space_group_name_H-M   'P 1'
_cell_length_a   8.35232933
_cell_length_b   8.41701126
_cell_length_c   12.54748749
_cell_angle_alpha   89.99993913
_cell_angle_beta   90.00020959
_cell_angle_gamma   107.33420437
_symmetry_Int_Tables_number   1
_chemical_formula_structural   CdH7C8NO5
_chemical_formula_sum   'Cd4 H28 C32 N4 O20'
_cell_volume   842.04641641
_cell_formula_units_Z   4
loop_
 _symmetry_equiv_pos_site_id
 _symmetry_equiv_pos_as_xyz
  1  'x, y, z'
loop_
 _atom_site_type_symbol
 _atom_site_label
 _atom_site_symmetry_multiplicity
 _atom_site_fract_x
 _atom_site_fract_y
 _atom_site_fract_z
 _atom_site_occupancy
 _atom_site_hle17_bader_spin_density
 _atom_site_hle17_ddec_charge
 _atom_site_hle17_ddec_spin_density
 _atom_site_hle17_ddec_sum_bond_order
 _atom_site_hle17_magmom
 _atom_site_hse06_10hf_bader_spin_density
 _atom_site_hse06_10hf_ddec_charge
 _atom_site_hse06_10hf_ddec_spin_density
 _atom_site_hse06_10hf_ddec_sum_bond_order
 _atom_site_hse06_10hf_magmom
 _atom_site_hse06_bader_spin_density
 _atom_site_hse06_ddec_charge
 _atom_site_hse06_ddec_spin_density
 _atom_site_hse06_ddec_sum_bond_order
 _atom_site_hse06_magmom
 _atom_site_pbe_bader_spin_density
 _atom_site_pbe_cm5_charge
 _atom_site_pbe_ddec_charge
 _atom_site_pbe_ddec_spin_density
 _atom_site_pbe_ddec_sum_bond_order
 _atom_site_pbe_magmom
Cd  Cd0  1  0.51502476  0.79603221  0.42936597  1  0  1.21744  0  1.55338  0  0  1.040955  0  1.985468  0  0  1.097957  0  1.930543  0  0  0.774506  1.000274  0  2.023136  0
Cd  Cd1  1  0.48497390  0.70396589  0.92936647  1  0  1.217403  0  1.55343  0  0  1.040905  0  1.985536  0  0  1.097908  0  1.930614  0  0  0.774484  1.000221  0  2.023198  0
Cd  Cd2  1  0.48497350  0.20396624  0.57063268  1  0  1.217424  0  1.553392  0  0  1.040933  0  1.985488  0  0  1.097937  0  1.930564  0  0  0.774491  1.000252  0  2.02314  0
Cd  Cd3  1  0.51502474  0.29603380  0.07063378  1  0  1.217433  0  1.553415  0  0  1.040953  0  1.985497  0  0  1.097953  0  1.930575  0  0  0.774504  1.000274  0  2.023147  0
H  H4  1  0.03313668  0.62003888  0.43345313  1  0  0.111487  0  0.941974  0  0  0.123711  0  1.001565  0  0  0.127249  0  0.999876  0  0  0.106581  0.121125  0  1.003003  0
H  H5  1  0.96686325  0.87995549  0.93345067  1  0  0.111465  0  0.941895  0  0  0.123666  0  1.001517  0  0  0.127204  0  0.999826  0  0  0.106567  0.121081  0  1.00295  0
H  H6  1  0.96686472  0.37996206  0.56654951  1  0  0.111392  0  0.941929  0  0  0.123634  0  1.001514  0  0  0.127171  0  0.999824  0  0  0.106551  0.121047  0  1.002953  0
H  H7  1  0.03314249  0.12004792  0.06654559  1  0  0.111513  0  0.941975  0  0  0.123728  0  1.001571  0  0  0.127264  0  0.999885  0  0  0.106608  0.121163  0  1.002979  0
H  H8  1  0.07990603  0.61375186  0.04007563  1  0  0.103793  0  0.967959  0  0  0.111048  0  1.033867  0  0  0.113993  0  1.032014  0  0  0.103917  0.108914  0  1.035239  0
H  H9  1  0.92009037  0.88624995  0.54007385  1  0  0.103791  0  0.967955  0  0  0.11103  0  1.033888  0  0  0.113975  0  1.032035  0  0  0.103916  0.108897  0  1.035262  0
H  H10  1  0.92009260  0.38624783  0.95992621  1  0  0.103763  0  0.967976  0  0  0.111038  0  1.033857  0  0  0.113984  0  1.032003  0  0  0.1039  0.108906  0  1.035229  0
H  H11  1  0.07990385  0.11375101  0.45992321  1  0  0.103803  0  0.967932  0  0  0.11106  0  1.03383  0  0  0.114005  0  1.031977  0  0  0.103915  0.108927  0  1.035203  0
H  H12  1  0.84842245  0.69895555  0.12333622  1  0  0.101991  0  0.963908  0  0  0.110884  0  1.030224  0  0  0.11451  0  1.027851  0  0  0.101678  0.108264  0  1.032067  0
H  H13  1  0.15157562  0.80104627  0.62333345  1  0  0.101934  0  0.963929  0  0  0.110829  0  1.030255  0  0  0.114458  0  1.027876  0  0  0.101672  0.108207  0  1.032098  0
H  H14  1  0.15157851  0.30104788  0.87666642  1  0  0.101922  0  0.963954  0  0  0.11084  0  1.030252  0  0  0.114467  0  1.027876  0  0  0.101665  0.108219  0  1.032094  0
H  H15  1  0.84842295  0.19895716  0.37666121  1  0  0.102005  0  0.963941  0  0  0.110881  0  1.030268  0  0  0.114508  0  1.027895  0  0  0.101682  0.10826  0  1.032113  0
H  H16  1  0.25142696  0.47814475  0.43414442  1  0  0.319073  0  0.914913  0  0  0.3064  0  0.973238  0  0  0.313122  0  0.968462  0  0  0.295755  0.301579  0  0.976651  0
H  H17  1  0.74857495  0.02185282  0.93414328  1  0  0.319088  0  0.914922  0  0  0.306409  0  0.973256  0  0  0.313133  0  0.968477  0  0  0.295745  0.301588  0  0.976672  0
H  H18  1  0.74857287  0.52185494  0.56585742  1  0  0.319093  0  0.914904  0  0  0.306419  0  0.973236  0  0  0.31314  0  0.968462  0  0  0.29577  0.301599  0  0.976647  0
H  H19  1  0.25142846  0.97814686  0.06585696  1  0  0.3191  0  0.914921  0  0  0.306428  0  0.973248  0  0  0.313151  0  0.968467  0  0  0.295756  0.301608  0  0.976656  0
H  H20  1  0.36889077  0.48051034  0.32403566  1  0  0.328773  0  0.925681  0  0  0.309082  0  0.992332  0  0  0.317825  0  0.985068  0  0  0.292426  0.302827  0  0.997489  0
H  H21  1  0.63110851  0.01948848  0.82403504  1  0  0.328779  0  0.925684  0  0  0.309092  0  0.992329  0  0  0.317835  0  0.985068  0  0  0.292435  0.30283  0  0.997499  0
H  H22  1  0.63110787  0.51948936  0.67596538  1  0  0.328772  0  0.925683  0  0  0.309084  0  0.992333  0  0  0.317828  0  0.985069  0  0  0.292432  0.302826  0  0.997495  0
H  H23  1  0.36889214  0.98050997  0.17596520  1  0  0.328779  0  0.92571  0  0  0.309104  0  0.992345  0  0  0.317837  0  0.985099  0  0  0.292432  0.302842  0  0.997517  0
H  H24  1  0.38471722  0.71463139  0.65713256  1  0  0.443055  0  0.850246  0  0  0.411673  0  0.914385  0  0  0.422808  0  0.898213  0  0  0.296785  0.403779  0  0.925837  0
H  H25  1  0.61528463  0.78537042  0.15713311  1  0  0.443103  0  0.850187  0  0  0.411699  0  0.914371  0  0  0.422836  0  0.898193  0  0  0.296789  0.403799  0  0.925832  0
H  H26  1  0.61528299  0.28536955  0.34286609  1  0  0.443102  0  0.850188  0  0  0.411692  0  0.914382  0  0  0.422829  0  0.898203  0  0  0.296776  0.403793  0  0.925841  0
H  H27  1  0.38471639  0.21462927  0.84286713  1  0  0.443045  0  0.850263  0  0  0.411662  0  0.914407  0  0  0.422796  0  0.898235  0  0  0.296775  0.403765  0  0.925862  0
H  H28  1  0.36579970  0.55663655  0.58546964  1  0  0.411328  0  0.901696  0  0  0.382061  0  0.963829  0  0  0.392108  0  0.949331  0  0  0.290241  0.374962  0  0.97406  0
H  H29  1  0.63420017  0.94336401  0.08546933  1  0  0.411342  0  0.901675  0  0  0.382073  0  0.963812  0  0  0.392119  0  0.949315  0  0  0.29025  0.374979  0  0.974035  0
H  H30  1  0.63420088  0.44336563  0.41452981  1  0  0.411317  0  0.901712  0  0  0.382051  0  0.963844  0  0  0.392097  0  0.949347  0  0  0.290231  0.374951  0  0.974077  0
H  H31  1  0.36580047  0.05663443  0.91453092  1  0  0.411306  0  0.901725  0  0  0.382044  0  0.963849  0  0  0.392092  0  0.949351  0  0  0.290232  0.374946  0  0.974079  0
C  C32  1  0.92502344  0.66169080  0.28403861  1  0  -0.025763  0  3.770357  0  0  -0.007547  0  4.011947  0  0  -0.010538  0  4.03235  0  0  -0.012161  -0.005506  0  3.998142  0
C  C33  1  0.07497597  0.83830854  0.78403644  1  0  -0.025817  0  3.770483  0  0  -0.007619  0  4.012095  0  0  -0.010613  0  4.0325  0  0  -0.012176  -0.005575  0  3.998282  0
C  C34  1  0.07497834  0.33831138  0.71596402  1  0  -0.025783  0  3.770435  0  0  -0.007583  0  4.012065  0  0  -0.010576  0  4.032469  0  0  -0.012148  -0.005534  0  3.998253  0
C  C35  1  0.92502700  0.16169363  0.21595903  1  0  -0.02581  0  3.770487  0  0  -0.007599  0  4.012076  0  0  -0.010591  0  4.032479  0  0  -0.012194  -0.005556  0  3.998272  0
C  C36  1  0.04369489  0.61854195  0.34684298  1  0  -0.180914  0  3.678031  0  0  -0.21125  0  3.93353  0  0  -0.216873  0  3.953145  0  0  -0.093761  -0.207501  0  3.920386  0
C  C37  1  0.95630494  0.88145365  0.84684129  1  0  -0.180875  0  3.677985  0  0  -0.21117  0  3.933439  0  0  -0.216794  0  3.953057  0  0  -0.093736  -0.20742  0  3.920285  0
C  C38  1  0.95630651  0.38145898  0.65315886  1  0  -0.180783  0  3.677971  0  0  -0.211096  0  3.933448  0  0  -0.216723  0  3.953078  0  0  -0.093717  -0.207339  0  3.920289  0
C  C39  1  0.04369923  0.11854852  0.15315577  1  0  -0.180914  0  3.678229  0  0  -0.211241  0  3.93371  0  0  -0.216863  0  3.953329  0  0  -0.093786  -0.207517  0  3.920572  0
C  C40  1  0.17816789  0.57636689  0.30040597  1  0  0.296155  0  3.769741  0  0  0.287497  0  4.015798  0  0  0.297657  0  4.038083  0  0  0.098667  0.280607  0  4.000549  0
C  C41  1  0.82182928  0.92362871  0.80040233  1  0  0.296067  0  3.769879  0  0  0.287416  0  4.015926  0  0  0.297578  0  4.038202  0  0  0.098567  0.280526  0  4.000681  0
C  C42  1  0.82183074  0.42363280  0.69959667  1  0  0.296066  0  3.76989  0  0  0.287349  0  4.016039  0  0  0.29751  0  4.038319  0  0  0.098581  0.280456  0  4.000798  0
C  C43  1  0.17817174  0.07637097  0.19959473  1  0  0.296116  0  3.769752  0  0  0.287467  0  4.015812  0  0  0.297628  0  4.038092  0  0  0.098649  0.280578  0  4.000562  0
C  C44  1  0.18818668  0.57082274  0.18771011  1  0  -0.159664  0  3.686501  0  0  -0.141206  0  3.922629  0  0  -0.152845  0  3.944826  0  0  -0.021413  -0.133569  0  3.907753  0
C  C45  1  0.81181182  0.92917534  0.68771043  1  0  -0.159657  0  3.686723  0  0  -0.141217  0  3.922844  0  0  -0.152858  0  3.945041  0  0  -0.02139  -0.133593  0  3.907981  0
C  C46  1  0.81181315  0.42917695  0.81229093  1  0  -0.159626  0  3.686608  0  0  -0.141182  0  3.922762  0  0  -0.152822  0  3.944957  0  0  -0.021389  -0.133549  0  3.907891  0
C  C47  1  0.18818644  0.07082311  0.31228902  1  0  -0.159614  0  3.686478  0  0  -0.141174  0  3.922624  0  0  -0.152815  0  3.944821  0  0  -0.021393  -0.133542  0  3.907749  0
C  C48  1  0.06932317  0.61792622  0.12626339  1  0  -0.036649  0  3.716118  0  0  -0.062982  0  3.97466  0  0  -0.060185  0  3.992675  0  0  -0.082906  -0.064696  0  3.962523  0
C  C49  1  0.93067416  0.88207311  0.62626164  1  0  -0.036692  0  3.716207  0  0  -0.063024  0  3.974775  0  0  -0.060228  0  3.99279  0  0  -0.082923  -0.064735  0  3.96264  0
C  C50  1  0.93067704  0.38207472  0.87373925  1  0  -0.036688  0  3.716204  0  0  -0.063018  0  3.974741  0  0  -0.060221  0  3.992751  0  0  -0.082896  -0.064731  0  3.962605  0
C  C51  1  0.06932208  0.11792660  0.37373622  1  0  -0.036669  0  3.716086  0  0  -0.062994  0  3.974618  0  0  -0.060198  0  3.992634  0  0  -0.082925  -0.064709  0  3.962484  0
C  C52  1  0.94049813  0.66572888  0.17272870  1  0  -0.082179  0  3.723073  0  0  -0.113202  0  3.98541  0  0  -0.116048  0  4.004677  0  0  -0.092795  -0.111413  0  3.972544  0
C  C53  1  0.05949947  0.83427045  0.67272649  1  0  -0.082024  0  3.723055  0  0  -0.113043  0  3.985374  0  0  -0.115888  0  4.004641  0  0  -0.092747  -0.111258  0  3.972508  0
C  C54  1  0.05950126  0.33427330  0.82727394  1  0  -0.082049  0  3.723065  0  0  -0.113102  0  3.985382  0  0  -0.115948  0  4.004648  0  0  -0.092782  -0.111316  0  3.972516  0
C  C55  1  0.94049835  0.16573049  0.32727057  1  0  -0.082181  0  3.723118  0  0  -0.113177  0  3.985421  0  0  -0.116025  0  4.004689  0  0  -0.092765  -0.111391  0  3.972561  0
C  C56  1  0.78008100  0.70051359  0.33505980  1  0  0.652646  0  3.870063  0  0  0.601297  0  4.155425  0  0  0.635371  0  4.148086  0  0  0.21395  0.578218  0  4.159463  0
C  C57  1  0.21991908  0.79948699  0.83505799  1  0  0.652662  0  3.870015  0  0  0.601309  0  4.155387  0  0  0.635385  0  4.148047  0  0  0.213957  0.578232  0  4.159419  0
C  C58  1  0.21991921  0.29948735  0.66494284  1  0  0.652643  0  3.870008  0  0  0.60129  0  4.155382  0  0  0.635366  0  4.148041  0  0  0.213945  0.5782  0  4.159429  0
C  C59  1  0.78008194  0.20051270  0.16493667  1  0  0.652793  0  3.870059  0  0  0.601432  0  4.155424  0  0  0.635508  0  4.14808  0  0  0.213956  0.578348  0  4.159468  0
C  C60  1  0.31078423  0.50374926  0.13102164  1  0  0.658717  0  3.895432  0  0  0.605446  0  4.184049  0  0  0.641122  0  4.178066  0  0  0.202467  0.581205  0  4.187282  0
C  C61  1  0.68921470  0.99625131  0.63102082  1  0  0.658739  0  3.895313  0  0  0.605505  0  4.183883  0  0  0.641183  0  4.177897  0  0  0.202526  0.581272  0  4.187112  0
C  C62  1  0.68921560  0.49625043  0.86897940  1  0  0.658733  0  3.895328  0  0  0.605495  0  4.183909  0  0  0.641171  0  4.177923  0  0  0.202506  0.581252  0  4.187146  0
C  C63  1  0.31077959  0.00374591  0.36897942  1  0  0.658705  0  3.895431  0  0  0.605437  0  4.184046  0  0  0.641117  0  4.178062  0  0  0.202482  0.581203  0  4.187273  0
N  N64  1  0.30061897  0.54304301  0.36662815  1  0  -0.693433  0  3.120095  0  0  -0.640624  0  3.358417  0  0  -0.664339  0  3.355867  0  0  -0.604115  -0.623809  0  3.359828  0
N  N65  1  0.69938015  0.95695384  0.86662738  1  0  -0.693404  0  3.120011  0  0  -0.640588  0  3.358301  0  0  -0.664305  0  3.355749  0  0  -0.604076  -0.623765  0  3.359718  0
N  N66  1  0.69938167  0.45695543  0.63337369  1  0  -0.693425  0  3.12009  0  0  -0.64058  0  3.358378  0  0  -0.664294  0  3.355824  0  0  -0.604106  -0.623768  0  3.359795  0
N  N67  1  0.30062132  0.04304335  0.13337366  1  0  -0.693452  0  3.120112  0  0  -0.640667  0  3.358404  0  0  -0.664376  0  3.355874  0  0  -0.604129  -0.623847  0  3.359813  0
O  O68  1  0.73850904  0.65040920  0.43098415  1  0  -0.674739  0  2.011165  0  0  -0.600776  0  2.238167  0  0  -0.628862  0  2.228007  0  0  -0.321735  -0.581007  0  2.244479  0
O  O69  1  0.26149239  0.84959015  0.93098321  1  0  -0.674792  0  2.01114  0  0  -0.600818  0  2.238132  0  0  -0.628904  0  2.227971  0  0  -0.321751  -0.581053  0  2.244444  0
O  O70  1  0.26149199  0.34959049  0.56901769  1  0  -0.674795  0  2.011147  0  0  -0.600818  0  2.238135  0  0  -0.628903  0  2.227975  0  0  -0.321746  -0.581048  0  2.244448  0
O  O71  1  0.73850863  0.15040954  0.06901465  1  0  -0.674769  0  2.011347  0  0  -0.600786  0  2.238334  0  0  -0.628871  0  2.228173  0  0  -0.321685  -0.581022  0  2.244655  0
O  O72  1  0.69761759  0.78062076  0.28389325  1  0  -0.632499  0  2.026455  0  0  -0.563408  0  2.263478  0  0  -0.593233  0  2.255605  0  0  -0.305268  -0.542508  0  2.268205  0
O  O73  1  0.30238497  0.71938106  0.78389170  1  0  -0.63246  0  2.026458  0  0  -0.563371  0  2.263468  0  0  -0.593193  0  2.255595  0  0  -0.305256  -0.542473  0  2.26819  0
O  O74  1  0.30238224  0.21937893  0.71610939  1  0  -0.632437  0  2.026403  0  0  -0.56334  0  2.263396  0  0  -0.593162  0  2.255523  0  0  -0.305237  -0.542437  0  2.268121  0
O  O75  1  0.69761801  0.28062112  0.21610535  1  0  -0.632644  0  2.026461  0  0  -0.563547  0  2.263492  0  0  -0.593373  0  2.255615  0  0  -0.305329  -0.542642  0  2.268209  0
O  O76  1  0.30459032  0.49034596  0.02934870  1  0  -0.684684  0  2.022383  0  0  -0.616533  0  2.284213  0  0  -0.645545  0  2.271723  0  0  -0.337179  -0.596108  0  2.292086  0
O  O77  1  0.69540686  0.00965533  0.52934744  1  0  -0.684657  0  2.022288  0  0  -0.616519  0  2.284115  0  0  -0.64553  0  2.271622  0  0  -0.337171  -0.596099  0  2.291993  0
O  O78  1  0.69540749  0.50965498  0.97065235  1  0  -0.684675  0  2.022302  0  0  -0.616534  0  2.284125  0  0  -0.645545  0  2.271633  0  0  -0.337192  -0.596109  0  2.292  0
O  O79  1  0.30458579  0.99034439  0.47065280  1  0  -0.684687  0  2.022294  0  0  -0.616547  0  2.284149  0  0  -0.645562  0  2.271659  0  0  -0.337182  -0.596124  0  2.292021  0
O  O80  1  0.41583405  0.45311914  0.18586225  1  0  -0.626688  0  2.029192  0  0  -0.549547  0  2.265181  0  0  -0.579612  0  2.256804  0  0  -0.313292  -0.528712  0  2.270339  0
O  O81  1  0.58416716  0.04688464  0.68586150  1  0  -0.626702  0  2.029188  0  0  -0.549605  0  2.265201  0  0  -0.579674  0  2.256827  0  0  -0.313331  -0.528765  0  2.270352  0
O  O82  1  0.58416773  0.54688304  0.81413800  1  0  -0.626704  0  2.029224  0  0  -0.549592  0  2.265226  0  0  -0.579667  0  2.256866  0  0  -0.313293  -0.528747  0  2.270378  0
O  O83  1  0.41582870  0.95311382  0.31413954  1  0  -0.626713  0  2.029313  0  0  -0.549568  0  2.265285  0  0  -0.57963  0  2.256898  0  0  -0.313297  -0.528727  0  2.270435  0
O  O84  1  0.43259394  0.67501516  0.59354699  1  0  -0.847227  0  1.879205  0  0  -0.782946  0  2.078048  0  0  -0.805608  0  2.044396  0  0  -0.592346  -0.766891  0  2.101434  0
O  O85  1  0.56740680  0.82498415  0.09354820  1  0  -0.847279  0  1.879151  0  0  -0.782982  0  2.077994  0  0  -0.805645  0  2.044341  0  0  -0.592348  -0.766923  0  2.10138  0
O  O86  1  0.56740746  0.32498577  0.40645166  1  0  -0.847251  0  1.879173  0  0  -0.782953  0  2.078013  0  0  -0.805615  0  2.044359  0  0  -0.592321  -0.766893  0  2.101402  0
O  O87  1  0.43259265  0.17501430  0.90645364  1  0  -0.847193  0  1.879229  0  0  -0.78293  0  2.078088  0  0  -0.805591  0  2.044436  0  0  -0.592335  -0.766873  0  2.101472  0
