# generated using pymatgen
data_Zr3H8C63Br30N3O16
_symmetry_space_group_name_H-M   'P 1'
_cell_length_a   18.12664684
_cell_length_b   17.99796802
_cell_length_c   18.36396395
_cell_angle_alpha   90.49811169
_cell_angle_beta   92.24751787
_cell_angle_gamma   91.18905622
_symmetry_Int_Tables_number   1
_chemical_formula_structural   Zr3H8C63Br30N3O16
_chemical_formula_sum   'Zr6 H16 C126 Br60 N6 O32'
_cell_volume   5984.94231372
_cell_formula_units_Z   2
loop_
 _symmetry_equiv_pos_site_id
 _symmetry_equiv_pos_as_xyz
  1  'x, y, z'
loop_
 _atom_site_type_symbol
 _atom_site_label
 _atom_site_symmetry_multiplicity
 _atom_site_fract_x
 _atom_site_fract_y
 _atom_site_fract_z
 _atom_site_occupancy
 _atom_site_pbe_bader_charge
 _atom_site_pbe_bader_spin_density
 _atom_site_pbe_cm5_charge
 _atom_site_pbe_ddec_charge
 _atom_site_pbe_ddec_spin_density
 _atom_site_pbe_ddec_sum_bond_order
 _atom_site_pbe_magmom
Zr  Zr0  1  0.80613997  0.97599162  0.86337737  1  2.600282  0  1.629567  2.360087  0  2.78267  0
Zr  Zr1  1  0.76169635  0.84201747  0.99555341  1  2.632931  0  1.574848  2.346795  0  2.599729  0
Zr  Zr2  1  0.98941265  0.00168913  0.92744089  1  2.619789  0  1.596665  2.336956  0  2.74611  0
Zr  Zr3  1  0.92008242  0.82149369  0.88006735  1  2.602112  0  1.59114  2.318815  0  2.795302  0
Zr  Zr4  1  0.83483600  0.02523674  0.04311396  1  2.623687  0  1.621186  2.339511  0  2.787945  0
Zr  Zr5  1  0.94866052  0.86748317  0.06368312  1  2.633193  0  1.604196  2.376638  0  2.829241  0
H  H6  1  0.13318811  0.20165782  0.53016880  1  0.09733  0  0.104978  0.133675  0  0.989941  0
H  H7  1  0.11106333  0.20523547  0.38453546  1  0.110626  0  0.112124  0.143241  0  0.97596  0
H  H8  1  0.69272830  0.63307251  0.34535541  1  0.095697  0  0.106347  0.135693  0  0.992987  0
H  H9  1  0.69084228  0.65539325  0.49004405  1  0.104127  0  0.109846  0.141543  0  0.976008  0
H  H10  1  0.17373811  0.49044139  0.21700164  1  0.103962  0  0.104049  0.133827  0  0.988128  0
H  H11  1  0.18950887  0.34244546  0.20759208  1  0.106669  0  0.105926  0.134114  0  0.993652  0
H  H12  1  0.56120679  0.30311338  0.76070813  1  0.097978  0  0.106896  0.137657  0  0.987814  0
H  H13  1  0.57760519  0.45060115  0.74604907  1  0.109254  0  0.112305  0.143477  0  0.972922  0
H  H14  1  0.46259991  0.09733855  0.23248677  1  0.098846  0  0.102097  0.132497  0  1.002915  0
H  H15  1  0.31569762  0.08472793  0.23600766  1  0.109577  0  0.098503  0.12551  0  1.023558  0
H  H16  1  0.23879692  0.72711668  0.69970791  1  0.093831  0  0.104498  0.13234  0  1.001934  0
H  H17  1  0.38133639  0.71239984  0.74133145  1  0.099933  0  0.098574  0.128053  0  1.020652  0
H  H18  1  0.77002510  0.82074787  0.83744742  1  0.620555  0  0.29696  0.389781  0  0.943075  0
H  H19  1  0.87473906  0.11242173  0.92302205  1  0.623147  0  0.331868  0.439413  0  0.843231  0
H  H20  1  0.06119374  0.86561399  0.95526967  1  0.620974  0  0.316347  0.42207  0  0.879035  0
H  H21  1  0.82404780  0.90014828  0.13852206  1  0.607672  0  0.332134  0.432983  0  0.848798  0
C  C22  1  0.02180848  0.24574065  0.53415861  1  0.274869  0  0.045872  0.072378  0  3.919032  0
C  C23  1  0.08554296  0.22445197  0.50157343  1  -0.00434  0  -0.110489  -0.160069  0  4.033437  0
C  C24  1  0.07471949  0.22748736  0.42457341  1  -0.010856  0  -0.108918  -0.18632  0  3.987644  0
C  C25  1  0.00387290  0.25076185  0.41011775  1  0.311185  0  0.063566  0.104907  0  3.980569  0
C  C26  1  0.79078942  0.56662560  0.37036085  1  0.315149  0  0.06524  0.092924  0  3.927905  0
C  C27  1  0.72831898  0.60692083  0.38600171  1  0.009518  0  -0.106726  -0.165192  0  4.002894  0
C  C28  1  0.72694198  0.61861121  0.46154351  1  -0.025444  0  -0.112013  -0.184097  0  4.022808  0
C  C29  1  0.78855695  0.58603153  0.49302960  1  0.313887  0  0.060816  0.095414  0  3.971946  0
C  C30  1  0.20957148  0.49210388  0.10455600  1  0.32304  0  0.050009  0.079732  0  3.920265  0
C  C31  1  0.19570774  0.46083940  0.17128327  1  -0.078342  0  -0.112927  -0.168108  0  4.030243  0
C  C32  1  0.20515036  0.38268231  0.16697724  1  0.019418  0  -0.108557  -0.179527  0  3.987948  0
C  C33  1  0.22463143  0.36595195  0.09703854  1  0.303464  0  0.061695  0.101804  0  3.966636  0
C  C34  1  0.51102874  0.33027133  0.86443943  1  0.294546  0  0.065742  0.09484  0  3.928541  0
C  C35  1  0.53955401  0.34495290  0.79643909  1  0.013319  0  -0.106706  -0.167336  0  3.994567  0
C  C36  1  0.54817620  0.42228988  0.78849910  1  -0.028385  0  -0.111434  -0.182789  0  4.025332  0
C  C37  1  0.52497023  0.45574164  0.85115880  1  0.309231  0  0.057262  0.092041  0  3.972481  0
C  C38  1  0.46391424  0.00366170  0.30869344  1  0.336317  0  0.064035  0.093787  0  3.943256  0
C  C39  1  0.43233337  0.06030128  0.26730986  1  -0.010763  0  -0.110941  -0.166861  0  4.008342  0
C  C40  1  0.35541708  0.05410970  0.26908051  1  -0.020582  0  -0.115514  -0.183712  0  4.029837  0
C  C41  1  0.33813957  0.99240930  0.30982502  1  0.280407  0  0.064394  0.103844  0  3.940158  0
C  C42  1  0.27946484  0.81811246  0.63155659  1  0.328771  0  0.066316  0.095044  0  3.950992  0
C  C43  1  0.28528024  0.75661722  0.67714062  1  -0.01225  0  -0.103976  -0.158547  0  3.97528  0
C  C44  1  0.35965253  0.74867034  0.69902406  1  -0.012856  0  -0.111249  -0.175519  0  4.008367  0
C  C45  1  0.39984313  0.80499237  0.66751130  1  0.344442  0  0.062263  0.099564  0  3.96223  0
C  C46  1  0.91735392  0.08347498  0.78445023  1  1.604304  0  0.230235  0.651534  0  4.157802  0
C  C47  1  0.65651862  0.89446837  0.84591339  1  1.615602  0  0.223361  0.635262  0  4.15425  0
C  C48  1  0.87672630  0.74676995  0.75852450  1  1.548593  0  0.183781  0.559754  0  4.209153  0
C  C49  1  0.71373644  0.10472110  0.92882905  1  1.584643  0  0.226723  0.648731  0  4.108872  0
C  C50  1  0.83953075  0.74239313  0.12647635  1  1.591521  0  0.225258  0.645385  0  4.097958  0
C  C51  1  0.05478101  0.95870185  0.17827162  1  1.635784  0  0.218175  0.626855  0  4.195327  0
C  C52  1  0.67471422  0.72403713  0.96138104  1  1.580213  0  0.188121  0.57375  0  4.204671  0
C  C53  1  0.69439829  0.95569547  0.11879533  1  1.575352  0  0.230613  0.653544  0  4.077346  0
C  C54  1  0.09187113  0.09543538  0.97967551  1  1.576496  0  0.202379  0.592564  0  4.152187  0
C  C55  1  0.05670194  0.89611684  0.80191914  1  1.568399  0  0.224836  0.649506  0  4.105057  0
C  C56  1  0.02662161  0.72935585  0.98979584  1  1.619316  0  0.224702  0.63741  0  4.183897  0
C  C57  1  0.88203090  0.11518274  0.14683511  1  1.55048  0  0.202242  0.593844  0  4.143801  0
C  C58  1  0.14592527  0.80797439  0.63726844  1  -0.028381  0  -0.026259  0.014424  0  3.918905  0
C  C59  1  0.20875004  0.85586265  0.63102957  1  0.080818  0  -0.00409  0.013002  0  3.948996  0
C  C60  1  0.19914438  0.92964883  0.65639997  1  -0.060926  0  -0.033142  0.005895  0  3.940235  0
C  C61  1  0.14685836  0.94454491  0.70855688  1  -0.024472  0  -0.022538  0.044505  0  3.926165  0
C  C62  1  0.10191615  0.88593940  0.73633848  1  0.040193  0  -0.036987  -0.147002  0  3.919064  0
C  C63  1  0.10089778  0.81717019  0.69666663  1  -0.021096  0  -0.019245  0.045711  0  3.902813  0
C  C64  1  0.59918419  0.82840893  0.73572409  1  -0.04266  0  -0.021606  0.039937  0  3.926574  0
C  C65  1  0.59026988  0.87259043  0.79798519  1  0.084408  0  -0.022329  -0.100167  0  3.963072  0
C  C66  1  0.51981891  0.89670461  0.81500409  1  -0.050736  0  -0.027171  0.026346  0  3.993236  0
C  C67  1  0.45911635  0.87804708  0.76856541  1  -0.017075  0  -0.023266  0.016302  0  3.943444  0
C  C68  1  0.46792144  0.83426910  0.70503145  1  0.139932  0  -0.018077  -0.017048  0  4.026558  0
C  C69  1  0.53834289  0.80979782  0.68922634  1  -0.087083  0  -0.023029  0.028425  0  3.954388  0
C  C70  1  0.25542298  0.92270333  0.22364981  1  -0.102467  0  -0.025989  0.018952  0  3.933277  0
C  C71  1  0.26523998  0.95564478  0.29377276  1  0.140902  0  -0.024872  -0.030879  0  4.020384  0
C  C72  1  0.20169610  0.97040096  0.33243058  1  -0.048059  0  -0.023813  0.032399  0  3.923698  0
C  C73  1  0.13120299  0.96423554  0.29806423  1  -0.052779  0  -0.023312  0.04204  0  3.937131  0
C  C74  1  0.12295389  0.94015959  0.22519847  1  0.096428  0  -0.019627  -0.093546  0  3.930302  0
C  C75  1  0.18486172  0.91310075  0.19083584  1  -0.030807  0  -0.027759  0.035403  0  3.953652  0
C  C76  1  0.63114768  0.03777979  0.21096912  1  -0.009621  0  -0.025688  0.043823  0  3.924015  0
C  C77  1  0.64733371  0.96578160  0.18396933  1  0.065288  0  -0.033668  -0.130685  0  3.898659  0
C  C78  1  0.62119019  0.90494624  0.22499128  1  -0.046912  0  -0.023864  0.046898  0  3.933397  0
C  C79  1  0.56849323  0.91469617  0.27815643  1  -0.077464  0  -0.030768  0.014641  0  3.923064  0
C  C80  1  0.54064692  0.98592666  0.29385633  1  0.093351  0  -0.004631  0.007586  0  3.954829  0
C  C81  1  0.58641810  0.04610214  0.27078248  1  -0.054385  0  -0.025099  0.018462  0  3.892523  0
C  C82  1  0.42624797  0.96851066  0.47252850  1  0.006022  0  -0.027727  -0.005584  0  3.92653  0
C  C83  1  0.40275622  0.92826313  0.40897086  1  0.438353  0  0.078117  0.093185  0  4.00207  0
C  C84  1  0.37025817  0.85740925  0.41868668  1  -0.006253  0  -0.030227  -0.006802  0  3.953178  0
C  C85  1  0.35847178  0.82997666  0.48887438  1  -0.053091  0  -0.02609  -0.001558  0  3.92514  0
C  C86  1  0.37447634  0.87378893  0.55215829  1  0.389404  0  0.077139  0.092847  0  3.982622  0
C  C87  1  0.41395986  0.94104014  0.54284759  1  -0.034727  0  -0.02852  -0.006219  0  3.946859  0
C  C88  1  0.53612999  0.19557257  0.85214124  1  -0.024259  0  -0.027722  0.011236  0  3.906703  0
C  C89  1  0.53140217  0.25920912  0.89820272  1  0.065514  0  -0.002752  0.013028  0  3.93595  0
C  C90  1  0.57369907  0.25556103  0.96468316  1  -0.033814  0  -0.027195  0.018379  0  3.95376  0
C  C91  1  0.63641072  0.21145632  0.96962572  1  -0.078933  0  -0.020107  0.044234  0  3.921287  0
C  C92  1  0.64915537  0.15520685  0.91765641  1  0.082882  0  -0.031469  -0.128078  0  3.905919  0
C  C93  1  0.59542423  0.14694582  0.85901643  1  -0.034533  0  -0.020823  0.0447  0  3.915076  0
C  C94  1  0.66939272  0.58750595  0.93261341  1  0.00675  0  -0.023684  0.03183  0  3.945135  0
C  C95  1  0.63212226  0.65527362  0.93676801  1  0.018942  0  -0.020218  -0.083511  0  3.918714  0
C  C96  1  0.55668163  0.65736382  0.91514014  1  -0.056423  0  -0.019866  0.041409  0  3.929641  0
C  C97  1  0.52096204  0.59356232  0.88489078  1  -0.067427  0  -0.025957  0.017965  0  3.961516  0
C  C98  1  0.55743994  0.52600040  0.88103439  1  0.14092  0  -0.016037  -0.010584  0  4.023433  0
C  C99  1  0.63190156  0.52314134  0.90714132  1  -0.02043  0  -0.024094  0.014591  0  3.936958  0
C  C100  1  0.20555613  0.15999650  0.04434999  1  -0.056151  0  -0.014665  0.050321  0  3.914263  0
C  C101  1  0.14217729  0.16128594  0.99730309  1  0.07977  0  -0.017449  -0.084722  0  3.893379  0
C  C102  1  0.11672872  0.23089153  0.97396020  1  -0.034853  0  -0.017347  0.053055  0  3.942192  0
C  C103  1  0.14191112  0.29592730  0.00967717  1  -0.047767  0  -0.025091  0.013884  0  3.930384  0
C  C104  1  0.20556253  0.29614076  0.05699788  1  0.086928  0  -0.010662  -0.006771  0  3.981887  0
C  C105  1  0.23899450  0.22723883  0.07012144  1  -0.012546  0  -0.021529  0.024757  0  3.91397  0
C  C106  1  0.15275458  0.66850648  0.99998942  1  -0.074672  0  -0.0224  0.043159  0  3.937821  0
C  C107  1  0.07658984  0.66560876  0.00762341  1  0.121045  0  -0.02269  -0.089608  0  3.967735  0
C  C108  1  0.04545727  0.60662025  0.04548234  1  -0.034773  0  -0.024727  0.033303  0  3.97059  0
C  C109  1  0.08966597  0.55571673  0.08279879  1  -0.081282  0  -0.020283  0.022234  0  3.880319  0
C  C110  1  0.16813003  0.55594435  0.07420744  1  0.050685  0  -0.00727  0.001135  0  3.929359  0
C  C111  1  0.19776675  0.61382595  0.03184717  1  0.023261  0  -0.024067  0.020301  0  3.930869  0
C  C112  1  0.37091493  0.44906296  0.04962680  1  0.020932  0  -0.029332  -0.009506  0  3.955608  0
C  C113  1  0.30022241  0.43577388  0.01612263  1  0.340924  0  0.07604  0.095365  0  3.982393  0
C  C114  1  0.29746804  0.42037892  0.94077707  1  -0.000862  0  -0.028726  0.0006  0  3.949043  0
C  C115  1  0.36228691  0.40511350  0.90408354  1  0.045378  0  -0.026533  -0.003143  0  3.930816  0
C  C116  1  0.43310622  0.41546434  0.93860677  1  0.347444  0  0.076237  0.092664  0  3.96587  0
C  C117  1  0.43557857  0.44659770  0.00945195  1  -0.038555  0  -0.030167  -0.009523  0  3.941712  0
C  C118  1  0.88818933  0.60441244  0.27918640  1  -0.018332  0  -0.031054  0.012792  0  3.930282  0
C  C119  1  0.81789118  0.57491863  0.29629633  1  0.04298  0  -0.00358  0.017851  0  3.947074  0
C  C120  1  0.76414797  0.57789182  0.23800898  1  -0.057729  0  -0.027094  0.014561  0  3.90867  0
C  C121  1  0.76988261  0.63083439  0.18278456  1  -0.048168  0  -0.022279  0.042705  0  3.90824  0
C  C122  1  0.83499681  0.67603444  0.17638353  1  0.066848  0  -0.034678  -0.14131  0  3.891761  0
C  C123  1  0.89661256  0.65537171  0.22239736  1  -0.009913  0  -0.020077  0.04795  0  3.90099  0
C  C124  1  0.80918804  0.58717740  0.63088099  1  -0.033843  0  -0.025686  0.023976  0  3.94465  0
C  C125  1  0.82148911  0.61670006  0.56214808  1  0.136248  0  -0.01402  -0.007532  0  4.026606  0
C  C126  1  0.85624991  0.68757272  0.55828689  1  -0.085363  0  -0.024327  0.015145  0  3.93049  0
C  C127  1  0.87512839  0.72884977  0.62155267  1  -0.0382  0  -0.02146  0.041525  0  3.923468  0
C  C128  1  0.85975069  0.70025244  0.69123953  1  0.072563  0  -0.02839  -0.105188  0  3.916682  0
C  C129  1  0.82709975  0.62810032  0.69502906  1  -0.059888  0  -0.020677  0.047328  0  3.910483  0
C  C130  1  0.88254988  0.13297170  0.28155557  1  -0.025218  0  -0.01183  0.055188  0  3.9174  0
C  C131  1  0.90064845  0.16177675  0.21310542  1  0.136442  0  -0.01421  -0.080329  0  3.894555  0
C  C132  1  0.94258736  0.22855585  0.21074979  1  -0.04874  0  -0.014747  0.051794  0  3.90973  0
C  C133  1  0.96840039  0.26322313  0.27614443  1  -0.089486  0  -0.020875  0.024829  0  3.922507  0
C  C134  1  0.95923743  0.22948263  0.34389763  1  0.117149  0  -0.011146  -0.006301  0  3.992085  0
C  C135  1  0.91551207  0.16340392  0.34551450  1  -0.05347  0  -0.023425  0.014244  0  3.933597  0
C  C136  1  0.92956719  0.20658423  0.71618689  1  -0.060695  0  -0.024131  0.043916  0  3.944379  0
C  C137  1  0.93606969  0.12969246  0.71954026  1  0.116844  0  -0.025581  -0.098142  0  3.981571  0
C  C138  1  0.96875337  0.09235070  0.66270066  1  -0.102114  0  -0.028014  0.026354  0  3.982857  0
C  C139  1  0.00291250  0.13115998  0.60732593  1  -0.010897  0  -0.020093  0.022522  0  3.880195  0
C  C140  1  0.99561649  0.21027267  0.60134617  1  0.124222  0  -0.006723  0.00306  0  3.932431  0
C  C141  1  0.95778772  0.24613628  0.65728457  1  -0.066894  0  -0.024379  0.020558  0  3.925911  0
C  C142  1  0.93732418  0.47695998  0.48089994  1  -0.032038  0  -0.030289  -0.006893  0  3.950622  0
C  C143  1  0.86377091  0.48095081  0.45375474  1  0.456985  0  0.076622  0.093773  0  3.972397  0
C  C144  1  0.82349226  0.41289933  0.44630881  1  -0.052016  0  -0.025589  -0.000997  0  3.923543  0
C  C145  1  0.85715470  0.34413400  0.45986006  1  0.017884  0  -0.027698  0.001852  0  3.938086  0
C  C146  1  0.93372240  0.33998369  0.47495558  1  0.352572  0  0.076129  0.095128  0  3.979235  0
C  C147  1  0.97320460  0.40829034  0.48442202  1  0.004295  0  -0.030743  -0.013006  0  3.963709  0
Br  Br148  1  0.05370750  0.72747631  0.72617330  1  0.021711  0  0.068686  0.015398  0  1.713911  0
Br  Br149  1  0.13342445  0.72725238  0.57022177  1  -0.023003  0  0.027822  -0.050844  0  1.583911  0
Br  Br150  1  0.14382594  0.04383533  0.74327890  1  0.031286  0  0.060721  0.014615  0  1.678865  0
Br  Br151  1  0.26292848  0.00506071  0.62357683  1  0.004489  0  0.050394  -0.019894  0  1.8204  0
Br  Br152  1  0.54756945  0.75067522  0.60428643  1  -0.024403  0  0.036891  -0.03493  0  1.47034  0
Br  Br153  1  0.69314633  0.78941486  0.71697780  1  -0.015029  0  0.074819  0.010569  0  1.643481  0
Br  Br154  1  0.36412303  0.91010776  0.79210080  1  -0.000399  0  0.057678  -0.004185  0  1.629606  0
Br  Br155  1  0.50728287  0.95119241  0.90221517  1  0.006375  0  0.05959  0.008308  0  1.579893  0
Br  Br156  1  0.17383990  0.86934711  0.09643672  1  -0.025633  0  0.0397  -0.049765  0  1.733966  0
Br  Br157  1  0.33960190  0.89837568  0.17050947  1  -0.017779  0  0.045781  -0.012938  0  1.604219  0
Br  Br158  1  0.04594796  0.99374644  0.34661890  1  -0.013454  0  0.03389  -0.033534  0  1.592275  0
Br  Br159  1  0.21544548  0.00370749  0.43066009  1  -0.035837  0  0.023988  -0.045468  0  1.618758  0
Br  Br160  1  0.58529044  0.13946151  0.32082485  1  -0.038912  0  0.022932  -0.057047  0  1.560256  0
Br  Br161  1  0.65851794  0.12635389  0.16235493  1  0.022553  0  0.034343  -0.035669  0  1.808976  0
Br  Br162  1  0.53174088  0.83204280  0.32907496  1  -0.016054  0  0.038795  -0.031659  0  1.662963  0
Br  Br163  1  0.65626305  0.80816748  0.20809481  1  0.010578  0  0.039015  -0.025931  0  1.722432  0
Br  Br164  1  0.45108042  0.99611208  0.62507371  1  0.005088  0  0.055923  -0.002171  0  1.748964  0
Br  Br165  1  0.46980950  0.06405227  0.46374575  1  0.015764  0  0.055115  -0.006532  0  1.653127  0
Br  Br166  1  0.32811640  0.72960472  0.49853677  1  0.011314  0  0.055929  -0.008895  0  1.656237  0
Br  Br167  1  0.34297900  0.79724488  0.33693928  1  0.00797  0  0.056178  -0.006221  0  1.724005  0
Br  Br168  1  0.60384831  0.07638873  0.78279777  1  0.012482  0  0.052024  0.004929  0  1.72498  0
Br  Br169  1  0.45866523  0.17923113  0.78023364  1  -0.024291  0  0.023756  -0.059864  0  1.53526  0
Br  Br170  1  0.71187099  0.24406323  0.03836654  1  0.026128  0  0.066616  0.032108  0  1.705475  0
Br  Br171  1  0.54794925  0.31226793  0.04546634  1  0.011151  0  0.051604  -0.029117  0  1.810585  0
Br  Br172  1  0.68040496  0.43088713  0.91187730  1  -0.002832  0  0.054943  -0.016239  0  1.669989  0
Br  Br173  1  0.76994010  0.58034918  0.96378007  1  0.012271  0  0.057397  0.00958  0  1.846795  0
Br  Br174  1  0.42104132  0.59454785  0.85028502  1  -0.025996  0  0.053322  -0.02049  0  1.600025  0
Br  Br175  1  0.50280833  0.74522302  0.92597084  1  0.018996  0  0.060933  0.012191  0  1.633496  0
Br  Br176  1  0.32892671  0.22799999  0.12664132  1  -0.025245  0  0.03992  -0.03128  0  1.494815  0
Br  Br177  1  0.24450745  0.06796853  0.07401022  1  0.011756  0  0.055475  -0.009333  0  1.625793  0
Br  Br178  1  0.07744134  0.37724638  0.00578632  1  0.001725  0  0.057889  -0.008429  0  1.898352  0
Br  Br179  1  0.04827529  0.23808740  0.89392793  1  0.00724  0  0.037754  -0.036267  0  1.71596  0
Br  Br180  1  0.30099144  0.62120739  0.02140092  1  -0.007615  0  0.04758  -0.029096  0  1.657015  0
Br  Br181  1  0.19276802  0.74898218  0.94656582  1  -0.023808  0  0.055924  -0.001106  0  1.536386  0
Br  Br182  1  0.03777282  0.49093131  0.14498935  1  0.009604  0  0.058518  -0.025708  0  1.891979  0
Br  Br183  1  0.94075576  0.59913546  0.04285534  1  0.006351  0  0.064653  0.009178  0  1.74347  0
Br  Br184  1  0.52349769  0.49071616  0.05102521  1  0.006975  0  0.058278  0.005348  0  1.776737  0
Br  Br185  1  0.38065360  0.46990229  0.15042949  1  -0.00076  0  0.051778  -0.013812  0  1.631817  0
Br  Br186  1  0.35391758  0.37647162  0.80497819  1  0.009217  0  0.055903  -0.010507  0  1.63664  0
Br  Br187  1  0.20691886  0.42698308  0.88751868  1  0.007616  0  0.049279  -0.011657  0  1.655187  0
Br  Br188  1  0.99348791  0.69553033  0.21388185  1  0.032748  0  0.063941  0.018961  0  1.715505  0
Br  Br189  1  0.97026716  0.57643177  0.33774979  1  -0.0033  0  0.041459  -0.042125  0  1.842591  0
Br  Br190  1  0.68311873  0.64297255  0.12373371  1  0.027887  0  0.069882  0.034486  0  1.873645  0
Br  Br191  1  0.68305056  0.50891783  0.23854857  1  -0.023713  0  0.023812  -0.059779  0  1.553735  0
Br  Br192  1  0.80103201  0.58643582  0.78475860  1  0.033416  0  0.042055  -0.01639  0  1.744894  0
Br  Br193  1  0.76585938  0.49044848  0.63323912  1  -0.022497  0  0.036941  -0.034605  0  1.544881  0
Br  Br194  1  0.92199694  0.82232815  0.60767370  1  0.020872  0  0.053528  -0.00034  0  1.858472  0
Br  Br195  1  0.87624467  0.72679547  0.46541199  1  0.001552  0  0.055851  -0.008669  0  1.644545  0
Br  Br196  1  0.91039452  0.10721667  0.43173126  1  0.000477  0  0.054897  -0.011832  0  1.848335  0
Br  Br197  1  0.81270393  0.05395291  0.28973325  1  0.009998  0  0.054398  -0.006765  0  1.652343  0
Br  Br198  1  0.02023059  0.35600125  0.27668030  1  -0.026257  0  0.043318  -0.02669  0  1.641144  0
Br  Br199  1  0.96960458  0.27027963  0.12116403  1  0.020783  0  0.04904  -0.005327  0  1.643578  0
Br  Br200  1  0.94764333  0.35051063  0.65542948  1  0.002366  0  0.04695  -0.024419  0  1.619089  0
Br  Br201  1  0.88073073  0.25457244  0.79263979  1  -0.023263  0  0.052198  -0.004767  0  1.515764  0
Br  Br202  1  0.05837456  0.07077453  0.54500932  1  0.007377  0  0.060515  -0.023702  0  1.860194  0
Br  Br203  1  0.95981794  0.98709207  0.66306755  1  0.01588  0  0.069001  0.012009  0  1.837359  0
Br  Br204  1  0.07677023  0.41003841  0.50002392  1  -0.008046  0  0.049141  -0.018338  0  1.637676  0
Br  Br205  1  0.98789814  0.56332529  0.51762950  1  0.003742  0  0.053077  0.003155  0  1.762228  0
Br  Br206  1  0.79848037  0.25648004  0.46151687  1  0.009803  0  0.048184  -0.011996  0  1.632333  0
Br  Br207  1  0.72106169  0.41462026  0.42395949  1  0.009953  0  0.054421  -0.010986  0  1.646114  0
N  N208  1  0.97134362  0.26944922  0.47664403  1  -1.070908  0  -0.248946  -0.117042  0  3.568889  0
N  N209  1  0.82767679  0.55042091  0.43806217  1  -1.110025  0  -0.23638  -0.091475  0  3.628739  0
N  N210  1  0.23447581  0.43337448  0.05866949  1  -1.071591  0  -0.249716  -0.116281  0  3.592565  0
N  N211  1  0.49817793  0.39998930  0.89808316  1  -1.083054  0  -0.240571  -0.097391  0  3.615839  0
N  N212  1  0.40469338  0.96161451  0.33793276  1  -1.081866  0  -0.23441  -0.089394  0  3.621446  0
N  N213  1  0.35185950  0.84682074  0.62190220  1  -1.105772  0  -0.238242  -0.095162  0  3.633669  0
O  O214  1  0.96970674  0.07677903  0.83158718  1  -1.169318  0  -0.338946  -0.601786  0  2.350152  0
O  O215  1  0.66152454  0.87076361  0.90975486  1  -1.160091  0  -0.30537  -0.560987  0  2.332798  0
O  O216  1  0.87511404  0.81725998  0.75603997  1  -1.157625  0  -0.335917  -0.580524  0  2.308371  0
O  O217  1  0.73786142  0.07240851  0.87232783  1  -1.174881  0  -0.379673  -0.635925  0  2.393286  0
O  O218  1  0.74084060  0.09546032  0.99257679  1  -1.1644  0  -0.33669  -0.597171  0  2.372952  0
O  O219  1  0.89319700  0.71636112  0.82013906  1  -1.142177  0  -0.361913  -0.579316  0  2.253653  0
O  O220  1  0.70381234  0.93641238  0.81429248  1  -1.175339  0  -0.382449  -0.635983  0  2.331158  0
O  O221  1  0.85341818  0.05281403  0.78545680  1  -1.182896  0  -0.360209  -0.618183  0  2.280799  0
O  O222  1  0.78316096  0.95242221  0.96661158  1  -1.20572  0  -0.796979  -1.159993  0  2.175583  0
O  O223  1  0.91125766  0.93629256  0.86871122  1  -1.220313  0  -0.795009  -1.168062  0  2.138103  0
O  O224  1  0.80138922  0.84924741  0.87247173  1  -1.254724  0  -0.683883  -1.02729  0  2.287274  0
O  O225  1  0.87736197  0.06050893  0.93704028  1  -1.261275  0  -0.677381  -1.047634  0  2.202826  0
O  O226  1  0.78606930  0.75659875  0.08195451  1  -1.187174  0  -0.35172  -0.625349  0  2.408409  0
O  O227  1  0.04782925  0.02436725  0.16298176  1  -1.094331  0  -0.273753  -0.449686  0  2.073995  0
O  O228  1  0.73590221  0.73843486  0.93055878  1  -1.152947  0  -0.361818  -0.597483  0  2.300234  0
O  O229  1  0.74170670  0.00786757  0.10912898  1  -1.172584  0  -0.375064  -0.620845  0  2.470097  0
O  O230  1  0.02222917  0.10665629  0.98448255  1  -1.154766  0  -0.360937  -0.591795  0  2.246166  0
O  O231  1  0.01533304  0.84095707  0.81907016  1  -1.186746  0  -0.389337  -0.637335  0  2.484336  0
O  O232  1  0.01741168  0.77095364  0.04506972  1  -1.173219  0  -0.360167  -0.631571  0  2.399036  0
O  O233  1  0.88785090  0.04478174  0.15255469  1  -1.126796  0  -0.347371  -0.57266  0  2.301231  0
O  O234  1  0.99768880  0.73645127  0.92667919  1  -1.170569  0  -0.338561  -0.590341  0  2.325842  0
O  O235  1  0.85998283  0.14190182  0.08539539  1  -1.153555  0  -0.351474  -0.591235  0  2.208458  0
O  O236  1  0.65330452  0.76728333  0.01017231  1  -1.123728  0  -0.31834  -0.537585  0  2.285229  0
O  O237  1  0.06032690  0.95597375  0.83903986  1  -1.170458  0  -0.346248  -0.596693  0  2.376397  0
O  O238  1  0.11239834  0.03153028  0.95929804  1  -1.1494  0  -0.33734  -0.575025  0  2.173857  0
O  O239  1  0.68742475  0.89822208  0.07799843  1  -1.162105  0  -0.334564  -0.587354  0  2.278495  0
O  O240  1  0.89772208  0.78363901  0.13294828  1  -1.181351  0  -0.368383  -0.623261  0  2.405135  0
O  O241  1  0.01178049  0.90313109  0.15460688  1  -1.203391  0  -0.420379  -0.695029  0  2.275265  0
O  O242  1  0.93706147  0.97552840  0.02357196  1  -1.202767  0  -0.76522  -1.121411  0  2.020439  0
O  O243  1  0.87715911  0.82148526  0.98250176  1  -1.225531  0  -0.773307  -1.158335  0  2.039751  0
O  O244  1  0.01358296  0.88757234  0.96347950  1  -1.272374  0  -0.677114  -1.057602  0  2.21775  0
O  O245  1  0.83861071  0.90736578  0.08862430  1  -1.240439  0  -0.675044  -1.037697  0  2.231408  0
