# generated using pymatgen
data_Al6H26C60O31
_symmetry_space_group_name_H-M   'P 1'
_cell_length_a   10.11124628
_cell_length_b   12.31402466
_cell_length_c   23.85137727
_cell_angle_alpha   89.49714037
_cell_angle_beta   84.58578445
_cell_angle_gamma   65.11688997
_symmetry_Int_Tables_number   1
_chemical_formula_structural   Al6H26C60O31
_chemical_formula_sum   'Al6 H26 C60 O31'
_cell_volume   2680.45958693
_cell_formula_units_Z   1
loop_
 _symmetry_equiv_pos_site_id
 _symmetry_equiv_pos_as_xyz
  1  'x, y, z'
loop_
 _atom_site_type_symbol
 _atom_site_label
 _atom_site_symmetry_multiplicity
 _atom_site_fract_x
 _atom_site_fract_y
 _atom_site_fract_z
 _atom_site_occupancy
 _atom_site_pbe_bader_charge
 _atom_site_pbe_bader_spin_density
 _atom_site_pbe_cm5_charge
 _atom_site_pbe_ddec_charge
 _atom_site_pbe_ddec_spin_density
 _atom_site_pbe_ddec_sum_bond_order
 _atom_site_pbe_magmom
Al  Al0  1  0.78270683  0.59737040  0.50786738  1  2.494884  0  0.39926  1.684122  0  2.553762  0
Al  Al1  1  0.06529333  0.34577429  0.49871671  1  2.480483  0  0.507512  1.661828  0  2.511263  0
Al  Al2  1  0.11498633  0.56962691  0.49474763  1  2.484935  0  0.51079  1.665338  0  2.49956  0
Al  Al3  1  0.88510380  0.00990543  0.98710921  1  2.496729  0  0.39697  1.683979  0  2.554505  0
Al  Al4  1  0.55332382  0.03901140  0.99646387  1  2.477515  0  0.510681  1.664883  0  2.495519  0
Al  Al5  1  0.60499879  0.26282870  0.99680402  1  2.477753  0  0.505309  1.664906  0  2.51253  0
H  H6  1  0.42220906  0.39100312  0.14724779  1  0.109566  0  0.113562  0.124695  0  0.998603  0
H  H7  1  0.98265002  0.26107722  0.24260716  1  0.134068  0  0.111317  0.115999  0  1.022307  0
H  H8  1  0.49108151  0.34321042  0.73236347  1  0.116254  0  0.110809  0.129536  0  1.037082  0
H  H9  1  0.94128680  0.90075100  0.82844281  1  0.070877  0  0.109813  0.103945  0  1.03065  0
H  H10  1  0.58628022  0.80110189  0.86548266  1  0.10242  0  0.112962  0.120166  0  0.986507  0
H  H11  1  0.60866552  0.73153180  0.76558261  1  0.063354  0  0.104334  0.104818  0  0.996823  0
H  H12  1  0.07924753  0.81062079  0.62748208  1  0.122247  0  0.119668  0.147364  0  0.972688  0
H  H13  1  0.72474868  0.70698257  0.66724796  1  0.080823  0  0.109318  0.119103  0  1.011243  0
H  H14  1  0.65283742  0.39451755  0.84886792  1  0.11276  0  0.114585  0.122249  0  0.991059  0
H  H15  1  0.28991246  0.10193892  0.14270161  1  0.101177  0  0.114863  0.135744  0  0.997196  0
H  H16  1  0.05895978  0.07856704  0.84159026  1  0.126323  0  0.116647  0.128755  0  0.983796  0
H  H17  1  0.57008122  0.50523392  0.76112650  1  0.072473  0  0.108095  0.108755  0  0.986898  0
H  H18  1  0.09742380  0.09553745  0.73642840  1  0.10022  0  0.111992  0.118809  0  0.991666  0
H  H19  1  0.61540988  0.52585658  0.65729278  1  0.12953  0  0.118443  0.125994  0  0.981083  0
H  H20  1  0.01945048  0.20807974  0.65018899  1  0.112692  0  0.118819  0.129598  0  0.979985  0
H  H21  1  0.41023010  0.49119461  0.23855790  1  0.070783  0  0.109636  0.111249  0  0.98267  0
H  H22  1  0.35706124  0.50767841  0.34322467  1  0.11172  0  0.118627  0.127685  0  0.980073  0
H  H23  1  0.22636183  0.21762024  0.33983982  1  0.125683  0  0.119308  0.131761  0  0.989948  0
H  H24  1  0.93935093  0.86780949  0.24160169  1  0.100272  0  0.121959  0.122681  0  0.957498  0
H  H25  1  0.72454828  0.74786865  0.25309306  1  0.120682  0  0.126987  0.132458  0  0.950245  0
H  H26  1  0.64978083  0.33325634  0.26659293  1  0.095033  0  0.110598  0.112211  0  1.015866  0
H  H27  1  0.16320828  0.24136274  0.77539838  1  0.615434  0  0.320043  0.347248  0  0.928263  0
H  H28  1  0.04663116  0.92772483  0.76501888  1  0.603505  0  0.318873  0.344236  0  0.933086  0
H  H29  1  0.21710002  0.04796934  0.22874890  1  0.607851  0  0.348997  0.376798  0  0.852613  0
H  H30  1  0.55352821  0.74195400  0.54398695  1  0.56901  0  0.291406  0.379648  0  0.928859  0
H  H31  1  0.11430740  0.87393012  0.01092832  1  0.570955  0  0.292575  0.38268  0  0.92387  0
C  C32  1  0.83974249  0.38985040  0.43040557  1  1.700827  0  0.281535  0.70237  0  4.176901  0
C  C33  1  0.34229048  0.44022485  0.31862087  1  0.010745  0  -0.075185  -0.0876  0  3.974088  0
C  C34  1  0.26842692  0.27567440  0.31736517  1  -0.025799  0  -0.064588  -0.099023  0  3.887493  0
C  C35  1  0.29710873  0.26502218  0.25806246  1  0.01593  0  -0.006461  -0.020744  0  3.951126  0
C  C36  1  0.34920144  0.34412158  0.22882809  1  0.003535  0  -0.000647  0.092355  0  4.02305  0
C  C37  1  0.37863422  0.33368879  0.16954030  1  -0.033483  0  -0.080071  -0.157258  0  3.932626  0
C  C38  1  0.30412092  0.16958248  0.16751465  1  -0.015581  0  -0.10528  -0.26205  0  3.995217  0
C  C39  1  0.27541934  0.17790341  0.22542347  1  0.480056  0  0.085911  0.265005  0  4.08869  0
C  C40  1  0.75819760  0.84561450  0.12602033  1  0.251011  0  -0.032092  -0.195462  0  3.925217  0
C  C41  1  0.78767060  0.79283663  0.23219814  1  0.072485  0  -0.056543  -0.053543  0  4.041802  0
C  C42  1  0.87690012  0.82217159  0.26240740  1  0.13002  0  -0.054057  -0.040474  0  4.043003  0
C  C43  1  0.24392978  0.38185778  0.40873310  1  1.545207  0  0.277215  0.644523  0  4.084389  0
C  C44  1  0.89321555  0.79425358  0.31913178  1  -0.376465  0  -0.019622  0.006646  0  4.133905  0
C  C45  1  0.77181269  0.81998292  0.17536302  1  -0.557811  0  -0.017556  0.018977  0  4.138196  0
C  C46  1  0.90734881  0.76651446  0.36817879  1  0.133881  0  -0.019958  -0.169976  0  3.906216  0
C  C47  1  0.84038148  0.24239089  0.12778835  1  -0.002438  0  -0.034281  -0.197777  0  3.923482  0
C  C48  1  0.87203917  0.27914956  0.23285495  1  0.026887  0  -0.070418  -0.070068  0  4.063636  0
C  C49  1  0.76094421  0.31614950  0.27534640  1  0.12135  0  -0.06194  -0.045884  0  4.040665  0
C  C50  1  0.78269663  0.33602723  0.33081236  1  -0.136609  0  -0.01643  0.021104  0  4.118211  0
C  C51  1  0.85335059  0.26038002  0.17681564  1  -0.279115  0  -0.021666  0.020247  0  4.13958  0
C  C52  1  0.80210697  0.35610299  0.37865674  1  -0.129877  0  -0.022001  -0.17862  0  3.900206  0
C  C53  1  0.37440047  0.25514531  0.86527958  1  0.134566  0  -0.017569  -0.13909  0  3.904186  0
C  C54  1  0.92395278  0.71431102  0.42273576  1  1.656886  0  0.276647  0.699019  0  4.174497  0
C  C55  1  0.32330194  0.28794173  0.75889922  1  0.617001  0  0.105275  0.33776  0  4.142755  0
C  C56  1  0.40353664  0.32278880  0.71919374  1  0.205126  0  -0.091025  -0.217362  0  4.024106  0
C  C57  1  0.37259101  0.33587515  0.66306709  1  -0.507047  0  -0.005818  0.089162  0  4.11107  0
C  C58  1  0.35321267  0.27238393  0.81578267  1  -0.368829  0  -0.015377  -0.086618  0  4.063468  0
C  C59  1  0.34094073  0.34835534  0.61444248  1  0.272652  0  -0.030571  -0.211485  0  3.890426  0
C  C60  1  0.76485436  0.85455250  0.85127173  1  0.00381  0  -0.015841  -0.038833  0  3.994897  0
C  C61  1  0.90188132  0.75500347  0.64238154  1  -0.021885  0  -0.011683  -0.013077  0  4.020313  0
C  C62  1  0.98553015  0.84276343  0.71353112  1  0.436893  0  0.085688  0.273371  0  4.066124  0
C  C63  1  0.99735716  0.80350847  0.65849557  1  0.058131  0  -0.09579  -0.223257  0  3.938899  0
C  C64  1  0.79662843  0.74485632  0.68101853  1  0.009801  0  -0.086954  -0.169813  0  3.947786  0
C  C65  1  0.85421212  0.39024390  0.58837654  1  1.582333  0  0.272072  0.63402  0  4.09527  0
C  C66  1  0.78521728  0.78094780  0.73790434  1  0.028413  0  -0.001535  0.101991  0  4.018061  0
C  C67  1  0.88129410  0.83069895  0.75518729  1  0.011213  0  -0.015634  -0.044482  0  3.997898  0
C  C68  1  0.86963458  0.86477299  0.81235424  1  -0.079272  0  -0.077278  -0.127337  0  3.955741  0
C  C69  1  0.66839871  0.80729150  0.83423979  1  -0.033647  0  -0.083785  -0.096871  0  3.991252  0
C  C70  1  0.68055056  0.76993068  0.77904208  1  -0.069307  0  -0.084378  -0.125297  0  3.980197  0
C  C71  1  0.85345721  0.23696789  0.85050174  1  0.009432  0  -0.015855  -0.04203  0  4.002097  0
C  C72  1  0.82053306  0.36751505  0.64839460  1  -0.051125  0  -0.006381  -0.031335  0  3.966195  0
C  C73  1  0.66775738  0.44008298  0.73665772  1  -0.008689  0  -0.085395  -0.137609  0  4.000366  0
C  C74  1  0.69202884  0.45191466  0.67962993  1  -0.062405  0  -0.072944  -0.084443  0  3.96579  0
C  C75  1  0.92046009  0.27114930  0.67463515  1  -0.024602  0  -0.063497  -0.115074  0  3.885979  0
C  C76  1  0.27144332  0.37960793  0.56349109  1  1.599587  0  0.284488  0.720594  0  4.154466  0
C  C77  1  0.89796461  0.25693415  0.73312751  1  0.042362  0  -7e-06  0.083488  0  3.979694  0
C  C78  1  0.77014184  0.34370084  0.76507696  1  -0.062231  0  -0.002154  0.07304  0  3.998759  0
C  C79  1  0.75058661  0.33081927  0.82395687  1  -0.014638  0  -0.067561  -0.123673  0  3.906184  0
C  C80  1  0.98081708  0.15120102  0.81896156  1  -0.109116  0  -0.089058  -0.127651  0  4.011307  0
C  C81  1  0.00130119  0.16083939  0.76153321  1  -0.107606  0  -0.089449  -0.151169  0  4.021004  0
C  C82  1  0.74159559  0.89501990  0.07101345  1  1.694279  0  0.275308  0.710806  0  4.167254  0
C  C83  1  0.40604372  0.22813942  0.07840289  1  1.510562  0  0.281338  0.651819  0  4.064844  0
C  C84  1  0.81265250  0.21319394  0.07315309  1  1.673825  0  0.273993  0.709263  0  4.169504  0
C  C85  1  0.75131869  0.90078489  0.90973087  1  1.535799  0  0.26994  0.632504  0  4.096045  0
C  C86  1  0.42410328  0.22677581  0.92035202  1  1.661336  0  0.283247  0.708301  0  4.163864  0
C  C87  1  0.91795659  0.70750204  0.58377980  1  1.567286  0  0.273415  0.644967  0  4.079631  0
C  C88  1  0.82436032  0.21728467  0.91105035  1  1.549465  0  0.272436  0.630545  0  4.104315  0
C  C89  1  0.35697276  0.24760208  0.13953294  1  0.014118  0  -0.01329  -0.014856  0  4.021828  0
C  C90  1  0.29009233  0.36212037  0.34721875  1  -0.032824  0  -0.00945  -0.043695  0  3.976575  0
C  C91  1  0.37105671  0.43096102  0.26090112  1  -0.066465  0  -0.083519  -0.133807  0  3.994308  0
O  O92  1  0.81927627  0.69366716  0.44515034  1  -1.203313  0  -0.201711  -0.541258  0  2.279867  0
O  O93  1  0.22124766  0.30894041  0.54449726  1  -1.242665  0  -0.228077  -0.593677  0  2.250955  0
O  O94  1  0.25767075  0.47918797  0.54211043  1  -1.235454  0  -0.222333  -0.581259  0  2.242538  0
O  O95  1  0.04123864  0.68267206  0.55423929  1  -1.274698  0  -0.240085  -0.601413  0  2.279207  0
O  O96  1  0.98947202  0.50351648  0.50018689  1  -1.609466  0  -0.390873  -1.270688  0  2.288401  0
O  O97  1  0.89166131  0.10968869  0.05220013  1  -1.209863  0  -0.21092  -0.557125  0  2.281708  0
O  O98  1  0.85046845  0.90660963  0.04577224  1  -1.224525  0  -0.213362  -0.570331  0  2.289398  0
O  O99  1  0.61437839  0.92790443  0.05307002  1  -1.253102  0  -0.240551  -0.600175  0  2.230568  0
O  O100  1  0.40956566  0.13491807  0.05362637  1  -1.2593  0  -0.230906  -0.589447  0  2.287503  0
O  O101  1  0.45076174  0.30181562  0.05437400  1  -1.271886  0  -0.235169  -0.601373  0  2.306712  0
O  O102  1  0.70432738  0.29585468  0.05120831  1  -1.253402  0  -0.244565  -0.609631  0  2.236547  0
O  O103  1  0.76495290  0.49578164  0.44914564  1  -1.208318  0  -0.196077  -0.520252  0  2.275913  0
O  O104  1  0.90532331  0.11817929  0.93043260  1  -1.239062  0  -0.208001  -0.541131  0  2.341434  0
O  O105  1  0.85341137  0.92414304  0.92465719  1  -1.244052  0  -0.21651  -0.564478  0  2.362316  0
O  O106  1  0.63190600  0.91862433  0.94127048  1  -1.2753  0  -0.248174  -0.614991  0  2.275327  0
O  O107  1  0.42954239  0.12917023  0.94101920  1  -1.235148  0  -0.220302  -0.574858  0  2.24275  0
O  O108  1  0.46563388  0.29960904  0.94269780  1  -1.235857  0  -0.224574  -0.583151  0  2.25665  0
O  O109  1  0.71305288  0.30058691  0.93927863  1  -1.275145  0  -0.248721  -0.612558  0  2.288377  0
O  O110  1  0.67836972  0.10520546  0.99429915  1  -1.609694  0  -0.390872  -1.270133  0  2.289147  0
O  O111  1  0.95083515  0.30938559  0.45158908  1  -1.250417  0  -0.239588  -0.601064  0  2.24241  0
O  O112  1  0.20126760  0.30812395  0.43389246  1  -1.266647  0  -0.234142  -0.595798  0  2.298607  0
O  O113  1  0.24182348  0.47559565  0.43211113  1  -1.263662  0  -0.227538  -0.590134  0  2.309383  0
O  O114  1  0.04780144  0.68872964  0.44266471  1  -1.248224  0  -0.239977  -0.598992  0  2.225231  0
O  O115  1  0.81232509  0.69077144  0.56739681  1  -1.256388  0  -0.222882  -0.589263  0  2.367614  0
O  O116  1  0.77187007  0.48856094  0.56885295  1  -1.241873  0  -0.213817  -0.564129  0  2.348586  0
O  O117  1  0.97046893  0.30937500  0.56144426  1  -1.278581  0  -0.246196  -0.609154  0  2.285647  0
O  O118  1  0.21035944  0.26647885  0.74331790  1  -1.106609  0  -0.323976  -0.413236  0  2.308616  0
O  O119  1  0.07752067  0.89194510  0.72701292  1  -1.131675  0  -0.355708  -0.439239  0  2.281707  0
O  O120  1  0.22523749  0.10462462  0.25494773  1  -1.119691  0  -0.340063  -0.436231  0  2.276251  0
O  O121  1  0.59277906  0.68298721  0.51326302  1  -1.361177  0  -0.577698  -0.992222  0  1.797266  0
O  O122  1  0.07545818  0.92499122  0.97995419  1  -1.36276  0  -0.579304  -0.996385  0  1.793775  0
