# generated using pymatgen
data_Cu2H26C23(NO2)2
_symmetry_space_group_name_H-M   'P 1'
_cell_length_a   9.44126881
_cell_length_b   15.47135421
_cell_length_c   17.66236628
_cell_angle_alpha   89.99996159
_cell_angle_beta   90.00016901
_cell_angle_gamma   90.90973518
_symmetry_Int_Tables_number   1
_chemical_formula_structural   Cu2H26C23(NO2)2
_chemical_formula_sum   'Cu8 H104 C92 N8 O16'
_cell_volume   2579.60275569
_cell_formula_units_Z   4
loop_
 _symmetry_equiv_pos_site_id
 _symmetry_equiv_pos_as_xyz
  1  'x, y, z'
loop_
 _atom_site_type_symbol
 _atom_site_label
 _atom_site_symmetry_multiplicity
 _atom_site_fract_x
 _atom_site_fract_y
 _atom_site_fract_z
 _atom_site_occupancy
 _atom_site_pbe_bader_charge
 _atom_site_pbe_bader_spin_density
 _atom_site_pbe_cm5_charge
 _atom_site_pbe_ddec_charge
 _atom_site_pbe_ddec_spin_density
 _atom_site_pbe_ddec_sum_bond_order
 _atom_site_pbe_magmom
Cu  Cu0  1  0.71983274  0.62522907  0.78347413  1  0.731583  0  0.57852  0.498283  0  2.440151  0
Cu  Cu1  1  0.78016745  0.87477229  0.28347485  1  0.73159  0  0.578511  0.498257  0  2.440086  0
Cu  Cu2  1  0.28016852  0.37477195  0.21652603  1  0.731622  0  0.57854  0.498349  0  2.440048  0
Cu  Cu3  1  0.21983063  0.12522873  0.71652474  1  0.731631  0  0.578513  0.498224  0  2.440145  0
Cu  Cu4  1  0.75051341  0.61633198  0.47212856  1  0.737017  0  0.580427  0.502362  0  2.43143  0
Cu  Cu5  1  0.74948353  0.88366796  0.97212774  1  0.73702  0  0.580436  0.502331  0  2.431416  0
Cu  Cu6  1  0.24948673  0.38366646  0.52787104  1  0.737018  0  0.580455  0.502377  0  2.431453  0
Cu  Cu7  1  0.25051353  0.11633435  0.02787016  1  0.736941  0  0.580465  0.502376  0  2.431401  0
H  H8  1  0.78713367  0.38959998  0.93247524  1  0.014687  0  0.091307  0.097715  0  0.991722  0
H  H9  1  0.71287095  0.11039806  0.43247940  1  0.014756  0  0.091323  0.097712  0  0.991647  0
H  H10  1  0.21286758  0.61040040  0.06752492  1  0.014694  0  0.091314  0.097719  0  0.991731  0
H  H11  1  0.28713232  0.88959844  0.56752586  1  0.014707  0  0.091324  0.097718  0  0.991737  0
H  H12  1  0.60357732  0.39283522  0.91860605  1  0.037364  0  0.091991  0.104104  0  0.982516  0
H  H13  1  0.89642618  0.10716347  0.41860825  1  0.037295  0  0.091959  0.104059  0  0.982486  0
H  H14  1  0.39642186  0.60716709  0.08139581  1  0.044003  0  0.09202  0.104138  0  0.982545  0
H  H15  1  0.10357706  0.89283238  0.58139531  1  0.04399  0  0.092  0.104107  0  0.982547  0
H  H16  1  0.62528593  0.28652389  0.81014045  1  -0.00608  0  0.08202  0.073583  0  0.994071  0
H  H17  1  0.87471273  0.21347424  0.31014312  1  -0.006003  0  0.082049  0.073669  0  0.994023  0
H  H18  1  0.37471113  0.71347843  0.18985971  1  -0.006042  0  0.082011  0.073613  0  0.994047  0
H  H19  1  0.12528734  0.78652161  0.68985988  1  -0.006064  0  0.082017  0.073594  0  0.994038  0
H  H20  1  0.81015210  0.28799146  0.82146921  1  0.02803  0  0.086664  0.079327  0  1.00381  0
H  H21  1  0.68984663  0.21200666  0.32147271  1  0.0281  0  0.086667  0.079368  0  1.003785  0
H  H22  1  0.18984392  0.71201150  0.17852982  1  0.028207  0  0.086696  0.079371  0  1.003838  0
H  H23  1  0.31015448  0.78798855  0.67853029  1  0.028199  0  0.086696  0.079376  0  1.003902  0
H  H24  1  0.78348204  0.22945805  0.95340283  1  0.033245  0  0.084913  0.074725  0  1.018499  0
H  H25  1  0.71651428  0.27054256  0.45340464  1  0.033177  0  0.084875  0.074692  0  1.018484  0
H  H26  1  0.21651392  0.77054297  0.04659620  1  0.033189  0  0.084903  0.074734  0  1.018494  0
H  H27  1  0.28348589  0.72945717  0.54659722  1  0.033213  0  0.084914  0.074748  0  1.018455  0
H  H28  1  0.59904143  0.22326372  0.94247380  1  0.009385  0  0.083236  0.077934  0  1.003448  0
H  H29  1  0.90095582  0.27673431  0.44247817  1  0.009198  0  0.083206  0.077884  0  1.003429  0
H  H30  1  0.40095450  0.77673601  0.05752410  1  0.009374  0  0.083232  0.077943  0  1.003461  0
H  H31  1  0.09904430  0.72326348  0.55752426  1  0.009372  0  0.083244  0.077951  0  1.003436  0
H  H32  1  0.62667822  0.11601434  0.83692627  1  0.030712  0  0.093929  0.108556  0  0.987063  0
H  H33  1  0.87332166  0.38398441  0.33692997  1  0.030768  0  0.093957  0.108616  0  0.987049  0
H  H34  1  0.37331889  0.88398991  0.16306823  1  0.030775  0  0.093951  0.108622  0  0.987136  0
H  H35  1  0.12668156  0.61601079  0.66306963  1  0.030767  0  0.093955  0.108636  0  0.987079  0
H  H36  1  0.81131009  0.12955350  0.84079170  1  0.030207  0  0.089827  0.099202  0  1.023389  0
H  H37  1  0.68868983  0.37044590  0.34079227  1  0.030217  0  0.089835  0.09922  0  1.023345  0
H  H38  1  0.18868801  0.87044817  0.15920847  1  0.030248  0  0.089849  0.099245  0  1.023334  0
H  H39  1  0.31131345  0.62955124  0.65920902  1  0.030241  0  0.089854  0.099257  0  1.023285  0
H  H40  1  0.48858895  0.59040385  0.71271333  1  0.071216  0  0.097618  0.112568  0  1.023083  0
H  H41  1  0.01140974  0.90960005  0.21271304  1  0.071301  0  0.097608  0.112562  0  1.023068  0
H  H42  1  0.51141230  0.40959652  0.28728683  1  0.071287  0  0.09759  0.112547  0  1.023094  0
H  H43  1  0.98858747  0.09040809  0.78728543  1  0.071111  0  0.097627  0.112547  0  1.023058  0
H  H44  1  0.60447385  0.74865064  0.71191111  1  0.065121  0  0.094105  0.111827  0  1.020863  0
H  H45  1  0.89552811  0.75135208  0.21191152  1  0.065162  0  0.094078  0.111791  0  1.020828  0
H  H46  1  0.39552738  0.25134909  0.28808735  1  0.065082  0  0.094099  0.111852  0  1.020844  0
H  H47  1  0.10447751  0.24865347  0.78808468  1  0.065079  0  0.094102  0.111796  0  1.02085  0
H  H48  1  0.84512245  0.74299850  0.62783084  1  0.047405  0  0.091877  0.072125  0  0.974741  0
H  H49  1  0.65487797  0.75700299  0.12783143  1  0.047435  0  0.091882  0.072128  0  0.974754  0
H  H50  1  0.15488087  0.25699994  0.37216876  1  0.047414  0  0.091893  0.072135  0  0.974697  0
H  H51  1  0.34512444  0.24300127  0.87216760  1  0.04736  0  0.091866  0.0721  0  0.974673  0
H  H52  1  0.62169222  0.74424959  0.53135774  1  0.054228  0  0.089195  0.104954  0  1.035352  0
H  H53  1  0.87830660  0.75575131  0.03135756  1  0.054272  0  0.089214  0.104952  0  1.035368  0
H  H54  1  0.37831004  0.25574884  0.46864129  1  0.05443  0  0.089194  0.104914  0  1.035375  0
H  H55  1  0.12169582  0.24425359  0.96863921  1  0.054522  0  0.089195  0.104969  0  1.035343  0
H  H56  1  0.50449825  0.58624976  0.53072528  1  0.10573  0  0.102329  0.127105  0  1.014721  0
H  H57  1  0.99549849  0.91375244  0.03072406  1  0.105781  0  0.102302  0.127049  0  1.01471  0
H  H58  1  0.49550085  0.41374932  0.46927602  1  0.105641  0  0.102316  0.127104  0  1.014647  0
H  H59  1  0.00449661  0.08625569  0.96927271  1  0.105518  0  0.102324  0.127104  0  1.014702  0
H  H60  1  0.65608304  0.48758704  0.62736197  1  0.031604  0  0.100632  0.090502  0  0.991821  0
H  H61  1  0.84391578  0.01241445  0.12735960  1  0.031563  0  0.100616  0.090448  0  0.99185  0
H  H62  1  0.34391710  0.51241139  0.37264046  1  0.031529  0  0.100626  0.0905  0  0.991878  0
H  H63  1  0.15607711  0.98759045  0.87263886  1  0.03158  0  0.100633  0.090515  0  0.991853  0
H  H64  1  0.87998410  0.57820381  0.58095724  1  0.035662  0  0.088648  0.094879  0  1.021899  0
H  H65  1  0.62001497  0.92179641  0.08095598  1  0.035623  0  0.088671  0.094944  0  1.02181  0
H  H66  1  0.12001703  0.42179204  0.41904292  1  0.035682  0  0.088646  0.094897  0  1.021876  0
H  H67  1  0.37998105  0.07820655  0.91904249  1  0.035713  0  0.088662  0.094918  0  1.021875  0
H  H68  1  0.87011684  0.58047286  0.68259877  1  0.061409  0  0.083919  0.083345  0  1.03915  0
H  H69  1  0.62988285  0.91952987  0.18259865  1  0.061414  0  0.083941  0.083347  0  1.039095  0
H  H70  1  0.12988330  0.41952557  0.31740140  1  0.061296  0  0.083919  0.083336  0  1.039167  0
H  H71  1  0.37011426  0.08047438  0.81740038  1  0.061282  0  0.08394  0.083322  0  1.03916  0
H  H72  1  0.93883259  0.59083775  0.89243650  1  0.110856  0  0.117976  0.094601  0  0.993856  0
H  H73  1  0.56116597  0.90915965  0.39244025  1  0.110813  0  0.117994  0.09458  0  0.993858  0
H  H74  1  0.06117074  0.40916133  0.10756083  1  0.110847  0  0.117951  0.094547  0  0.993865  0
H  H75  1  0.43882889  0.09083943  0.60755935  1  0.110845  0  0.117976  0.094576  0  0.993849  0
H  H76  1  0.13558101  0.67312917  0.95768134  1  0.071867  0  0.106269  0.104397  0  1.022978  0
H  H77  1  0.36442091  0.82686679  0.45768279  1  0.071882  0  0.106293  0.104428  0  1.022996  0
H  H78  1  0.86442546  0.32686862  0.04231656  1  0.071883  0  0.106296  0.104451  0  1.022952  0
H  H79  1  0.63557599  0.17312970  0.54231511  1  0.071842  0  0.106276  0.10442  0  1.022935  0
H  H80  1  0.16399132  0.83304138  0.93293208  1  0.16963  0  0.112914  0.121995  0  1.036046  0
H  H81  1  0.33600839  0.66695590  0.43292961  1  0.169635  0  0.112917  0.122063  0  1.035986  0
H  H82  1  0.83601095  0.16695771  0.06706865  1  0.169655  0  0.112933  0.122041  0  1.036005  0
H  H83  1  0.66399384  0.33304124  0.56706772  1  0.169639  0  0.112915  0.12197  0  1.036062  0
H  H84  1  0.99540687  0.90156938  0.84037888  1  0.100332  0  0.116954  0.129703  0  0.994926  0
H  H85  1  0.50458832  0.59843130  0.34037252  1  0.10047  0  0.116921  0.129684  0  0.994928  0
H  H86  1  0.00459438  0.09843099  0.15962355  1  0.100362  0  0.116948  0.129702  0  0.99494  0
H  H87  1  0.49541923  0.40156714  0.65962538  1  0.100381  0  0.116935  0.129683  0  0.994929  0
H  H88  1  0.81090178  0.80965423  0.77834404  1  0.068161  0  0.120332  0.090242  0  0.990076  0
H  H89  1  0.68909207  0.69034843  0.27833792  1  0.068386  0  0.120309  0.090225  0  0.990074  0
H  H90  1  0.18909844  0.19034744  0.22165839  1  0.06817  0  0.120301  0.090205  0  0.990074  0
H  H91  1  0.31091241  0.30965388  0.72165998  1  0.068433  0  0.120322  0.090251  0  0.990052  0
H  H92  1  0.97565624  0.57910605  0.36748819  1  0.13434  0  0.122586  0.104436  0  0.988268  0
H  H93  1  0.52433485  0.92089461  0.86749151  1  0.13407  0  0.122591  0.104417  0  0.988308  0
H  H94  1  0.02433656  0.42089562  0.63250915  1  0.134042  0  0.12258  0.104408  0  0.988288  0
H  H95  1  0.47566633  0.07910318  0.13250582  1  0.134028  0  0.122591  0.104432  0  0.988285  0
H  H96  1  0.16160563  0.65841624  0.29497288  1  0.180264  0  0.108038  0.12718  0  1.066547  0
H  H97  1  0.33838493  0.84158372  0.79497505  1  0.180206  0  0.108022  0.127125  0  1.06661  0
H  H98  1  0.83838714  0.34158413  0.70502389  1  0.18024  0  0.10802  0.127165  0  1.066596  0
H  H99  1  0.66161620  0.15841213  0.20502398  1  0.180204  0  0.10805  0.127203  0  1.066603  0
H  H100  1  0.18577524  0.82077395  0.31292231  1  0.040638  0  0.107484  0.100779  0  0.987758  0
H  H101  1  0.31422384  0.67922406  0.81292058  1  0.040585  0  0.107496  0.100769  0  0.987707  0
H  H102  1  0.81422279  0.17922513  0.68707672  1  0.040629  0  0.10749  0.100763  0  0.987747  0
H  H103  1  0.68577835  0.32077179  0.18708128  1  0.040587  0  0.107505  0.100816  0  0.987671  0
H  H104  1  0.01925641  0.89315970  0.40496588  1  0.097475  0  0.110337  0.125686  0  0.995397  0
H  H105  1  0.48074954  0.60683888  0.90495993  1  0.097453  0  0.110343  0.125669  0  0.995476  0
H  H106  1  0.98074696  0.10684067  0.59503711  1  0.097519  0  0.110351  0.125678  0  0.995495  0
H  H107  1  0.51925169  0.39316084  0.09504363  1  0.097493  0  0.11038  0.125741  0  0.995437  0
H  H108  1  0.84182596  0.80237968  0.47308542  1  0.09107  0  0.115963  0.084329  0  0.998607  0
H  H109  1  0.65817730  0.69761896  0.97308286  1  0.090911  0  0.115942  0.084302  0  0.99855  0
H  H110  1  0.15817740  0.19762069  0.52691645  1  0.090881  0  0.115954  0.084312  0  0.998577  0
H  H111  1  0.34182396  0.30238206  0.02691957  1  0.090955  0  0.115941  0.084302  0  0.998534  0
C  C112  1  0.72773179  0.45740993  0.83315722  1  1.558147  0  0.186853  0.602879  0  4.196434  0
C  C113  1  0.77226911  0.04258818  0.33316209  1  1.557804  0  0.186989  0.603056  0  4.196106  0
C  C114  1  0.27226740  0.54259303  0.16684407  1  1.558321  0  0.186877  0.602955  0  4.196195  0
C  C115  1  0.22773202  0.95740767  0.66684374  1  1.558152  0  0.186844  0.602881  0  4.196282  0
C  C116  1  0.70427828  0.38289400  0.88861808  1  -0.04656  0  -0.167997  -0.280355  0  3.95238  0
C  C117  1  0.79572291  0.11710342  0.38862181  1  -0.046702  0  -0.16802  -0.280305  0  3.952132  0
C  C118  1  0.29572087  0.61710702  0.11138208  1  -0.053155  0  -0.168052  -0.280442  0  3.952357  0
C  C119  1  0.20427824  0.88289307  0.61138175  1  -0.053144  0  -0.16806  -0.280422  0  3.952307  0
C  C120  1  0.70998228  0.29331518  0.85286866  1  0.008277  0  -0.170683  -0.124712  0  3.970183  0
C  C121  1  0.79001556  0.20668292  0.35287119  1  0.008331  0  -0.170691  -0.124914  0  3.970197  0
C  C122  1  0.29001372  0.70668714  0.14713094  1  0.007979  0  -0.170652  -0.12474  0  3.970054  0
C  C123  1  0.20998662  0.79331228  0.64713237  1  0.007979  0  -0.170662  -0.124704  0  3.970046  0
C  C124  1  0.69942852  0.22046692  0.91086826  1  -0.000863  0  -0.172693  -0.125516  0  3.968826  0
C  C125  1  0.80056969  0.27953371  0.41087020  1  -0.000719  0  -0.172661  -0.125399  0  3.968695  0
C  C126  1  0.30056749  0.77953604  0.08913134  1  -0.000771  0  -0.172748  -0.125521  0  3.968926  0
C  C127  1  0.19943253  0.72046343  0.58913223  1  -0.000783  0  -0.172749  -0.125561  0  3.968917  0
C  C128  1  0.71491302  0.13125518  0.87578976  1  -0.051853  0  -0.170958  -0.28776  0  3.941926  0
C  C129  1  0.78508815  0.36874419  0.37579219  1  -0.051875  0  -0.170978  -0.287851  0  3.941964  0
C  C130  1  0.28508720  0.86874648  0.12420871  1  -0.051871  0  -0.170946  -0.287915  0  3.94214  0
C  C131  1  0.21491199  0.63125425  0.62420854  1  -0.051872  0  -0.170951  -0.287921  0  3.942121  0
C  C132  1  0.72467451  0.05792579  0.93338343  1  1.542154  0  0.192284  0.612036  0  4.183789  0
C  C133  1  0.77532379  0.44207354  0.43338467  1  1.542134  0  0.192244  0.612  0  4.184005  0
C  C134  1  0.27531720  0.94207459  0.06661334  1  1.542311  0  0.192447  0.612375  0  4.183978  0
C  C135  1  0.22468059  0.55792489  0.56661493  1  1.542165  0  0.192331  0.612218  0  4.183778  0
C  C136  1  0.59486916  0.60679585  0.69267816  1  -0.185718  0  -0.165917  -0.194879  0  3.919105  0
C  C137  1  0.90513058  0.89320688  0.19267794  1  -0.185825  0  -0.165889  -0.194796  0  3.918911  0
C  C138  1  0.40513311  0.39320323  0.30732200  1  -0.185793  0  -0.165862  -0.194822  0  3.918936  0
C  C139  1  0.09486556  0.10680061  0.80731996  1  -0.185688  0  -0.165893  -0.194787  0  3.918835  0
C  C140  1  0.65708870  0.69013333  0.69273141  1  -0.135977  0  -0.180529  -0.230384  0  3.974188  0
C  C141  1  0.84291102  0.80986875  0.19273170  1  -0.135966  0  -0.180489  -0.230311  0  3.973932  0
C  C142  1  0.34291355  0.30986511  0.30726819  1  -0.135966  0  -0.180462  -0.230412  0  3.974104  0
C  C143  1  0.15708823  0.19013615  0.80726620  1  -0.136082  0  -0.180517  -0.230377  0  3.974187  0
C  C144  1  0.76408212  0.69149695  0.62664918  1  -0.025913  0  -0.093831  0.039455  0  3.859373  0
C  C145  1  0.73591829  0.80850453  0.12664874  1  -0.025977  0  -0.093859  0.039391  0  3.859387  0
C  C146  1  0.23592119  0.30850148  0.37335042  1  -0.025814  0  -0.093867  0.03954  0  3.859253  0
C  C147  1  0.26407987  0.19149908  0.87334916  1  -0.025476  0  -0.093855  0.039529  0  3.859193  0
C  C148  1  0.67007987  0.68666253  0.55526060  1  -0.199728  0  -0.184367  -0.232866  0  3.9786  0
C  C149  1  0.82991802  0.81333836  0.05526143  1  -0.141429  0  -0.184412  -0.232883  0  3.978617  0
C  C150  1  0.32992025  0.31333526  0.44473843  1  -0.199758  0  -0.184351  -0.232838  0  3.978614  0
C  C151  1  0.17008018  0.18666719  0.94473760  1  -0.199857  0  -0.184348  -0.232879  0  3.978699  0
C  C152  1  0.60700894  0.60345435  0.55543439  1  -0.146361  0  -0.165417  -0.192362  0  3.890187  0
C  C153  1  0.89298896  0.89654654  0.05543358  1  -0.204836  0  -0.165359  -0.192254  0  3.89009  0
C  C154  1  0.39299120  0.39654409  0.44456578  1  -0.146486  0  -0.165461  -0.192393  0  3.890215  0
C  C155  1  0.10700718  0.10346095  0.94456545  1  -0.146519  0  -0.165466  -0.192414  0  3.890352  0
C  C156  1  0.66399095  0.55782628  0.62658743  1  0.075378  0  -0.087132  0.048651  0  3.817268  0
C  C157  1  0.83600734  0.94217520  0.12658707  1  0.075356  0  -0.087125  0.048668  0  3.817329  0
C  C158  1  0.33600920  0.44217280  0.37341330  1  0.075478  0  -0.087183  0.04856  0  3.817378  0
C  C159  1  0.16398981  0.05783034  0.87341197  1  0.075591  0  -0.087138  0.048654  0  3.817172  0
C  C160  1  0.81506690  0.59706617  0.62981757  1  -0.06007  0  -0.167298  -0.222015  0  3.875475  0
C  C161  1  0.68493245  0.90293466  0.12981642  1  -0.059962  0  -0.167361  -0.222111  0  3.875461  0
C  C162  1  0.18493324  0.40293227  0.37018316  1  -0.060048  0  -0.167293  -0.222036  0  3.875444  0
C  C163  1  0.31506462  0.09706830  0.87018204  1  -0.060244  0  -0.167323  -0.22205  0  3.875421  0
C  C164  1  0.95837101  0.65951897  0.88214286  1  0.494603  0  0.040656  0.077676  0  3.943946  0
C  C165  1  0.54162755  0.84048039  0.38214378  1  0.494636  0  0.040645  0.077713  0  3.944  0
C  C166  1  0.04163236  0.34048141  0.11785617  1  0.494604  0  0.040683  0.077747  0  3.943952  0
C  C167  1  0.45836943  0.15951869  0.61785582  1  0.494572  0  0.040664  0.077702  0  3.944028  0
C  C168  1  0.06565963  0.70604903  0.91840058  1  -0.109515  0  -0.084712  -0.135269  0  4.000152  0
C  C169  1  0.43434109  0.79394954  0.41839989  1  -0.10948  0  -0.084717  -0.135274  0  4.000118  0
C  C170  1  0.93434370  0.29395005  0.08159902  1  -0.109473  0  -0.084751  -0.135343  0  4.000096  0
C  C171  1  0.56565692  0.20604825  0.58159857  1  -0.109471  0  -0.084731  -0.135309  0  4.000088  0
C  C172  1  0.08191507  0.79451450  0.90423712  1  0.011113  0  -0.057747  -0.02342  0  3.919125  0
C  C173  1  0.41808344  0.70548344  0.40423476  1  0.011112  0  -0.057797  -0.02357  0  3.918975  0
C  C174  1  0.91808721  0.20548523  0.09576361  1  0.011128  0  -0.05774  -0.023462  0  3.919017  0
C  C175  1  0.58191774  0.29451435  0.59576427  1  0.011079  0  -0.057706  -0.023339  0  3.919114  0
C  C176  1  0.98898275  0.83286994  0.85331261  1  -0.005127  0  -0.07637  -0.125096  0  3.96556  0
C  C177  1  0.51101463  0.66713073  0.35330905  1  -0.005285  0  -0.076309  -0.125035  0  3.965394  0
C  C178  1  0.01101850  0.16713043  0.14668925  1  -0.005139  0  -0.076327  -0.125043  0  3.965369  0
C  C179  1  0.48898976  0.33286835  0.64668941  1  -0.005177  0  -0.07637  -0.125109  0  3.965617  0
C  C180  1  0.88538343  0.78195947  0.81833874  1  0.440396  0  0.046444  0.07938  0  3.961482  0
C  C181  1  0.61461273  0.71804251  0.31833476  1  0.440146  0  0.046474  0.079446  0  3.961391  0
C  C182  1  0.11461677  0.21804155  0.18166312  1  0.44034  0  0.046493  0.07945  0  3.961358  0
C  C183  1  0.38539063  0.28195786  0.68166427  1  0.440206  0  0.046436  0.079383  0  3.961434  0
C  C184  1  0.99088972  0.64858241  0.37414584  1  0.434624  0  0.054896  0.11773  0  3.878037  0
C  C185  1  0.50910349  0.85141695  0.87414578  1  0.434925  0  0.054792  0.117605  0  3.877966  0
C  C186  1  0.00910517  0.35141796  0.62585433  1  0.434893  0  0.054849  0.117731  0  3.878086  0
C  C187  1  0.49089560  0.14858213  0.12585212  1  0.435346  0  0.054861  0.11772  0  3.878047  0
C  C188  1  0.09424169  0.69415646  0.33384982  1  0.014866  0  -0.081802  -0.130419  0  3.942665  0
C  C189  1  0.40575331  0.80584347  0.83384986  1  0.014851  0  -0.081745  -0.130291  0  3.942668  0
C  C190  1  0.90575429  0.30584520  0.66614921  1  0.014815  0  -0.081799  -0.130463  0  3.942907  0
C  C191  1  0.59424787  0.19415432  0.16614860  1  0.014792  0  -0.081808  -0.130464  0  3.942913  0
C  C192  1  0.10656928  0.78325417  0.34435746  1  -0.055151  0  -0.06673  -0.031751  0  3.982116  0
C  C193  1  0.39342894  0.71674510  0.84435640  1  -0.055173  0  -0.06669  -0.031655  0  3.982061  0
C  C194  1  0.89342985  0.21674620  0.65564271  1  -0.055136  0  -0.066684  -0.031642  0  3.982117  0
C  C195  1  0.60657226  0.28325333  0.15564546  1  -0.055179  0  -0.066733  -0.031752  0  3.982235  0
C  C196  1  0.01621069  0.82363474  0.39542131  1  -0.050029  0  -0.089367  -0.146589  0  4.012056  0
C  C197  1  0.48379096  0.67636386  0.89541759  1  -0.049809  0  -0.089337  -0.146574  0  4.012199  0
C  C198  1  0.98379161  0.17636564  0.60458055  1  -0.050028  0  -0.08944  -0.146677  0  4.012239  0
C  C199  1  0.51620917  0.32363458  0.10458371  1  -0.049845  0  -0.089362  -0.146636  0  4.012268  0
C  C200  1  0.91574370  0.77329383  0.43358851  1  0.471254  0  0.040172  0.074838  0  3.978768  0
C  C201  1  0.58425725  0.72670549  0.93358638  1  0.471296  0  0.040209  0.07485  0  3.978813  0
C  C202  1  0.08425862  0.22670719  0.56641335  1  0.471483  0  0.040232  0.074919  0  3.9787  0
C  C203  1  0.41574186  0.27329424  0.06641548  1  0.47135  0  0.040187  0.074847  0  3.978806  0
N  N204  1  0.86918021  0.69675981  0.83255882  1  -1.241667  0  -0.36453  -0.232119  0  3.678272  0
N  N205  1  0.63081493  0.80324087  0.33255821  1  -1.241649  0  -0.364533  -0.232147  0  3.678305  0
N  N206  1  0.13081999  0.30324121  0.16744191  1  -1.241761  0  -0.3646  -0.23222  0  3.678322  0
N  N207  1  0.36918315  0.19676015  0.66744139  1  -1.241694  0  -0.364523  -0.232123  0  3.67831  0
N  N208  1  0.90165760  0.68727641  0.42278986  1  -1.233846  0  -0.361055  -0.239548  0  3.663043  0
N  N209  1  0.59834222  0.81272227  0.92278940  1  -1.233744  0  -0.361106  -0.239544  0  3.662998  0
N  N210  1  0.09834365  0.31272396  0.57721030  1  -1.233836  0  -0.36103  -0.239517  0  3.66287  0
N  N211  1  0.40165797  0.18727811  0.07721020  1  -1.234148  0  -0.361089  -0.239545  0  3.663073  0
O  O212  1  0.70037174  0.53360706  0.85999390  1  -1.171809  0  -0.375312  -0.593375  0  2.364064  0
O  O213  1  0.79963197  0.96639166  0.35999743  1  -1.171373  0  -0.375359  -0.593403  0  2.364036  0
O  O214  1  0.29962745  0.46639590  0.14000853  1  -1.17189  0  -0.375362  -0.593431  0  2.363931  0
O  O215  1  0.20037235  0.03360484  0.64000670  1  -1.171755  0  -0.375352  -0.593374  0  2.363989  0
O  O216  1  0.77238352  0.44415433  0.76765075  1  -1.185329  0  -0.325441  -0.552416  0  2.15808  0
O  O217  1  0.72761488  0.05584254  0.26765553  1  -1.185416  0  -0.325502  -0.55252  0  2.157957  0
O  O218  1  0.22761887  0.55584928  0.23235111  1  -1.185414  0  -0.325433  -0.55245  0  2.15806  0
O  O219  1  0.27238092  0.94415202  0.73235086  1  -1.185388  0  -0.325413  -0.552414  0  2.158056  0
O  O220  1  0.74309083  0.98207393  0.90342796  1  -1.16239  0  -0.375194  -0.588598  0  2.364504  0
O  O221  1  0.75690676  0.51792476  0.40342998  1  -1.162344  0  -0.375202  -0.588635  0  2.364599  0
O  O222  1  0.25690297  0.01792515  0.09656597  1  -1.162435  0  -0.375316  -0.588771  0  2.364806  0
O  O223  1  0.24309442  0.48207303  0.59656905  1  -1.162367  0  -0.375224  -0.588688  0  2.36452  0
O  O224  1  0.71587552  0.07264818  0.00275274  1  -1.166059  0  -0.326231  -0.559631  0  2.145269  0
O  O225  1  0.78412257  0.42735082  0.50275364  1  -1.166127  0  -0.326198  -0.559587  0  2.145351  0
O  O226  1  0.28411184  0.92734767  0.99724516  1  -1.166211  0  -0.326281  -0.55977  0  2.145369  0
O  O227  1  0.21588611  0.57265020  0.49724539  1  -1.166142  0  -0.32626  -0.559718  0  2.145369  0
