# generated using pymatgen
data_CuH15C16IN5
_symmetry_space_group_name_H-M   'P 1'
_cell_length_a   8.47804345
_cell_length_b   9.39880718
_cell_length_c   10.41896906
_cell_angle_alpha   85.88920532
_cell_angle_beta   77.22252837
_cell_angle_gamma   72.66846734
_symmetry_Int_Tables_number   1
_chemical_formula_structural   CuH15C16IN5
_chemical_formula_sum   'Cu2 H30 C32 I2 N10'
_cell_volume   772.88460781
_cell_formula_units_Z   2
loop_
 _symmetry_equiv_pos_site_id
 _symmetry_equiv_pos_as_xyz
  1  'x, y, z'
loop_
 _atom_site_type_symbol
 _atom_site_label
 _atom_site_symmetry_multiplicity
 _atom_site_fract_x
 _atom_site_fract_y
 _atom_site_fract_z
 _atom_site_occupancy
 _atom_site_hle17_bader_spin_density
 _atom_site_hle17_ddec_charge
 _atom_site_hle17_ddec_spin_density
 _atom_site_hle17_ddec_sum_bond_order
 _atom_site_hle17_magmom
 _atom_site_hse06_10hf_bader_spin_density
 _atom_site_hse06_10hf_ddec_charge
 _atom_site_hse06_10hf_ddec_spin_density
 _atom_site_hse06_10hf_ddec_sum_bond_order
 _atom_site_hse06_10hf_magmom
 _atom_site_hse06_bader_spin_density
 _atom_site_hse06_ddec_charge
 _atom_site_hse06_ddec_spin_density
 _atom_site_hse06_ddec_sum_bond_order
 _atom_site_hse06_magmom
 _atom_site_pbe_bader_spin_density
 _atom_site_pbe_cm5_charge
 _atom_site_pbe_ddec_charge
 _atom_site_pbe_ddec_spin_density
 _atom_site_pbe_ddec_sum_bond_order
 _atom_site_pbe_magmom
Cu  Cu0  1  0.08301657  0.04903276  0.88260425  1  0  0.317403  0  2.06976  0  0  0.218867  0  2.561775  0  0  0.227061  0  2.509656  0  0  0.343556  0.216855  0  2.595908  0
Cu  Cu1  1  0.91699059  0.95097081  0.11740266  1  0  0.317383  0  2.069853  0  0  0.218865  0  2.561883  0  0  0.226985  0  2.509757  0  0  0.343581  0.216847  0  2.596025  0
H  H2  1  0.48893517  0.95060562  0.81281606  1  0  0.086271  0  0.974993  0  0  0.092677  0  1.047988  0  0  0.095775  0  1.043847  0  0  0.116375  0.090329  0  1.050608  0
H  H3  1  0.51108100  0.04938236  0.18717876  1  0  0.08634  0  0.975007  0  0  0.092781  0  1.047955  0  0  0.095853  0  1.043837  0  0  0.116378  0.090434  0  1.050573  0
H  H4  1  0.60049510  0.69228639  0.37743162  1  0  0.101563  0  0.971652  0  0  0.111465  0  1.033269  0  0  0.113877  0  1.033297  0  0  0.098944  0.109677  0  1.033447  0
H  H5  1  0.39948957  0.30771246  0.62256514  1  0  0.101553  0  0.971926  0  0  0.111476  0  1.033515  0  0  0.113893  0  1.033537  0  0  0.09895  0.109688  0  1.033693  0
H  H6  1  0.35197645  0.68244422  0.29048103  1  0  0.081512  0  0.997923  0  0  0.08635  0  1.073035  0  0  0.088695  0  1.072216  0  0  0.089122  0.084694  0  1.073463  0
H  H7  1  0.64799754  0.31756461  0.70952272  1  0  0.081442  0  0.997953  0  0  0.086303  0  1.073043  0  0  0.088625  0  1.072244  0  0  0.089094  0.084655  0  1.073464  0
H  H8  1  0.06370446  0.79088845  0.41033514  1  0  0.084322  0  0.970504  0  0  0.091709  0  1.040092  0  0  0.094478  0  1.038574  0  0  0.093461  0.089646  0  1.041149  0
H  H9  1  0.93627426  0.20912045  0.58967929  1  0  0.08425  0  0.970545  0  0  0.091689  0  1.040096  0  0  0.09446  0  1.038576  0  0  0.093489  0.089625  0  1.041153  0
H  H10  1  0.00457936  0.91350074  0.63207906  1  0  0.094814  0  0.993957  0  0  0.103293  0  1.06191  0  0  0.106372  0  1.060199  0  0  0.090981  0.100883  0  1.063458  0
H  H11  1  0.99541450  0.08650272  0.36793595  1  0  0.094903  0  0.993943  0  0  0.103305  0  1.062001  0  0  0.106384  0  1.060291  0  0  0.090966  0.100895  0  1.063549  0
H  H12  1  0.75421399  0.83318750  0.48128713  1  0  0.083059  0  0.914179  0  0  0.09874  0  0.974838  0  0  0.09938  0  0.975055  0  0  0.113319  0.098295  0  0.974691  0
H  H13  1  0.24578417  0.16680029  0.51870223  1  0  0.083111  0  0.914203  0  0  0.098788  0  0.974767  0  0  0.099412  0  0.975022  0  0  0.113363  0.098342  0  0.974632  0
H  H14  1  0.75738086  0.89340251  0.63780390  1  0  0.075593  0  0.949602  0  0  0.090937  0  1.015446  0  0  0.091324  0  1.016372  0  0  0.105835  0.090943  0  1.013969  0
H  H15  1  0.24262312  0.10659315  0.36218008  1  0  0.075638  0  0.949709  0  0  0.090921  0  1.015546  0  0  0.091327  0  1.016453  0  0  0.105825  0.090932  0  1.014066  0
H  H16  1  0.95782155  0.64362137  0.58335455  1  0  0.082411  0  0.953422  0  0  0.099798  0  1.017471  0  0  0.100414  0  1.018585  0  0  0.09831  0.099284  0  1.01688  0
H  H17  1  0.04218236  0.35637431  0.41663808  1  0  0.082338  0  0.953386  0  0  0.099745  0  1.017447  0  0  0.100357  0  1.018562  0  0  0.098294  0.099229  0  1.016854  0
H  H18  1  0.79314387  0.56950896  0.56889258  1  0  0.083726  0  0.92646  0  0  0.102049  0  0.984757  0  0  0.103075  0  0.985169  0  0  0.096413  0.101741  0  0.983629  0
H  H19  1  0.20686030  0.43048227  0.43110510  1  0  0.083825  0  0.926378  0  0  0.102111  0  0.984744  0  0  0.103141  0  0.985154  0  0  0.096431  0.101802  0  0.983612  0
H  H20  1  0.67155091  0.59789782  0.80491394  1  0  0.083557  0  0.92075  0  0  0.099606  0  0.983462  0  0  0.100106  0  0.983672  0  0  0.116352  0.099415  0  0.984104  0
H  H21  1  0.32845467  0.40210348  0.19508380  1  0  0.083563  0  0.920766  0  0  0.099625  0  0.98348  0  0  0.100125  0  0.983691  0  0  0.116373  0.099434  0  0.984123  0
H  H22  1  0.78786716  0.72200042  0.82205582  1  0  0.073085  0  0.966351  0  0  0.086153  0  1.038086  0  0  0.087112  0  1.038128  0  0  0.099994  0.085985  0  1.038357  0
H  H23  1  0.21214133  0.27800313  0.17793551  1  0  0.073108  0  0.966312  0  0  0.086175  0  1.038066  0  0  0.087141  0  1.038103  0  0  0.100023  0.086008  0  1.038339  0
H  H24  1  0.37987069  0.19437118  0.90890592  1  0  0.098483  0  0.99018  0  0  0.103609  0  1.062827  0  0  0.106764  0  1.061005  0  0  0.088516  0.101495  0  1.063709  0
H  H25  1  0.62013332  0.80563122  0.09109106  1  0  0.098556  0  0.990126  0  0  0.103644  0  1.062806  0  0  0.106798  0  1.060991  0  0  0.088531  0.101529  0  1.063687  0
H  H26  1  0.50927351  0.39485346  0.92478704  1  0  0.088621  0  0.968474  0  0  0.097216  0  1.037088  0  0  0.099959  0  1.035767  0  0  0.096767  0.095092  0  1.038412  0
H  H27  1  0.49072559  0.60514892  0.07522137  1  0  0.088619  0  0.968424  0  0  0.097241  0  1.037002  0  0  0.099985  0  1.03568  0  0  0.09674  0.095115  0  1.038326  0
H  H28  1  0.35461905  0.66227857  0.89369506  1  0  0.086003  0  0.965827  0  0  0.093804  0  1.035253  0  0  0.096348  0  1.034295  0  0  0.094272  0.091238  0  1.037482  0
H  H29  1  0.64538132  0.33772718  0.10631386  1  0  0.085948  0  0.966005  0  0  0.093822  0  1.035312  0  0  0.096368  0  1.034353  0  0  0.094282  0.091255  0  1.037542  0
H  H30  1  0.07381352  0.73503603  0.83631540  1  0  0.105086  0  0.989272  0  0  0.109574  0  1.064397  0  0  0.113959  0  1.060376  0  0  0.094062  0.104279  0  1.070525  0
H  H31  1  0.92618885  0.26496749  0.16368851  1  0  0.105124  0  0.989195  0  0  0.109615  0  1.06434  0  0  0.114004  0  1.060311  0  0  0.094074  0.104315  0  1.070474  0
C  C32  1  0.43856820  0.91423180  0.73775080  1  0  0.184833  0  3.646776  0  0  0.125945  0  3.914508  0  0  0.142272  0  3.924262  0  0  0.145354  0.116058  0  3.907628  0
C  C33  1  0.56144041  0.08576058  0.26224698  1  0  0.184622  0  3.646858  0  0  0.125753  0  3.914598  0  0  0.142104  0  3.924361  0  0  0.145313  0.11587  0  3.907717  0
C  C34  1  0.43715040  0.81004008  0.55374707  1  0  0.099086  0  3.78829  0  0  0.089436  0  4.028431  0  0  0.093479  0  4.051284  0  0  0.087066  0.086976  0  4.013007  0
C  C35  1  0.56284341  0.18995665  0.44625590  1  0  0.099209  0  3.788389  0  0  0.089608  0  4.028493  0  0  0.093645  0  4.051361  0  0  0.087129  0.087154  0  4.013058  0
C  C36  1  0.47210216  0.73914091  0.43304416  1  0  -0.153502  0  3.769658  0  0  -0.169614  0  4.01868  0  0  -0.172915  0  4.039264  0  0  -0.103552  -0.167211  0  4.003999  0
C  C37  1  0.52788408  0.26085685  0.56695528  1  0  -0.153549  0  3.769893  0  0  -0.169705  0  4.018916  0  0  -0.173007  0  4.039496  0  0  -0.103547  -0.167305  0  4.004233  0
C  C38  1  0.33322791  0.73295582  0.38545040  1  0  -0.070605  0  3.803346  0  0  -0.087371  0  4.05746  0  0  -0.089123  0  4.080822  0  0  -0.103446  -0.085605  0  4.040249  0
C  C39  1  0.66675314  0.26704638  0.61455638  1  0  -0.070534  0  3.803139  0  0  -0.087309  0  4.057256  0  0  -0.089038  0  4.080631  0  0  -0.10343  -0.085548  0  4.040039  0
C  C40  1  0.16652490  0.79488076  0.45560624  1  0  -0.093242  0  3.805427  0  0  -0.108413  0  4.059794  0  0  -0.111269  0  4.082453  0  0  -0.106873  -0.106625  0  4.044343  0
C  C41  1  0.83345898  0.20512372  0.54440469  1  0  -0.09309  0  3.805401  0  0  -0.108325  0  4.059789  0  0  -0.111171  0  4.082421  0  0  -0.106874  -0.106537  0  4.044335  0
C  C42  1  0.13241272  0.86339070  0.57684459  1  0  -0.143478  0  3.762871  0  0  -0.158588  0  4.006035  0  0  -0.161141  0  4.027118  0  0  -0.098674  -0.157513  0  3.992665  0
C  C43  1  0.86758034  0.13661162  0.42316680  1  0  -0.143467  0  3.763037  0  0  -0.158517  0  4.006197  0  0  -0.161065  0  4.027281  0  0  -0.098639  -0.157445  0  3.992826  0
C  C44  1  0.27018561  0.87024468  0.62634266  1  0  0.131625  0  3.831438  0  0  0.133076  0  4.072049  0  0  0.134733  0  4.095805  0  0  0.078304  0.131313  0  4.056658  0
C  C45  1  0.72981224  0.12975432  0.37366330  1  0  0.131276  0  3.831645  0  0  0.13277  0  4.07223  0  0  0.134422  0  4.095997  0  0  0.078195  0.131015  0  4.056829  0
C  C46  1  0.72382557  0.81115632  0.58753555  1  0  0.014679  0  3.621426  0  0  -0.044722  0  3.878238  0  0  -0.040351  0  3.889508  0  0  -0.049936  -0.047594  0  3.870202  0
C  C47  1  0.27617393  0.18883820  0.41245410  1  0  0.014476  0  3.621671  0  0  -0.044691  0  3.878297  0  0  -0.040335  0  3.88956  0  0  -0.04997  -0.047584  0  3.870281  0
C  C48  1  0.82312174  0.65339272  0.62011211  1  0  -0.149285  0  3.655225  0  0  -0.194964  0  3.918522  0  0  -0.196828  0  3.930303  0  0  -0.161959  -0.193972  0  3.912334  0
C  C49  1  0.17688096  0.34660295  0.37988170  1  0  -0.149293  0  3.655212  0  0  -0.195025  0  3.91855  0  0  -0.196886  0  3.930335  0  0  -0.161983  -0.194017  0  3.912352  0
C  C50  1  0.79176422  0.62351701  0.76868832  1  0  -0.009613  0  3.630765  0  0  -0.074414  0  3.89258  0  0  -0.070473  0  3.903244  0  0  -0.05175  -0.085942  0  3.88247  0
C  C51  1  0.20824213  0.37648206  0.23130847  1  0  -0.009604  0  3.630747  0  0  -0.074439  0  3.892639  0  0  -0.070507  0  3.903307  0  0  -0.051779  -0.08598  0  3.882523  0
C  C52  1  0.15517747  0.35152385  0.85768904  1  0  0.096932  0  3.82318  0  0  0.097655  0  4.071143  0  0  0.096994  0  4.093316  0  0  0.085244  0.097416  0  4.060661  0
C  C53  1  0.84483024  0.64848194  0.14230515  1  0  0.097022  0  3.823078  0  0  0.097703  0  4.071106  0  0  0.097042  0  4.093279  0  0  0.085285  0.097465  0  4.060628  0
C  C54  1  0.31471549  0.31014242  0.89061598  1  0  -0.118241  0  3.736558  0  0  -0.135869  0  3.982643  0  0  -0.136464  0  4.001709  0  0  -0.09161  -0.136206  0  3.971287  0
C  C55  1  0.68528852  0.68985999  0.10938004  1  0  -0.118306  0  3.736531  0  0  -0.135878  0  3.982622  0  0  -0.13648  0  4.001691  0  0  -0.091569  -0.136215  0  3.971266  0
C  C56  1  0.38475588  0.42390956  0.90039792  1  0  -0.085136  0  3.762775  0  0  -0.099674  0  4.015962  0  0  -0.102718  0  4.037391  0  0  -0.098507  -0.097875  0  4.001927  0
C  C57  1  0.61524566  0.57609284  0.09960622  1  0  -0.085184  0  3.762812  0  0  -0.099743  0  4.016003  0  0  -0.102788  0  4.037438  0  0  -0.098527  -0.097942  0  4.001965  0
C  C58  1  0.29877955  0.57520606  0.88035853  1  0  -0.046067  0  3.73605  0  0  -0.066518  0  3.994312  0  0  -0.067044  0  4.015452  0  0  -0.089045  -0.066893  0  3.981395  0
C  C59  1  0.70122042  0.42479744  0.11964485  1  0  -0.046016  0  3.736113  0  0  -0.066487  0  3.994365  0  0  -0.067015  0  4.015509  0  0  -0.089038  -0.066863  0  3.981447  0
C  C60  1  0.14137302  0.61800273  0.84730502  1  0  -0.129363  0  3.726303  0  0  -0.147867  0  3.981756  0  0  -0.151232  0  4.001399  0  0  -0.094361  -0.144353  0  3.971785  0
C  C61  1  0.85862900  0.38200189  0.15269600  1  0  -0.129298  0  3.726247  0  0  -0.147879  0  3.981813  0  0  -0.151239  0  4.001444  0  0  -0.09436  -0.144362  0  3.971848  0
C  C62  1  0.07261123  0.50260618  0.83488399  1  0  0.091151  0  3.797994  0  0  0.076356  0  4.040738  0  0  0.080491  0  4.063371  0  0  0.101453  0.064039  0  4.023729  0
C  C63  1  0.92739520  0.49739624  0.16511065  1  0  0.091041  0  3.798195  0  0  0.076298  0  4.040943  0  0  0.080435  0  4.063579  0  0  0.101417  0.063969  0  4.023939  0
I  I64  1  0.77888514  0.02007362  0.90496744  1  0  -0.478849  0  1.428924  0  0  -0.429814  0  1.856943  0  0  -0.443619  0  1.818117  0  0  -0.212886  -0.417747  0  1.883744  0
I  I65  1  0.22112395  0.97992437  0.09503469  1  0  -0.478822  0  1.428895  0  0  -0.42978  0  1.856909  0  0  -0.443584  0  1.818082  0  0  -0.212892  -0.417709  0  1.8837  0
N  N66  1  0.27566253  0.93332608  0.74179758  1  0  -0.37135  0  3.304895  0  0  -0.310575  0  3.615379  0  0  -0.324696  0  3.620629  0  0  -0.376867  -0.301681  0  3.612554  0
N  N67  1  0.72434611  0.06666967  0.25820574  1  0  -0.371175  0  3.304959  0  0  -0.310458  0  3.61548  0  0  -0.324559  0  3.620692  0  0  -0.376809  -0.301565  0  3.612655  0
N  N68  1  0.54094955  0.84125039  0.62690878  1  0  -0.124372  0  3.511206  0  0  -0.036258  0  3.733981  0  0  -0.052858  0  3.758191  0  0  -0.246959  -0.025048  0  3.717078  0
N  N69  1  0.45905109  0.15874415  0.37308738  1  0  -0.124227  0  3.511214  0  0  -0.036241  0  3.734033  0  0  -0.052836  0  3.758244  0  0  -0.24698  -0.025029  0  3.717131  0
N  N70  1  0.92360996  0.49974005  0.80600983  1  0  3.8e-05  0  3.52807  0  0  0.085781  0  3.752434  0  0  0.073695  0  3.777414  0  0  -0.130083  0.121237  0  3.701443  0
N  N71  1  0.07639805  0.50026126  0.19398556  1  0  3.9e-05  0  3.528206  0  0  0.085786  0  3.752578  0  0  0.073697  0  3.777565  0  0  -0.130076  0.121271  0  3.701556  0
N  N72  1  0.91270229  0.35882816  0.81032903  1  0  -0.062914  0  2.851742  0  0  -0.064291  0  3.132782  0  0  -0.056478  0  3.140787  0  0  -0.076593  -0.078218  0  3.122383  0
N  N73  1  0.08730414  0.64117426  0.18966657  1  0  -0.063078  0  2.851752  0  0  -0.064427  0  3.132769  0  0  -0.056617  0  3.14077  0  0  -0.07664  -0.078364  0  3.122367  0
N  N74  1  0.05009195  0.26879309  0.84241948  1  0  -0.207847  0  3.269334  0  0  -0.165179  0  3.59847  0  0  -0.169174  0  3.599475  0  0  -0.240593  -0.164444  0  3.601276  0
N  N75  1  0.94991615  0.73121158  0.15757280  1  0  -0.207736  0  3.269313  0  0  -0.165084  0  3.598478  0  0  -0.169057  0  3.599451  0  0  -0.240622  -0.16435  0  3.601297  0
