# generated using pymatgen
data_CoH8(C3N)4
_symmetry_space_group_name_H-M   'P 1'
_cell_length_a   13.33618883
_cell_length_b   13.33618727
_cell_length_c   13.98188971
_cell_angle_alpha   90.00006049
_cell_angle_beta   90.00010780
_cell_angle_gamma   89.99992220
_symmetry_Int_Tables_number   1
_chemical_formula_structural   CoH8(C3N)4
_chemical_formula_sum   'Co4 H32 C48 N16'
_cell_volume   2486.73377629
_cell_formula_units_Z   4
loop_
 _symmetry_equiv_pos_site_id
 _symmetry_equiv_pos_as_xyz
  1  'x, y, z'
loop_
 _atom_site_type_symbol
 _atom_site_label
 _atom_site_symmetry_multiplicity
 _atom_site_fract_x
 _atom_site_fract_y
 _atom_site_fract_z
 _atom_site_occupancy
 _atom_site_pbe_bader_charge
 _atom_site_pbe_bader_spin_density
 _atom_site_pbe_cm5_charge
 _atom_site_pbe_ddec_charge
 _atom_site_pbe_ddec_spin_density
 _atom_site_pbe_ddec_sum_bond_order
 _atom_site_pbe_magmom
Co  Co0  1  0.98932933  0.98932864  0.12499946  1  1.115598  2.4912  0.722718  0.570991  2.732349  2.869519  2.416
Co  Co1  1  0.01067160  0.01067207  0.62499922  1  1.115591  2.491197  0.72271  0.570987  2.73235  2.869501  2.416
Co  Co2  1  0.01067269  0.98932823  0.87499953  1  1.115509  2.491195  0.722734  0.571056  2.732348  2.869549  2.416
Co  Co3  1  0.98932800  0.01067201  0.37499953  1  1.115586  2.491194  0.722724  0.570991  2.732348  2.869519  2.416
H  H4  1  0.22399222  0.97444033  0.09689744  1  0.08984  0.002114  0.118496  0.104488  0.000833  1.005931  0.001
H  H5  1  0.39811112  0.04246937  0.39880054  1  0.035766  6e-05  0.096289  0.093165  -3.9e-05  1.015869  0.0
H  H6  1  0.58131788  0.04274893  0.39878782  1  0.051163  4.1e-05  0.096377  0.09423  -3.7e-05  1.014216  0.0
H  H7  1  0.75557081  0.04832837  0.39807920  1  0.085483  0.001765  0.117142  0.101942  0.000619  1.011048  0.001
H  H8  1  0.77601015  0.02555734  0.59689568  1  0.089742  0.002115  0.118486  0.104478  0.000833  1.005975  0.001
H  H9  1  0.60189037  0.95752865  0.89879938  1  0.03565  6e-05  0.096247  0.093114  -3.9e-05  1.015875  0.0
H  H10  1  0.41868360  0.95725133  0.89878635  1  0.051206  4.1e-05  0.096379  0.094238  -3.7e-05  1.014254  0.0
H  H11  1  0.24442992  0.95167415  0.89808028  1  0.085478  0.001765  0.117137  0.101916  0.000619  1.011041  0.001
H  H12  1  0.02555824  0.22399102  0.84689638  1  0.089819  0.002114  0.118483  0.104465  0.000833  1.005963  0.001
H  H13  1  0.95752907  0.39811022  0.14879922  1  0.035747  6e-05  0.096256  0.093143  -3.9e-05  1.015855  0.0
H  H14  1  0.95725225  0.58131701  0.14878644  1  0.051158  4.1e-05  0.096381  0.094249  -3.7e-05  1.014269  0.0
H  H15  1  0.95167408  0.75557071  0.14807989  1  0.085025  0.001765  0.11715  0.101954  0.000619  1.011027  0.001
H  H16  1  0.97444014  0.77600844  0.34689568  1  0.089793  0.002114  0.118472  0.104439  0.000833  1.005955  0.001
H  H17  1  0.04246891  0.60189126  0.64880033  1  0.035788  6e-05  0.096262  0.093143  -3.9e-05  1.015885  0.0
H  H18  1  0.04274497  0.41868447  0.64879094  1  0.051002  4.1e-05  0.09638  0.094219  -3.7e-05  1.014193  0.0
H  H19  1  0.04832540  0.24442927  0.64808137  1  0.084997  0.001765  0.117151  0.101897  0.000619  1.01109  0.001
H  H20  1  0.77601057  0.97444117  0.90310439  1  0.089744  0.002114  0.118486  0.104468  0.000833  1.005973  0.001
H  H21  1  0.60189218  0.04246934  0.60120111  1  0.035657  6e-05  0.09624  0.093128  -3.9e-05  1.015901  0.0
H  H22  1  0.41868542  0.04274916  0.60121239  1  0.051122  4.1e-05  0.096393  0.09426  -3.7e-05  1.014181  0.0
H  H23  1  0.24442873  0.04832733  0.60191887  1  0.085448  0.001765  0.117124  0.101872  0.000619  1.011105  0.001
H  H24  1  0.22399167  0.02556061  0.40310452  1  0.089787  0.002114  0.118502  0.104484  0.000833  1.006015  0.001
H  H25  1  0.39810944  0.95753133  0.10120172  1  0.035687  6e-05  0.096249  0.09313  -3.9e-05  1.015889  0.0
H  H26  1  0.58131621  0.95725302  0.10121333  1  0.051074  4.1e-05  0.096386  0.094242  -3.7e-05  1.014222  0.0
H  H27  1  0.75556914  0.95167109  0.10191939  1  0.085444  0.001765  0.117113  0.101891  0.000619  1.011099  0.001
H  H28  1  0.97444107  0.22398998  0.15310400  1  0.089743  0.002114  0.11848  0.104458  0.000833  1.00596  0.001
H  H29  1  0.04246850  0.39810824  0.85119991  1  0.03565  6e-05  0.096249  0.093154  -3.9e-05  1.015873  0.0
H  H30  1  0.04275107  0.58131578  0.85121287  1  0.051193  4.1e-05  0.096386  0.094244  -3.7e-05  1.014205  0.0
H  H31  1  0.04832826  0.75557098  0.85191887  1  0.085443  0.001765  0.11712  0.101871  0.000619  1.011102  0.001
H  H32  1  0.02555992  0.77600851  0.65310239  1  0.08984  0.002114  0.118494  0.104472  0.000833  1.005984  0.001
H  H33  1  0.95753138  0.60188897  0.35120043  1  0.035679  6e-05  0.096288  0.093172  -3.9e-05  1.015856  0.0
H  H34  1  0.95725107  0.41868143  0.35121464  1  0.051197  4.1e-05  0.096396  0.094284  -3.7e-05  1.014191  0.0
H  H35  1  0.95167163  0.24443074  0.35192047  1  0.085469  0.001765  0.117129  0.101909  0.000619  1.01107  0.001
C  C36  1  0.20759105  0.98630434  0.17211903  1  0.397992  0.020767  0.011508  -0.04559  0.012361  3.956034  0.016
C  C37  1  0.43766959  0.02360184  0.33292463  1  0.073919  0.002838  -0.095029  -0.129723  0.001512  4.003378  0.002
C  C38  1  0.54179529  0.02370975  0.33291971  1  -0.099289  0.0021  -0.095494  -0.129964  0.001114  4.001522  0.001
C  C39  1  0.77188726  0.02482085  0.32536586  1  0.370452  0.020082  0.008529  -0.049794  0.011922  3.966067  0.015
C  C40  1  0.79241147  0.01369342  0.67211728  1  0.398064  0.020767  0.011504  -0.045608  0.012361  3.956051  0.016
C  C41  1  0.56233176  0.97639760  0.83292342  1  0.074029  0.002838  -0.095046  -0.12966  0.001512  4.003355  0.002
C  C42  1  0.45820606  0.97628970  0.83291833  1  -0.099266  0.0021  -0.095519  -0.130024  0.001114  4.001623  0.001
C  C43  1  0.22811408  0.97518083  0.82536622  1  0.370454  0.020081  0.008564  -0.049671  0.011921  3.966041  0.015
C  C44  1  0.01369362  0.20758983  0.92211724  1  0.397978  0.020768  0.011517  -0.045562  0.012361  3.955952  0.016
C  C45  1  0.97639718  0.43766945  0.08292333  1  0.073982  0.002838  -0.095054  -0.129748  0.001512  4.003306  0.002
C  C46  1  0.97629063  0.54179517  0.08291837  1  -0.099279  0.0021  -0.095512  -0.130017  0.001114  4.001699  0.001
C  C47  1  0.97518146  0.77188641  0.07536585  1  0.370932  0.020082  0.008539  -0.049778  0.011922  3.966051  0.015
C  C48  1  0.98630416  0.79241046  0.42211657  1  0.397969  0.020767  0.011478  -0.045554  0.01236  3.955993  0.016
C  C49  1  0.02359916  0.56233120  0.58292436  1  0.073844  0.002838  -0.095074  -0.129818  0.001512  4.003316  0.002
C  C50  1  0.02370571  0.45820549  0.58292216  1  -0.098795  0.0021  -0.095505  -0.129993  0.001114  4.001511  0.001
C  C51  1  0.02481637  0.22811274  0.57536871  1  0.371166  0.02008  0.008554  -0.049609  0.011922  3.965952  0.015
C  C52  1  0.79241247  0.98630432  0.82788282  1  0.39809  0.020768  0.011487  -0.045595  0.012361  3.956067  0.016
C  C53  1  0.56233224  0.02360045  0.66707699  1  0.073825  0.002838  -0.095088  -0.129762  0.001512  4.003426  0.002
C  C54  1  0.45820654  0.02371000  0.66708048  1  -0.099252  0.0021  -0.095479  -0.129953  0.001114  4.001505  0.001
C  C55  1  0.22811307  0.02482067  0.67463219  1  0.370427  0.020082  0.008599  -0.049635  0.011922  3.966064  0.015
C  C56  1  0.20759037  0.01369661  0.32788362  1  0.398413  0.020763  0.011461  -0.045598  0.012361  3.955973  0.016
C  C57  1  0.43766878  0.97640030  0.16707770  1  0.073776  0.002838  -0.095035  -0.129777  0.001512  4.003352  0.002
C  C58  1  0.54179448  0.97629151  0.16708136  1  -0.099179  0.0021  -0.095488  -0.129931  0.001114  4.001531  0.001
C  C59  1  0.77188571  0.97518009  0.17463204  1  0.370433  0.020084  0.008522  -0.049771  0.011923  3.9661  0.015
C  C60  1  0.98630496  0.20758944  0.07788242  1  0.398046  0.020766  0.011498  -0.045576  0.01236  3.95602  0.016
C  C61  1  0.02360109  0.43766833  0.91707656  1  0.074038  0.002838  -0.09509  -0.129845  0.001512  4.003383  0.002
C  C62  1  0.02371124  0.54179404  0.91708090  1  -0.09929  0.0021  -0.095505  -0.12996  0.001114  4.001517  0.001
C  C63  1  0.02482085  0.77188679  0.92463221  1  0.370415  0.020082  0.008583  -0.049626  0.011922  3.965966  0.015
C  C64  1  0.01369437  0.79240971  0.57788151  1  0.397988  0.020767  0.011512  -0.045571  0.012361  3.956021  0.016
C  C65  1  0.97639744  0.56232971  0.41707707  1  0.074065  0.002838  -0.09504  -0.129775  0.001512  4.003389  0.002
C  C66  1  0.97628803  0.45820400  0.41708274  1  -0.099281  0.002101  -0.095472  -0.130032  0.001114  4.001578  0.001
C  C67  1  0.97517843  0.22811425  0.42463383  1  0.370439  0.020083  0.008536  -0.049765  0.011923  3.966004  0.015
C  C68  1  0.27312476  0.99999996  0.25000149  1  0.020777  0.01891  -0.032608  -0.03523  0.009635  4.077116  0.012
C  C69  1  0.38259757  0.99999988  0.25000159  1  -0.070685  0.003092  -0.012644  0.079949  0.001609  4.050254  0.002
C  C70  1  0.59683419  0.00000124  0.25000034  1  -0.092609  0.003931  -0.013485  0.078444  0.00204  4.051412  0.002
C  C71  1  0.70633324  0.00000116  0.24999972  1  0.075157  0.015972  -0.033219  -0.0346  0.008203  4.077075  0.01
C  C72  1  0.72687792  0.99999864  0.74999988  1  0.020869  0.01891  -0.032463  -0.034968  0.009635  4.076838  0.012
C  C73  1  0.61740436  0.99999946  0.75000050  1  -0.070712  0.003092  -0.012624  0.079735  0.001609  4.05026  0.002
C  C74  1  0.40316692  0.00000016  0.74999911  1  -0.092591  0.003931  -0.013486  0.07851  0.00204  4.051344  0.002
C  C75  1  0.29366712  0.00000098  0.74999902  1  0.075167  0.015972  -0.033286  -0.034738  0.008203  4.077149  0.01
C  C76  1  0.99999840  0.27312386  0.00000028  1  0.02086  0.01891  -0.032557  -0.035147  0.009635  4.076994  0.012
C  C77  1  0.99999860  0.38259650  0.99999964  1  -0.070943  0.003092  -0.012576  0.079961  0.001609  4.050175  0.002
C  C78  1  0.00000212  0.59683382  0.99999960  1  -0.092601  0.003931  -0.013494  0.078475  0.00204  4.051443  0.002
C  C79  1  0.00000204  0.70633363  0.99999893  1  0.075159  0.015972  -0.033254  -0.034683  0.008203  4.07711  0.01
C  C80  1  0.99999861  0.72687527  0.49999944  1  0.020867  0.01891  -0.032593  -0.035229  0.009635  4.077165  0.012
C  C81  1  0.99999793  0.61740246  0.50000010  1  -0.070885  0.003092  -0.012661  0.080015  0.001609  4.050172  0.002
C  C82  1  0.99999733  0.40316581  0.50000214  1  -0.092979  0.003932  -0.013471  0.078555  0.00204  4.051347  0.002
C  C83  1  0.99999590  0.29366600  0.50000281  1  0.074884  0.015973  -0.033256  -0.034703  0.008203  4.077124  0.01
N  N84  1  0.11153590  0.99132610  0.20188602  1  -0.782349  0.094054  -0.284749  -0.179937  0.048386  3.676969  0.06
N  N85  1  0.86802040  0.01542453  0.29658156  1  -0.775863  0.089833  -0.288401  -0.188525  0.046409  3.683949  0.059
N  N86  1  0.88846594  0.00867244  0.70188444  1  -0.75172  0.093831  -0.284766  -0.179994  0.048387  3.677055  0.06
N  N87  1  0.13198088  0.98457787  0.79658247  1  -0.775765  0.089833  -0.288495  -0.18874  0.046412  3.684067  0.059
N  N88  1  0.00867279  0.11153541  0.95188498  1  -0.751679  0.093831  -0.284747  -0.179971  0.048387  3.676995  0.06
N  N89  1  0.98457610  0.86801956  0.04658153  1  -0.775848  0.089833  -0.288412  -0.188527  0.046409  3.684017  0.059
N  N90  1  0.99132730  0.88846491  0.45188370  1  -0.751711  0.09383  -0.284733  -0.179987  0.048386  3.677054  0.06
N  N91  1  0.01542242  0.13197955  0.54658213  1  -0.775863  0.089834  -0.28846  -0.18867  0.046411  3.684004  0.059
N  N92  1  0.88846687  0.99132741  0.79811511  1  -0.782447  0.094055  -0.284759  -0.179967  0.048387  3.677132  0.06
N  N93  1  0.13198069  0.01542451  0.70341720  1  -0.748724  0.089644  -0.288364  -0.188438  0.046407  3.683925  0.059
N  N94  1  0.11153516  0.00867349  0.29811646  1  -0.752082  0.093836  -0.284723  -0.17998  0.048387  3.677029  0.06
N  N95  1  0.86801964  0.98457628  0.20341651  1  -0.748699  0.089643  -0.288414  -0.188549  0.046409  3.683994  0.059
N  N96  1  0.99132892  0.11153498  0.04811530  1  -0.782412  0.094054  -0.284741  -0.179953  0.048386  3.67708  0.06
N  N97  1  0.01542308  0.86801999  0.95341662  1  -0.748727  0.089644  -0.28843  -0.188595  0.04641  3.684032  0.059
N  N98  1  0.00867260  0.88846414  0.54811376  1  -0.782363  0.094055  -0.284722  -0.179924  0.048386  3.676964  0.06
N  N99  1  0.98457626  0.13198034  0.45341674  1  -0.748709  0.089645  -0.288374  -0.188455  0.046408  3.683894  0.059
