# generated using pymatgen
data_CoH10C14(NO)4
_symmetry_space_group_name_H-M   'P 1'
_cell_length_a   7.30368598
_cell_length_b   7.47644100
_cell_length_c   13.88013842
_cell_angle_alpha   99.73351672
_cell_angle_beta   105.24157486
_cell_angle_gamma   90.07858388
_symmetry_Int_Tables_number   1
_chemical_formula_structural   CoH10C14(NO)4
_chemical_formula_sum   'Co2 H20 C28 N8 O8'
_cell_volume   719.90949493
_cell_formula_units_Z   2
loop_
 _symmetry_equiv_pos_site_id
 _symmetry_equiv_pos_as_xyz
  1  'x, y, z'
loop_
 _atom_site_type_symbol
 _atom_site_label
 _atom_site_symmetry_multiplicity
 _atom_site_fract_x
 _atom_site_fract_y
 _atom_site_fract_z
 _atom_site_occupancy
 _atom_site_hle17_ddec_charge
 _atom_site_hle17_ddec_spin_density
 _atom_site_hle17_ddec_sum_bond_order
 _atom_site_hle17_magmom
 _atom_site_hse06_10hf_bader_charge
 _atom_site_hse06_10hf_bader_spin_density
 _atom_site_hse06_10hf_ddec_charge
 _atom_site_hse06_10hf_ddec_spin_density
 _atom_site_hse06_10hf_ddec_sum_bond_order
 _atom_site_hse06_10hf_magmom
 _atom_site_hse06_ddec_charge
 _atom_site_hse06_ddec_spin_density
 _atom_site_hse06_ddec_sum_bond_order
 _atom_site_hse06_magmom
 _atom_site_pbe_cm5_charge
 _atom_site_pbe_ddec_charge
 _atom_site_pbe_ddec_spin_density
 _atom_site_pbe_ddec_sum_bond_order
 _atom_site_pbe_magmom
Co  Co0  1  0.50000101  0.49999745  0.49999883  1  1.077023  2.83075  2.028789  2.581  1.364209  2.6419  1.067208  2.798206  2.432367  2.627  1.134806  2.85511  2.361014  2.708  0.683169  1.020872  2.752671  2.483036  2.556
Co  Co1  1  0.00000328  0.49999772  0.49999976  1  1.076769  -2.830233  2.027773  -2.58  1.363284  -2.641924  1.06676  -2.798195  2.431694  -2.627  1.134554  -2.85482  2.360415  -2.707  0.683168  1.020298  -2.753251  2.482369  -2.557
H  H2  1  0.61107312  0.62633932  0.80940240  1  0.107734  4.5e-05  0.9514  0.0  0.117662  0.000126  0.115646  2.7e-05  1.012917  0.0  0.120194  -1.3e-05  1.009814  0.0  0.103258  0.111092  8.4e-05  1.016257  0.0
H  H3  1  0.80215655  0.37420080  0.19075685  1  0.108181  -4.1e-05  0.950021  0.0  0.120376  -0.000109  0.116194  -1.7e-05  1.011426  0.0  0.120734  1.4e-05  1.00832  0.0  0.103874  0.11162  -4.8e-05  1.014753  0.0
H  H4  1  0.38892506  0.37366370  0.19059766  1  0.107722  4.8e-05  0.951413  0.0  0.117674  0.000126  0.115635  2.7e-05  1.012933  0.0  0.120182  -1.3e-05  1.009831  0.0  0.103263  0.111079  8.4e-05  1.016272  0.0
H  H5  1  0.19784745  0.62580496  0.80924212  1  0.108185  -4e-05  0.950147  0.0  0.120329  -0.000109  0.116234  -1.7e-05  1.011506  0.0  0.120775  1.4e-05  1.008397  0.0  0.103898  0.111682  -4.8e-05  1.014811  0.0
H  H6  1  0.69994225  0.75031198  0.99245141  1  0.081155  -2e-05  0.964875  0.0  0.041571  -0.000105  0.095278  -4e-05  1.020641  0.0  0.098377  -2.8e-05  1.0186  0.0  0.097247  0.092722  -4.8e-05  1.022897  0.0
H  H7  1  0.70731233  0.25024272  0.00765123  1  0.081013  4e-05  0.962319  0.0  0.034971  0.000112  0.094806  4.2e-05  1.018621  0.0  0.097903  2.7e-05  1.016606  0.0  0.096982  0.092226  7.2e-05  1.02092  0.0
H  H8  1  0.30005721  0.24968835  0.00754641  1  0.081171  -1.8e-05  0.964772  0.0  0.041533  -0.000106  0.09527  -4e-05  1.020572  0.0  0.098368  -2.8e-05  1.018532  0.0  0.097249  0.092715  -4.8e-05  1.02283  0.0
H  H9  1  0.29268593  0.74976168  0.99234753  1  0.081018  3.7e-05  0.962325  0.0  0.034824  0.000112  0.094829  4.2e-05  1.018604  0.0  0.097927  2.6e-05  1.016586  0.0  0.096963  0.092249  7.2e-05  1.020902  0.0
H  H10  1  0.77275159  0.83919398  0.13920367  1  0.10763  -6e-06  0.951578  0.0  0.110722  4e-06  0.122446  -1e-06  1.003398  0.0  0.126079  -8e-06  1.001512  0.0  0.113543  0.119198  2.3e-05  1.006076  0.0
H  H11  1  0.63289426  0.16176011  0.86046612  1  0.108335  2e-05  0.949918  0.0  0.095299  7e-06  0.122755  7e-06  1.002181  0.0  0.126425  8e-06  1.000262  0.0  0.11376  0.119522  7e-06  1.004814  0.0
H  H12  1  0.22725234  0.16081040  0.86079588  1  0.107533  -7e-06  0.951435  0.0  0.110713  4e-06  0.122402  -1e-06  1.003216  0.0  0.126034  -8e-06  1.001327  0.0  0.113526  0.119155  2.3e-05  1.005895  0.0
H  H13  1  0.36710243  0.83824155  0.13953361  1  0.108294  1.4e-05  0.949943  0.0  0.09531  7e-06  0.122706  7e-06  1.002222  0.0  0.126367  9e-06  1.000312  0.0  0.113738  0.119472  7e-06  1.004854  0.0
H  H14  1  0.87835889  0.91323505  0.32530996  1  0.113096  -2.2e-05  0.929481  0.0  0.165012  -4.6e-05  0.121834  -3e-06  0.989945  0.0  0.125549  -4e-06  0.986197  0.0  0.135086  0.117619  -1.4e-05  0.994352  0.0
H  H15  1  0.55287617  0.08762251  0.67441485  1  0.113996  1.3e-05  0.930249  0.0  0.193354  2e-05  0.122649  -7e-06  0.990564  0.0  0.126419  -7e-06  0.986741  0.0  0.135364  0.118339  1.1e-05  0.995144  0.0
H  H16  1  0.12164050  0.08676392  0.67468844  1  0.113116  -2.2e-05  0.929434  0.0  0.164961  -4.6e-05  0.121868  -3e-06  0.989902  0.0  0.125575  -4e-06  0.986151  0.0  0.135096  0.117653  -1.4e-05  0.994307  0.0
H  H17  1  0.44711875  0.91237235  0.32558470  1  0.113967  1.4e-05  0.930263  0.0  0.193382  2e-05  0.122598  -7e-06  0.990607  0.0  0.126365  -7e-06  0.986789  0.0  0.135367  0.118289  1.1e-05  0.995188  0.0
H  H18  1  0.35791633  0.89208586  0.46951720  1  0.133497  -0.00039  0.977173  0.0  0.196072  -0.000304  0.139657  -0.000252  1.044402  0.0  0.143751  -0.000291  1.041696  0.0  0.120819  0.136004  -0.000229  1.046947  0.0
H  H19  1  0.88868922  0.10824204  0.53056247  1  0.132333  0.000366  0.979776  0.0  0.180395  0.000291  0.138657  0.000245  1.046704  0.0  0.142704  0.000288  1.04405  0.0  0.120631  0.135033  0.000201  1.049251  0.0
H  H20  1  0.64208015  0.10791173  0.53048138  1  0.133502  -0.00039  0.977107  0.0  0.196416  -0.000303  0.139654  -0.000252  1.044346  0.0  0.143745  -0.000291  1.041642  0.0  0.120828  0.135993  -0.000229  1.046899  0.0
H  H21  1  0.11131024  0.89175827  0.46943679  1  0.132332  0.000366  0.9798  0.0  0.180398  0.000291  0.138649  0.000245  1.046726  0.0  0.142701  0.000288  1.044068  0.0  0.120628  0.135024  0.000201  1.049274  0.0
C  C22  1  0.84310945  0.53610348  0.68690630  1  0.639354  0.000123  3.890337  0.0  1.613733  0.000117  0.597597  6.5e-05  4.191174  0.0  0.636402  1.5e-05  4.181297  0.0  0.204715  0.571327  0.000171  4.195261  0.0
C  C23  1  0.15689121  0.46389273  0.31309417  1  0.63944  0.000116  3.890357  0.0  1.613749  0.000119  0.597692  6.6e-05  4.191175  0.0  0.636502  1.5e-05  4.181292  0.0  0.204754  0.571421  0.000172  4.195265  0.0
C  C24  1  0.89891101  0.61353953  0.79824491  1  -0.038647  -0.000271  3.717591  0.0  -0.088077  -0.000153  -0.017344  -8.1e-05  3.946936  0.0  -0.023344  -4.7e-05  3.966764  0.0  -0.013287  -0.017952  -0.000152  3.938687  0.0
C  C25  1  0.10109115  0.38645803  0.20175590  1  -0.038691  -0.000273  3.717679  0.0  -0.088098  -0.000154  -0.017392  -8.2e-05  3.947028  0.0  -0.023393  -4.9e-05  3.966855  0.0  -0.013296  -0.018001  -0.000151  3.938774  0.0
C  C26  1  0.76004853  0.65228844  0.85103208  1  -0.072643  -5.5e-05  3.747045  0.0  0.062597  -0.000394  -0.094871  -0.000263  3.995501  0.0  -0.09466  -0.000237  4.014275  0.0  -0.086443  -0.095082  -0.000273  3.986056  0.0
C  C27  1  0.90930533  0.34814354  0.14903729  1  -0.072465  0.000405  3.744044  0.001  0.043211  0.00052  -0.094889  0.000328  3.992691  0.0  -0.094636  0.000275  4.011415  0.0  -0.086727  -0.09508  0.000434  3.983219  0.001
C  C28  1  0.23995100  0.34771323  0.14896732  1  -0.072625  -5.3e-05  3.747146  0.0  0.062578  -0.000393  -0.094856  -0.000262  3.995606  0.0  -0.094644  -0.000236  4.014381  0.0  -0.086434  -0.095067  -0.000273  3.986161  0.0
C  C29  1  0.09069853  0.65185950  0.85096139  1  -0.072548  0.000387  3.744087  0.001  0.043217  0.00052  -0.094998  0.000327  3.992732  0.0  -0.094744  0.000274  4.011452  0.0  -0.086755  -0.095207  0.000434  3.983248  0.001
C  C30  1  0.81196084  0.72333593  0.95405678  1  -0.104645  -0.000899  3.744262  -0.001  -0.113265  -0.000533  -0.124489  -0.000267  3.993527  0.0  -0.127722  -0.000107  4.014912  0.0  -0.089074  -0.122997  -0.000637  3.980192  -0.001
C  C31  1  0.85782739  0.27707310  0.04601913  1  -0.104544  0.000519  3.739814  0.001  -0.038445  0.000471  -0.12407  0.000237  3.989203  0.0  -0.127284  8.1e-05  4.010531  0.0  -0.089373  -0.122601  0.000521  3.975938  0.001
C  C32  1  0.18804160  0.27666708  0.04594387  1  -0.104608  -0.000915  3.744211  -0.001  -0.11323  -0.000532  -0.124432  -0.000267  3.993486  0.0  -0.127664  -0.000107  4.014874  0.0  -0.089078  -0.122945  -0.000637  3.980156  -0.001
C  C33  1  0.14216972  0.72293673  0.95398000  1  -0.104546  0.000544  3.739943  0.001  -0.03828  0.000471  -0.124101  0.000237  3.989334  0.0  -0.127317  8.1e-05  4.010662  0.0  -0.089351  -0.12263  0.000521  3.97607  0.001
C  C34  1  0.00450245  0.75869245  0.00869920  1  0.032984  0.00021  3.77045  0.0  -0.072545  0.000114  0.047575  5.6e-05  4.007217  0.0  0.046017  2.3e-05  4.031364  0.0  -0.011098  0.048963  0.000196  3.99076  0.0
C  C35  1  0.99549594  0.24131467  0.99129913  1  0.032877  0.000228  3.77039  0.0  -0.071753  0.000115  0.047453  5.6e-05  4.007152  0.0  0.045893  2.2e-05  4.031301  0.0  -0.011118  0.048843  0.000197  3.990698  0.0
C  C36  1  0.05971515  0.82199445  0.11895267  1  0.122429  -0.000125  3.728208  0.0  0.058943  7.3e-05  0.128157  3.3e-05  3.968038  0.0  0.137955  6e-06  3.987614  0.0  0.025009  0.119562  -1.9e-05  3.95602  0.0
C  C37  1  0.94028580  0.17800721  0.88104692  1  0.122506  -0.000114  3.728212  0.0  0.058694  7.4e-05  0.128277  3.3e-05  3.967993  0.0  0.138075  7e-06  3.98757  0.0  0.025031  0.11968  -1.8e-05  3.95598  0.0
C  C38  1  0.92433894  0.85096261  0.17554665  1  -0.147323  0.000562  3.704403  0.001  0.007822  0.000447  -0.168522  0.000213  3.959898  0.0  -0.177526  2.3e-05  3.977483  0.0  -0.073133  -0.163643  0.000743  3.952529  0.001
C  C39  1  0.74840938  0.14971036  0.82432650  1  -0.145808  -0.000395  3.701675  -0.001  0.005909  -0.000323  -0.166575  -0.000146  3.957193  0.0  -0.175846  1.1e-05  3.974796  0.0  -0.071816  -0.161441  -0.000479  3.949823  -0.001
C  C40  1  0.07565917  0.14903906  0.82445256  1  -0.147202  0.000557  3.704216  0.001  0.007773  0.000447  -0.168447  0.000213  3.959707  0.0  -0.177445  2.2e-05  3.977283  0.0  -0.073093  -0.163568  0.000743  3.95234  0.001
C  C41  1  0.25159008  0.85028993  0.17567419  1  -0.145681  -0.000363  3.701748  0.0  0.005761  -0.000322  -0.16642  -0.000146  3.957261  0.0  -0.175683  1.1e-05  3.974866  0.0  -0.071762  -0.161287  -0.000479  3.949886  -0.001
C  C42  1  0.97917527  0.89223804  0.27977663  1  0.119999  -0.00035  3.582946  -0.001  0.420824  -0.000575  0.075873  -0.000247  3.835302  0.0  0.088816  -0.0001  3.84497  0.0  0.070211  0.06373  -0.000523  3.835019  -0.001
C  C43  1  0.69918712  0.10841069  0.72006424  1  0.117768  0.000432  3.584348  0.001  0.406469  0.000748  0.07365  0.000335  3.836878  0.001  0.086699  0.000123  3.846378  0.0  0.069397  0.061355  0.00068  3.836849  0.001
C  C44  1  0.02082568  0.10776363  0.72022297  1  0.119924  -0.000336  3.582935  0.0  0.420784  -0.000575  0.075752  -0.000247  3.835356  0.0  0.088711  -0.0001  3.845006  0.0  0.070152  0.063609  -0.000523  3.835073  -0.001
C  C45  1  0.30080936  0.89158689  0.27993507  1  0.11774  0.000413  3.58449  0.001  0.406545  0.000748  0.073637  0.000335  3.837019  0.001  0.08669  0.000122  3.84651  0.0  0.069346  0.06134  0.00068  3.836992  0.001
C  C46  1  0.22110021  0.95190358  0.44234505  1  -0.206531  3.2e-05  3.557917  0.0  0.170199  2.7e-05  -0.266805  1.1e-05  3.796276  0.0  -0.26971  4e-06  3.799374  0.0  -0.06803  -0.264262  1.1e-05  3.795732  0.0
C  C47  1  0.77889911  0.04809398  0.55765537  1  -0.206494  3.5e-05  3.557813  0.0  0.169809  2.6e-05  -0.266768  1.1e-05  3.7962  0.0  -0.269667  4e-06  3.799301  0.0  -0.068011  -0.264217  1.1e-05  3.795656  0.0
C  C48  1  0.23749652  0.15943657  0.47517006  1  0.689748  -3e-06  3.828809  0.0  1.658051  1e-05  0.650708  3e-06  4.129877  0.0  0.687016  6.8e-05  4.121547  0.0  0.219887  0.626416  -7.1e-05  4.132076  0.0
C  C49  1  0.76250435  0.84056372  0.52483011  1  0.689803  -9e-06  3.828792  0.0  1.657992  1.5e-05  0.650753  7e-06  4.129904  0.0  0.687056  6.8e-05  4.12158  0.0  0.219904  0.626461  -7.1e-05  4.132102  0.0
N  N50  1  0.71862072  0.39860226  0.43711128  1  -0.563959  -3.7e-05  2.852304  0.0  -0.291652  -6.9e-05  -0.600154  -3.2e-05  3.210589  0.0  -0.639341  2.9e-05  3.216505  0.0  -0.302269  -0.565948  -8.7e-05  3.203498  0.0
N  N51  1  0.28138577  0.60139661  0.56289313  1  -0.564053  -4.1e-05  2.852175  0.0  -0.291458  -5.5e-05  -0.600202  -2.9e-05  3.210415  0.0  -0.639407  2.2e-05  3.216361  0.0  -0.302345  -0.565991  -8.6e-05  3.203322  0.0
N  N52  1  0.68317825  0.27389623  0.36643676  1  0.434204  4.9e-05  4.157549  0.0  -0.347324  -5.2e-05  0.474194  -9e-06  4.469442  0.0  0.495028  -2.7e-05  4.5055  0.0  0.100045  0.458216  -1.9e-05  4.437358  0.0
N  N53  1  0.31682710  0.72610807  0.63356802  1  0.434236  5.3e-05  4.157534  0.0  -0.347403  -5.9e-05  0.474204  -1.3e-05  4.469443  0.0  0.495034  -8e-06  4.505497  0.0  0.100061  0.458224  -2e-05  4.437356  0.0
N  N54  1  0.64894219  0.15299384  0.29818693  1  -0.405152  -0.000372  2.375598  -0.001  -0.048155  -0.000445  -0.423189  -0.000225  2.615293  0.0  -0.446253  -0.000342  2.631864  0.0  -0.185107  -0.393029  -0.000247  2.595608  0.0
N  N55  1  0.35106010  0.84700646  0.70181272  1  -0.405074  -0.000375  2.375665  -0.001  -0.048149  -0.000445  -0.423101  -0.000225  2.615381  0.0  -0.446156  -0.000355  2.631948  -0.001  -0.185019  -0.392942  -0.00025  2.595695  0.0
N  N56  1  0.16558907  0.90879816  0.33118234  1  0.036234  -0.000268  3.530019  0.0  -1.299771  -0.000191  0.131678  -0.000108  3.736534  0.0  0.120071  -1.9e-05  3.758202  0.0  -0.204639  0.135974  -0.00021  3.726352  0.0
N  N57  1  0.83441039  0.09120212  0.66881836  1  0.036176  -0.000277  3.529993  0.0  -1.299803  -0.00019  0.131639  -0.000108  3.736505  0.0  0.12003  -1.9e-05  3.75817  0.0  -0.20468  0.135933  -0.00021  3.726322  0.0
O  O58  1  0.66586812  0.50606256  0.64500552  1  -0.628329  0.037142  2.108186  0.063  -1.185163  0.048186  -0.597365  0.026773  2.379978  0.042  -0.629888  0.020914  2.367367  0.031  -0.315477  -0.572065  0.03409  2.385367  0.054
O  O59  1  0.02164976  0.49354254  0.35506959  1  -0.627857  -0.037387  2.105758  -0.063  -1.193748  -0.048375  -0.596921  -0.026911  2.37756  -0.042  -0.629549  -0.020941  2.365311  -0.031  -0.315471  -0.571552  -0.03435  2.382646  -0.055
O  O60  1  0.33413410  0.49393642  0.35499184  1  -0.628342  0.037145  2.108189  0.063  -1.185198  0.048187  -0.597379  0.026774  2.379975  0.042  -0.629907  0.020915  2.367365  0.031  -0.315467  -0.57208  0.034091  2.385363  0.054
O  O61  1  0.97835076  0.50645097  0.64492989  1  -0.627784  -0.037389  2.105688  -0.063  -1.193706  -0.048376  -0.596837  -0.02691  2.377477  -0.042  -0.629479  -0.02094  2.365265  -0.031  -0.315437  -0.571471  -0.034349  2.382569  -0.055
O  O62  1  0.08671306  0.23353258  0.48593528  1  -0.619192  -0.028599  2.136839  -0.05  -1.1976  -0.040422  -0.580272  -0.022724  2.401872  -0.037  -0.612275  -0.018652  2.389568  -0.029  -0.300169  -0.556603  -0.026655  2.408212  -0.043
O  O63  1  0.60086377  0.76617161  0.51407530  1  -0.619575  0.029011  2.136108  0.051  -1.1914  0.040822  -0.581033  0.022949  2.402154  0.037  -0.612939  0.018771  2.389485  0.029  -0.300992  -0.5574  0.027106  2.408486  0.044
O  O64  1  0.91328627  0.76646490  0.51407017  1  -0.619164  -0.028591  2.136778  -0.05  -1.197528  -0.040419  -0.580218  -0.022722  2.4018  -0.036  -0.61222  -0.018651  2.389502  -0.029  -0.300105  -0.556551  -0.026652  2.408138  -0.043
O  O65  1  0.39913277  0.23382738  0.48592127  1  -0.619546  0.029008  2.136163  0.051  -1.191375  0.040822  -0.580924  0.022949  2.402107  0.037  -0.612831  0.018769  2.389438  0.029  -0.300914  -0.557296  0.027103  2.40845  0.044
