# generated using pymatgen
data_Zn4H58C51N20O
_symmetry_space_group_name_H-M   'P 1'
_cell_length_a   15.15164921
_cell_length_b   14.86032221
_cell_length_c   14.88052018
_cell_angle_alpha   69.14775232
_cell_angle_beta   67.03535703
_cell_angle_gamma   103.60741936
_symmetry_Int_Tables_number   1
_chemical_formula_structural   Zn4H58C51N20O
_chemical_formula_sum   'Zn4 H58 C51 N20 O1'
_cell_volume   2596.05687479
_cell_formula_units_Z   1
loop_
 _symmetry_equiv_pos_site_id
 _symmetry_equiv_pos_as_xyz
  1  'x, y, z'
loop_
 _atom_site_type_symbol
 _atom_site_label
 _atom_site_symmetry_multiplicity
 _atom_site_fract_x
 _atom_site_fract_y
 _atom_site_fract_z
 _atom_site_occupancy
 _atom_site_pbe_bader_charge
 _atom_site_pbe_bader_spin_density
 _atom_site_pbe_cm5_charge
 _atom_site_pbe_ddec_charge
 _atom_site_pbe_ddec_spin_density
 _atom_site_pbe_ddec_sum_bond_order
 _atom_site_pbe_magmom
Zn  Zn0  1  0.13035015  0.48826903  0.85019750  1  1.184864  0  0.741908  0.60402  0  2.484386  0
Zn  Zn1  1  0.85875124  0.49890240  0.13029850  1  1.182201  0  0.732346  0.619102  0  2.445214  0
Zn  Zn2  1  0.00236661  0.36645062  0.12451291  1  1.17465  0  0.735791  0.590605  0  2.526031  0
Zn  Zn3  1  0.00866826  0.63986373  0.85639434  1  1.187847  0  0.740425  0.614567  0  2.439729  0
H  H4  1  0.20118733  0.29925256  0.81488663  1  0.068694  0  0.115923  0.1044  0  0.994068  0
H  H5  1  0.76403311  0.44869496  0.39879778  1  0.043732  0  0.108492  0.08959  0  1.031528  0
H  H6  1  0.15545924  0.51518596  0.16398076  1  0.07098  0  0.112706  0.103851  0  1.02598  0
H  H7  1  0.20377625  0.82386363  0.82767355  1  0.084837  0  0.114849  0.104281  0  1.001427  0
H  H8  1  0.34912492  0.64588807  0.80394760  1  0.084963  0  0.112261  0.103134  0  1.005711  0
H  H9  1  0.19505332  0.86078789  0.61551723  1  0.058412  0  0.116244  0.10205  0  1.001518  0
H  H10  1  0.75190514  0.44644329  0.72397052  1  -0.00131  0  0.0882  0.086398  0  0.992312  0
H  H11  1  0.69982706  0.30678129  0.78485628  1  0.020622  0  0.087233  0.08031  0  0.994243  0
H  H12  1  0.69395178  0.33418527  0.62250843  1  0.010563  0  0.085596  0.080264  0  0.990393  0
H  H13  1  0.63091797  0.51258612  0.15096925  1  0.123676  0  0.116281  0.102689  0  0.999447  0
H  H14  1  0.77927374  0.47247160  0.54881539  1  -0.009796  0  0.084341  0.077908  0  0.990466  0
H  H15  1  0.95142343  0.55584436  0.58124153  1  0.014813  0  0.086504  0.08268  0  0.985321  0
H  H16  1  0.97302261  0.54048740  0.42305357  1  0.041969  0  0.088882  0.090888  0  0.986368  0
H  H17  1  0.96711729  0.30142853  0.66951125  1  0.033658  0  0.096704  0.041069  0  0.967037  0
H  H18  1  0.76991582  0.20815315  0.66527894  1  0.032519  0  0.090601  0.092355  0  0.987256  0
H  H19  1  0.90105648  0.23582884  0.57439971  1  0.036182  0  0.087988  0.09098  0  1.042372  0
H  H20  1  0.03969597  0.49757572  0.58209700  1  0.015374  0  0.087366  0.084347  0  0.991385  0
H  H21  1  0.03548370  0.45624435  0.44572428  1  0.020451  0  0.085021  0.079475  0  1.023356  0
H  H22  1  0.83488542  0.14699643  0.16989169  1  0.09302  0  0.113936  0.10494  0  1.000194  0
H  H23  1  0.42618642  0.68343260  0.00223355  1  0.079292  0  0.087302  0.108939  0  1.040781  0
H  H24  1  0.51314401  0.47131618  0.06931465  1  0.059956  0  0.09897  0.100936  0  0.997948  0
H  H25  1  0.62669080  0.70855298  0.88697078  1  0.053379  0  0.098307  0.098067  0  1.001128  0
H  H26  1  0.59229910  0.04633150  0.22567946  1  0.055099  0  0.089579  0.108706  0  1.033057  0
H  H27  1  0.35643158  0.00500345  0.47089201  1  0.054147  0  0.096341  0.095387  0  1.004658  0
H  H28  1  0.48383155  0.87707259  0.42448496  1  0.048942  0  0.098837  0.099194  0  0.998524  0
H  H29  1  0.08171378  0.83761420  0.17676279  1  0.066104  0  0.095497  0.098664  0  1.018278  0
H  H30  1  0.21323593  0.96085484  0.91762493  1  0.040419  0  0.093842  0.089723  0  1.001614  0
H  H31  1  0.12645414  0.01241025  0.16305819  1  0.035798  0  0.091755  0.088296  0  0.99813  0
H  H32  1  0.83932748  0.53379584  0.79972079  1  0.059634  0  0.10875  0.093619  0  1.025831  0
H  H33  1  0.16710041  0.09035657  0.92342058  1  0.043048  0  0.094349  0.093715  0  1.008718  0
H  H34  1  0.66549513  0.34325749  0.14351637  1  0.074927  0  0.113155  0.102053  0  1.013005  0
H  H35  1  0.98678034  0.31643346  0.82051212  1  0.09745  0  0.113185  0.101582  0  1.021661  0
H  H36  1  0.85208970  0.74402397  0.79676482  1  0.117896  0  0.116076  0.105815  0  0.994099  0
H  H37  1  0.06954996  0.16149830  0.17426797  1  0.060982  0  0.114546  0.101301  0  1.001037  0
H  H38  1  0.35311992  0.65593035  0.58743445  1  0.081886  0  0.116238  0.105327  0  0.996699  0
H  H39  1  0.81754299  0.65656229  0.32176581  1  0.056148  0  0.106227  0.074135  0  0.960269  0
H  H40  1  0.80407516  0.59664279  0.24061054  1  0.024419  0  0.08702  0.034366  0  1.040439  0
H  H41  1  0.89463955  0.83799207  0.15387573  1  0.032653  0  0.094502  0.094691  0  0.974037  0
H  H42  1  0.88551660  0.77789983  0.07239181  1  0.073029  0  0.095187  0.097653  0  0.980014  0
H  H43  1  0.68632673  0.68045841  0.20015666  1  0.035479  0  0.081341  0.10494  0  1.02623  0
H  H44  1  0.72986563  0.82033991  0.14274502  1  0.054309  0  0.089922  0.118984  0  0.99731  0
H  H45  1  0.69247283  0.73922077  0.28430922  1  0.012911  0  0.081377  0.102599  0  1.009039  0
H  H46  1  0.00232100  0.25117415  0.32178977  1  0.371071  0  0.294118  0.229139  0  0.98064  0
H  H47  1  0.12729295  0.27647301  0.36799422  1  0.026559  0  0.104586  0.113244  0  0.975601  0
H  H48  1  0.06197429  0.31939623  0.46035220  1  0.0319  0  0.097605  0.104108  0  1.015929  0
H  H49  1  0.13708665  0.40851293  0.31191568  1  0.026286  0  0.089747  0.087288  0  1.023879  0
H  H50  1  0.74459715  0.17950142  0.85369178  1  0.382613  0  0.284527  0.224481  0  0.973785  0
H  H51  1  0.78137445  0.02906140  0.90616459  1  0.043022  0  0.096237  0.10289  0  0.989158  0
H  H52  1  0.91223052  0.10705459  0.78566300  1  0.047914  0  0.091003  0.09404  0  0.99017  0
H  H53  1  0.80171884  0.06851561  0.76882118  1  0.002536  0  0.077869  0.069931  0  1.020844  0
H  H54  1  0.31033650  0.44510307  0.99873246  1  0.429291  0  0.290078  0.234318  0  1.003091  0
H  H55  1  0.37762015  0.34195982  0.94514783  1  0.056132  0  0.100049  0.107007  0  0.999512  0
H  H56  1  0.44567202  0.33909025  0.01890605  1  0.031426  0  0.092844  0.096549  0  0.989513  0
H  H57  1  0.50495902  0.44861049  0.88053749  1  0.038956  0  0.087206  0.087034  0  1.000258  0
H  H58  1  0.60392459  0.23286466  0.32584963  1  0.413308  0  0.28248  0.224314  0  1.016548  0
H  H59  1  0.51758080  0.20703572  0.50555561  1  0.033008  0  0.097093  0.102121  0  0.989376  0
H  H60  1  0.54128990  0.09112844  0.52613695  1  0.031551  0  0.087851  0.088837  0  0.990003  0
H  H61  1  0.41355287  0.08418779  0.55452995  1  0.042949  0  0.093363  0.095942  0  1.005916  0
C  C62  1  0.16640317  0.28090967  0.90205586  1  0.428337  0  0.003344  -0.06733  0  4.000166  0
C  C63  1  0.70279211  0.63199745  0.96798598  1  -0.014865  0  -0.04325  0.005392  0  4.133357  0
C  C64  1  0.70655142  0.20303796  0.18139259  1  -0.031467  0  -0.039256  0.043526  0  4.097524  0
C  C65  1  0.89325551  0.40722049  0.78554151  1  0.049041  0  -0.0357  -0.042526  0  3.995245  0
C  C66  1  0.29900729  0.69149929  0.61033140  1  0.406955  0  0.002073  -0.068031  0  4.003928  0
C  C67  1  0.81829667  0.41364173  0.37499688  1  0.41039  0  -0.004882  -0.057256  0  4.067279  0
C  C68  1  0.18769645  0.54018790  0.07539347  1  0.423929  0  0.003105  -0.059017  0  3.943967  0
C  C69  1  0.13744098  0.77379209  0.91444179  1  0.429886  0  0.009825  -0.03854  0  3.976384  0
C  C70  1  0.01789454  0.70006664  0.09528566  1  1.053117  0  0.188166  0.303431  0  4.047184  0
C  C71  1  0.28630054  0.60648614  0.89189769  1  0.374269  0  0.000969  -0.07019  0  3.975555  0
C  C72  1  0.21890938  0.79617170  0.62449983  1  0.398572  0  0.004979  -0.058735  0  3.990178  0
C  C73  1  0.69941296  0.56633191  0.06591293  1  0.349364  0  0.005864  -0.062251  0  3.992381  0
C  C74  1  0.92775270  0.33697328  0.36235388  1  0.815358  0  0.183136  0.257018  0  4.057796  0
C  C75  1  0.31628984  0.79872923  0.55623424  1  0.039018  0  -0.045023  -3.5e-05  0  4.143664  0
C  C76  1  0.86501630  0.36912465  0.43232533  1  0.040178  0  -0.040182  -0.13499  0  3.965808  0
C  C77  1  0.29415551  0.59878258  0.98534141  1  -0.018698  0  -0.042409  0.036015  0  4.098627  0
C  C78  1  0.11384826  0.79200414  0.00622036  1  -0.000679  0  -0.044977  -0.099848  0  4.117625  0
C  C79  1  0.76653965  0.38206251  0.71032305  1  -0.017091  0  -0.158895  -0.186293  0  3.863904  0
C  C80  1  0.76944938  0.39229013  0.60116005  1  -0.014716  0  -0.161323  -0.188063  0  3.859008  0
C  C81  1  0.96383904  0.48478525  0.58522696  1  -0.015932  0  -0.16109  -0.179826  0  3.887063  0
C  C82  1  0.88251325  0.28529914  0.70131664  1  0.305219  0  0.006307  0.106161  0  3.818684  0
C  C83  1  0.87265957  0.38672560  0.70182875  1  0.054581  0  -0.006271  0.079578  0  3.795251  0
C  C84  1  0.80839335  0.20989882  0.15673097  1  0.400257  0  0.003039  -0.062187  0  3.94871  0
C  C85  1  0.86264306  0.37291881  0.53275606  1  0.091964  0  -0.010588  0.154872  0  3.820405  0
C  C86  1  0.96616030  0.46917410  0.48813580  1  -0.06753  0  -0.166273  -0.196168  0  3.884563  0
C  C87  1  0.85326217  0.26864426  0.61758932  1  -0.079902  0  -0.168415  -0.268306  0  3.849763  0
C  C88  1  0.42734736  0.54085310  0.00116951  1  0.339957  0  0.073954  0.208236  0  4.149294  0
C  C89  1  0.39036978  0.61744687  0.99261854  1  -0.046425  0  -0.14447  -0.322223  0  4.001364  0
C  C90  1  0.52034546  0.54714052  0.01151552  1  -0.106152  0  -0.099337  -0.164137  0  4.020676  0
C  C91  1  0.61422146  0.63438267  0.95269633  1  0.043078  0  -0.095664  -0.115054  0  4.048197  0
C  C92  1  0.52486732  0.09080452  0.34733409  1  0.330454  0  0.071423  0.207528  0  4.124146  0
C  C93  1  0.60476117  0.10744764  0.24960217  1  0.016555  0  -0.138204  -0.3064  0  4.007244  0
C  C94  1  0.42588461  0.99273546  0.42778051  1  -0.051959  0  -0.101505  -0.164683  0  4.017126  0
C  C95  1  0.88411362  0.48794359  0.81143212  1  0.387428  0  -0.002152  -0.06111  0  3.980551  0
C  C96  1  0.41435146  0.89123906  0.46248272  1  -0.055012  0  -0.094088  -0.111215  0  4.052415  0
C  C97  1  0.12873067  0.90751645  0.09211693  1  -0.00844  0  -0.116323  -0.124118  0  4.074955  0
C  C98  1  0.15881837  0.89114827  0.00246485  1  -0.083261  0  -0.099418  -0.100273  0  4.041802  0
C  C99  1  0.14106508  0.00941532  0.08630291  1  -0.021272  0  -0.109099  -0.099221  0  4.080582  0
C  C100  1  0.15567364  0.09551267  0.99839675  1  -0.076506  0  -0.107209  -0.142417  0  4.062612  0
C  C101  1  0.72172663  0.30981678  0.14516604  1  0.390693  0  -0.00251  -0.079058  0  3.977043  0
C  C102  1  0.96031186  0.37807199  0.82134946  1  0.371508  0  0.000754  -0.062044  0  3.99171  0
C  C103  1  0.81207707  0.68581425  0.88585675  1  0.366476  0  0.001035  -0.07065  0  4.00363  0
C  C104  1  0.10048011  0.21093804  0.08499691  1  0.402745  0  0.004749  -0.061116  0  3.979859  0
C  C105  1  0.14560558  0.19038571  0.99618964  1  0.002156  0  -0.043546  0.006681  0  4.155096  0
C  C106  1  0.85124954  0.66936699  0.23567875  1  0.383759  0  -0.063089  0.041882  0  3.892443  0
C  C107  1  0.84749916  0.76617511  0.15815875  1  -0.033881  0  -0.171529  -0.144932  0  3.972011  0
C  C108  1  0.73267159  0.75057012  0.19884609  1  -0.095446  0  -0.243004  -0.344456  0  3.980663  0
C  C109  1  0.08312683  0.32443911  0.37869110  1  0.299901  0  -0.139763  -0.211938  0  3.981422  0
C  C110  1  0.82888946  0.09481496  0.81829058  1  0.251304  0  -0.149992  -0.212631  0  4.044327  0
C  C111  1  0.42884166  0.39203109  0.96088832  1  0.26122  0  -0.14295  -0.207255  0  4.001694  0
C  C112  1  0.49947743  0.13533474  0.49746470  1  0.267404  0  -0.144969  -0.208066  0  4.003864  0
N  N113  1  0.13650864  0.34890327  0.93222770  1  -0.798691  0  -0.272745  -0.174289  0  3.560295  0
N  N114  1  0.84848070  0.40911552  0.27920732  1  -0.798  0  -0.286278  -0.195795  0  3.55341  0
N  N115  1  0.12274569  0.51291788  0.03847271  1  -0.782078  0  -0.28926  -0.188381  0  3.623176  0
N  N116  1  0.06130583  0.68126213  0.94633992  1  -0.791143  0  -0.285004  -0.177337  0  3.649074  0
N  N117  1  0.98801700  0.63490994  0.05856298  1  -0.80053  0  -0.286907  -0.285596  0  3.581532  0
N  N118  1  0.18371711  0.55436019  0.92540553  1  -0.798192  0  -0.291354  -0.193714  0  3.668785  0
N  N119  1  0.15084159  0.69666834  0.71129670  1  -0.798792  0  -0.268233  -0.171364  0  3.544738  0
N  N120  1  0.91766954  0.36233899  0.27117100  1  -0.800131  0  -0.287812  -0.276238  0  3.532861  0
N  N121  1  0.79808509  0.57956229  0.04329864  1  -0.775335  0  -0.266835  -0.177309  0  3.536574  0
N  N122  1  0.87620468  0.31186019  0.11331865  1  -0.775516  0  -0.283747  -0.170652  0  3.644848  0
N  N123  1  0.94340425  0.50636762  0.85682704  1  -0.790242  0  -0.28839  -0.184898  0  3.638771  0
N  N124  1  0.82325664  0.37354695  0.10621559  1  -0.782913  0  -0.286253  -0.189014  0  3.632136  0
N  N125  1  0.99064102  0.43905885  0.86238448  1  -0.794139  0  -0.290859  -0.182977  0  3.645864  0
N  N126  1  0.86849810  0.65339515  0.93066386  1  -0.805566  0  -0.273238  -0.184632  0  3.522698  0
N  N127  1  0.09478157  0.30501780  0.04652285  1  -0.795901  0  -0.271089  -0.179453  0  3.545519  0
N  N128  1  0.20037176  0.63093209  0.70270940  1  -0.808036  0  -0.271063  -0.177818  0  3.528952  0
N  N129  1  0.98743308  0.27952034  0.37647901  1  -1.106828  0  -0.46548  -0.347687  0  3.522927  0
N  N130  1  0.82230502  0.19216981  0.81483589  1  -1.066053  0  -0.494946  -0.365566  0  3.44415  0
N  N131  1  0.37286310  0.44586899  0.00912124  1  -1.160845  0  -0.463492  -0.316678  0  3.547268  0
N  N132  1  0.53093154  0.16882839  0.38015933  1  -1.135018  0  -0.471215  -0.331832  0  3.497826  0
O  O133  1  0.95842835  0.67989385  0.20222551  1  -1.081241  0  -0.189724  -0.236341  0  2.511563  0
