# generated using pymatgen
data_CuH8C6(N2Cl)2
_symmetry_space_group_name_H-M   'P 1'
_cell_length_a   3.82766971
_cell_length_b   8.84312732
_cell_length_c   13.66573967
_cell_angle_alpha   85.63852064
_cell_angle_beta   86.15732289
_cell_angle_gamma   78.02831778
_symmetry_Int_Tables_number   1
_chemical_formula_structural   CuH8C6(N2Cl)2
_chemical_formula_sum   'Cu2 H16 C12 N8 Cl4'
_cell_volume   450.57161713
_cell_formula_units_Z   2
loop_
 _symmetry_equiv_pos_site_id
 _symmetry_equiv_pos_as_xyz
  1  'x, y, z'
loop_
 _atom_site_type_symbol
 _atom_site_label
 _atom_site_symmetry_multiplicity
 _atom_site_fract_x
 _atom_site_fract_y
 _atom_site_fract_z
 _atom_site_occupancy
 _atom_site_pbe_cm5_charge
 _atom_site_pbe_ddec_charge
 _atom_site_pbe_ddec_spin_density
 _atom_site_pbe_ddec_sum_bond_order
 _atom_site_pbe_magmom
Cu  Cu0  1  0.48589841  0.49829261  0.24990278  1  0.608409  0.657118  -0.695718  2.363855  -0.536
Cu  Cu1  1  0.51206964  0.50204741  0.74990154  1  0.607917  0.657664  -0.695697  2.3636  -0.536
H  H2  1  0.04796671  0.84932759  0.23464098  1  0.114033  0.110609  -0.000141  1.027792  0.0
H  H3  1  0.95362077  0.15165816  0.76585874  1  0.1134  0.109573  -0.000138  1.028824  0.0
H  H4  1  0.69834608  0.59565240  0.43840395  1  0.30449  0.260463  -0.000372  0.980045  0.0
H  H5  1  0.30156379  0.40264695  0.56147337  1  0.305153  0.26137  -0.000383  0.980192  0.0
H  H6  1  0.47385190  0.84730938  0.52201280  1  0.116561  0.113766  -0.000642  1.032245  -0.001
H  H7  1  0.52772757  0.15036055  0.47880120  1  0.116352  0.114206  -0.000642  1.030942  -0.001
H  H8  1  0.03318778  0.03750323  0.38831589  1  0.104821  0.130334  -0.000747  1.034865  -0.001
H  H9  1  0.96963289  0.96193870  0.61296525  1  0.105122  0.130705  -0.00074  1.033937  -0.001
H  H10  1  0.80733842  0.40248464  0.05365229  1  0.302348  0.258348  -0.000677  0.985756  0.0
H  H11  1  0.18984890  0.59854792  0.94580106  1  0.301773  0.25758  -0.00067  0.987418  0.0
H  H12  1  0.38557350  0.14436883  0.27216141  1  0.107626  0.103166  6.7e-05  1.053123  0.0
H  H13  1  0.61509164  0.85558809  0.72739163  1  0.107113  0.102261  6.7e-05  1.053698  0.0
H  H14  1  0.57837800  0.95527404  0.11720976  1  0.100815  0.127519  -0.000504  1.048444  -0.001
H  H15  1  0.42215025  0.04517081  0.88204499  1  0.100309  0.127238  -0.000504  1.048493  -0.001
H  H16  1  0.84877988  0.14734951  0.97313398  1  0.117572  0.114437  -0.001333  1.027355  -0.001
H  H17  1  0.14927249  0.85390197  0.02614822  1  0.117595  0.11459  -0.001336  1.026243  -0.001
C  C18  1  0.18452435  0.82580098  0.30272174  1  0.018601  0.02292  3.9e-05  3.939872  -0.001
C  C19  1  0.81688531  0.17441061  0.69776114  1  0.018712  0.023301  5e-05  3.939064  -0.001
C  C20  1  0.39266875  0.82695473  0.45060568  1  0.020428  0.009519  -0.000864  3.941113  -0.001
C  C21  1  0.60847499  0.17152074  0.55009142  1  0.020764  0.008233  -0.000851  3.940682  -0.001
C  C22  1  0.17695450  0.91914427  0.38192705  1  -0.11846  -0.223872  -0.002727  4.00806  -0.003
C  C23  1  0.82506950  0.08025906  0.61892813  1  -0.118422  -0.222961  -0.002692  4.005131  -0.003
C  C24  1  0.50686816  0.16858630  0.20045495  1  0.014233  0.024567  -0.000125  3.947977  -0.002
C  C25  1  0.49275002  0.83172859  0.79901078  1  0.013692  0.024354  -0.000135  3.948059  -0.002
C  C26  1  0.60437493  0.07461020  0.12070019  1  -0.120901  -0.227371  -0.001921  4.002689  -0.002
C  C27  1  0.39520998  0.92593920  0.87864405  1  -0.119873  -0.226955  -0.00193  4.002701  -0.002
C  C28  1  0.74094378  0.16766907  0.04733897  1  0.022896  0.0167  -0.00072  3.932812  -0.001
C  C29  1  0.25730145  0.83327869  0.95199130  1  0.023009  0.017209  -0.000699  3.931307  -0.001
N  N30  1  0.39171712  0.68615278  0.32241677  1  -0.284196  -0.152529  -0.053543  3.595564  -0.069
N  N31  1  0.60850711  0.31370981  0.67773427  1  -0.283755  -0.153351  -0.053305  3.59489  -0.069
N  N32  1  0.51294703  0.68842778  0.41241421  1  -0.284151  -0.073671  -0.003091  3.723509  -0.003
N  N33  1  0.48711105  0.31031499  0.58784771  1  -0.284924  -0.074056  -0.003109  3.726241  -0.003
N  N34  1  0.57966920  0.30963674  0.17711418  1  -0.284712  -0.170646  -0.046782  3.581592  -0.059
N  N35  1  0.41880333  0.69091953  0.82243229  1  -0.283688  -0.169732  -0.047027  3.581534  -0.06
N  N36  1  0.72076900  0.30634783  0.08395189  1  -0.285803  -0.070215  -0.002749  3.729196  -0.002
N  N37  1  0.27688506  0.69457670  0.91549267  1  -0.285845  -0.069853  -0.002728  3.730826  -0.002
Cl  Cl38  1  0.11478694  0.39050480  0.36954966  1  -0.28577  -0.513861  -0.094199  1.282988  -0.115
Cl  Cl39  1  0.88868191  0.60914626  0.63106028  1  -0.285613  -0.513557  -0.094102  1.283835  -0.115
Cl  Cl40  1  0.83880836  0.61823153  0.13201303  1  -0.289065  -0.517505  -0.093523  1.268591  -0.115
Cl  Cl41  1  0.15896363  0.38270494  0.86797928  1  -0.288566  -0.517616  -0.093157  1.271649  -0.115
