# generated using pymatgen
data_CdH14C24S(NO)4
_symmetry_space_group_name_H-M   'P 1'
_cell_length_a   10.51005332
_cell_length_b   15.04307028
_cell_length_c   16.10839034
_cell_angle_alpha   98.95146229
_cell_angle_beta   92.40569686
_cell_angle_gamma   105.08956787
_symmetry_Int_Tables_number   1
_chemical_formula_structural   CdH14C24S(NO)4
_chemical_formula_sum   'Cd4 H56 C96 S4 N16 O16'
_cell_volume   2419.92979678
_cell_formula_units_Z   4
loop_
 _symmetry_equiv_pos_site_id
 _symmetry_equiv_pos_as_xyz
  1  'x, y, z'
loop_
 _atom_site_type_symbol
 _atom_site_label
 _atom_site_symmetry_multiplicity
 _atom_site_fract_x
 _atom_site_fract_y
 _atom_site_fract_z
 _atom_site_occupancy
 _atom_site_pbe_bader_charge
 _atom_site_pbe_bader_spin_density
 _atom_site_pbe_cm5_charge
 _atom_site_pbe_ddec_charge
 _atom_site_pbe_ddec_spin_density
 _atom_site_pbe_ddec_sum_bond_order
 _atom_site_pbe_magmom
Cd  Cd0  1  0.79567038  0.87679373  0.67072197  1  1.283195  0  0.775484  0.880596  0  2.218822  0
Cd  Cd1  1  0.20432826  0.12320784  0.32927971  1  1.283225  0  0.775471  0.880575  0  2.218827  0
Cd  Cd2  1  0.72580134  0.60752547  0.63166407  1  1.276048  0  0.782142  0.884035  0  2.187962  0
Cd  Cd3  1  0.27419467  0.39247675  0.36833577  1  1.276132  0  0.782107  0.883997  0  2.188017  0
H  H4  1  0.99445413  0.90297373  0.52319689  1  0.12446  0  0.114932  0.089813  0  1.008157  0
H  H5  1  0.00554451  0.09702784  0.47680417  1  0.124475  0  0.114938  0.089795  0  1.008151  0
H  H6  1  0.99070622  0.91522219  0.36966095  1  0.139285  0  0.10782  0.126623  0  1.035502  0
H  H7  1  0.00929193  0.08477799  0.63034052  1  0.139477  0  0.107803  0.126645  0  1.035522  0
H  H8  1  0.56404507  0.84486037  0.36329364  1  0.118624  0  0.105893  0.11765  0  1.04491  0
H  H9  1  0.43595282  0.15513910  0.63670711  1  0.118656  0  0.105876  0.117611  0  1.044861  0
H  H10  1  0.58669314  0.83971550  0.51691815  1  0.118969  0  0.118493  0.09399  0  0.999736  0
H  H11  1  0.41330455  0.16028607  0.48308412  1  0.118998  0  0.118472  0.093973  0  0.999825  0
H  H12  1  0.94743071  0.83750762  0.24388561  1  0.133974  0  0.105178  0.11044  0  1.041485  0
H  H13  1  0.05256593  0.16248837  0.75611587  1  0.134311  0  0.105161  0.110406  0  1.041482  0
H  H14  1  0.94276737  0.83415549  0.09253897  1  0.064483  0  0.102711  0.100723  0  1.00271  0
H  H15  1  0.05723431  0.16584127  0.90746276  1  0.064477  0  0.102692  0.100813  0  1.002544  0
H  H16  1  0.98149343  0.91945884  0.98931575  1  0.101204  0  0.104857  0.109442  0  1.023808  0
H  H17  1  0.01850996  0.08054002  0.01068631  1  0.101148  0  0.10482  0.109389  0  1.023966  0
H  H18  1  0.97881974  0.91203783  0.83327449  1  0.116568  0  0.119193  0.09681  0  0.986312  0
H  H19  1  0.02118223  0.08796240  0.16672710  1  0.116535  0  0.119181  0.096782  0  0.98635  0
H  H20  1  0.57054756  0.81743861  0.80290798  1  0.100019  0  0.116234  0.087387  0  1.00225  0
H  H21  1  0.42945345  0.18256160  0.19709358  1  0.099985  0  0.116238  0.087401  0  1.002213  0
H  H22  1  0.55459982  0.82640825  0.95834858  1  0.136336  0  0.108283  0.124876  0  1.005317  0
H  H23  1  0.44540210  0.17358919  0.04165262  1  0.136392  0  0.108289  0.124882  0  1.00538  0
H  H24  1  0.93989396  0.65458782  0.48865201  1  0.100006  0  0.118482  0.089656  0  0.988006  0
H  H25  1  0.06010348  0.34541305  0.51135017  1  0.099985  0  0.118483  0.089633  0  0.988016  0
H  H26  1  0.93577372  0.65897607  0.33555077  1  0.113018  0  0.103253  0.110268  0  1.043074  0
H  H27  1  0.06422921  0.34102418  0.66445084  1  0.113052  0  0.103244  0.110278  0  1.043062  0
H  H28  1  0.50797837  0.59527547  0.33085155  1  0.138443  0  0.108376  0.118841  0  1.046236  0
H  H29  1  0.49202375  0.40471985  0.66914502  1  0.138201  0  0.108357  0.118832  0  1.046286  0
H  H30  1  0.53005459  0.59135946  0.48162472  1  0.146776  0  0.120399  0.099592  0  1.011905  0
H  H31  1  0.46994278  0.40863858  0.51837210  1  0.146721  0  0.120403  0.099637  0  1.011857  0
H  H32  1  0.88534301  0.57576737  0.20805963  1  0.092188  0  0.110435  0.117132  0  1.004435  0
H  H33  1  0.11465529  0.42422793  0.79193994  1  0.092233  0  0.110459  0.11719  0  1.00444  0
H  H34  1  0.88097272  0.57256197  0.05571123  1  0.056096  0  0.104845  0.105811  0  0.994447  0
H  H35  1  0.11902795  0.42743197  0.94428822  1  0.056181  0  0.104872  0.105871  0  0.994434  0
H  H36  1  0.91915516  0.66973637  0.95495336  1  0.062324  0  0.106176  0.111089  0  1.001098  0
H  H37  1  0.08084767  0.33025828  0.04504500  1  0.062355  0  0.106174  0.111134  0  1.001044  0
H  H38  1  0.91676781  0.66428814  0.79882435  1  0.121071  0  0.121469  0.099479  0  0.98325  0
H  H39  1  0.08323410  0.33570928  0.20117437  1  0.121091  0  0.121488  0.099493  0  0.983266  0
H  H40  1  0.50983653  0.56546673  0.76682231  1  0.108683  0  0.117396  0.095067  0  1.012538  0
H  H41  1  0.49016478  0.43453696  0.23317912  1  0.108645  0  0.117386  0.095062  0  1.012563  0
H  H42  1  0.49332841  0.56361637  0.92131877  1  0.134069  0  0.104156  0.116425  0  1.024739  0
H  H43  1  0.50667285  0.43638453  0.07868165  1  0.134062  0  0.104173  0.116408  0  1.024782  0
H  H44  1  0.04369847  0.62134058  0.64726108  1  0.117905  0  0.098248  0.11266  0  1.0505  0
H  H45  1  0.95630187  0.37866308  0.35273783  1  0.117807  0  0.098272  0.112715  0  1.050477  0
H  H46  1  0.25387033  0.57414447  0.63313205  1  0.085519  0  0.100739  0.108024  0  1.017166  0
H  H47  1  0.74613513  0.42586551  0.36686725  1  0.085395  0  0.10072  0.108128  0  1.017147  0
H  H48  1  0.47296507  0.86259535  0.65087359  1  0.125284  0  0.099863  0.11474  0  1.053223  0
H  H49  1  0.52703394  0.13741524  0.34912624  1  0.125395  0  0.099896  0.114819  0  1.05322  0
H  H50  1  0.26295788  0.90941836  0.66124330  1  0.123394  0  0.098869  0.107973  0  1.030087  0
H  H51  1  0.73703576  0.09058521  0.33875603  1  0.123545  0  0.098911  0.108057  0  1.030099  0
H  H52  1  0.66047788  0.27799767  0.53456673  1  0.071596  0  0.102748  0.106526  0  1.023748  0
H  H53  1  0.33951617  0.72200175  0.46543329  1  0.071851  0  0.102733  0.106454  0  1.023852  0
H  H54  1  0.64045225  0.11175099  0.55236369  1  0.106452  0  0.107836  0.117273  0  0.984595  0
H  H55  1  0.35954156  0.88824771  0.44763436  1  0.106531  0  0.107869  0.117298  0  0.984624  0
H  H56  1  0.86815939  0.21006970  0.79221303  1  0.063883  0  0.094843  0.097258  0  1.018504  0
H  H57  1  0.13184417  0.78992701  0.20778191  1  0.063841  0  0.094816  0.097212  0  1.018449  0
H  H58  1  0.88578771  0.37640669  0.77450896  1  0.063962  0  0.093084  0.091379  0  1.030122  0
H  H59  1  0.11421229  0.62359070  0.22548908  1  0.063898  0  0.093104  0.091405  0  1.030006  0
C  C60  1  0.90145665  0.89055358  0.48487501  1  0.424922  0  0.040973  0.081487  0  3.972548  0
C  C61  1  0.09854078  0.10944728  0.51512654  1  0.424678  0  0.041006  0.081546  0  3.972613  0
C  C62  1  0.89868627  0.89624013  0.39965592  1  -0.006551  0  -0.080717  -0.16869  0  3.914745  0
C  C63  1  0.10131187  0.10376005  0.60034556  1  -0.006644  0  -0.080687  -0.168676  0  3.914839  0
C  C64  1  0.77634484  0.87973765  0.35293347  1  -0.047805  0  0.016194  0.126008  0  3.954522  0
C  C65  1  0.22365350  0.12026044  0.64706710  1  -0.047801  0  0.016092  0.125821  0  3.954639  0
C  C66  1  0.66162201  0.85906752  0.39595814  1  0.046883  0  -0.079844  -0.164347  0  3.911573  0
C  C67  1  0.33837517  0.14093264  0.60404206  1  0.046901  0  -0.079803  -0.164271  0  3.911517  0
C  C68  1  0.67344879  0.85544340  0.48144485  1  0.436365  0  0.049337  0.108197  0  3.933532  0
C  C69  1  0.32654890  0.14455816  0.51855618  1  0.436378  0  0.049385  0.108234  0  3.93359  0
C  C70  1  0.77132854  0.88151640  0.26182809  1  -0.025579  0  0.007815  0.021982  0  3.927414  0
C  C71  1  0.22866906  0.11847960  0.73817280  1  -0.024847  0  0.007876  0.022092  0  3.927577  0
C  C72  1  0.86681652  0.85683732  0.21340872  1  -0.023415  0  -0.077042  -0.09749  0  3.951586  0
C  C73  1  0.13318154  0.14315731  0.78659324  1  -0.023747  0  -0.076996  -0.097396  0  3.951675  0
C  C74  1  0.86474700  0.85609779  0.12571077  1  -0.049882  0  -0.080902  -0.109316  0  3.978194  0
C  C75  1  0.13525514  0.14389758  0.87429077  1  -0.04945  0  -0.0809  -0.10948  0  3.978206  0
C  C76  1  0.76638963  0.87866089  0.07965962  1  0.05628  0  -0.007472  -0.005383  0  3.962766  0
C  C77  1  0.23360964  0.12133443  0.92034122  1  0.055426  0  -0.007521  -0.005446  0  3.962857  0
C  C78  1  0.66630931  0.90557932  0.12706534  1  0.463089  0  0.102685  0.123529  0  4.015496  0
C  C79  1  0.33369141  0.09441743  0.87293698  1  0.463471  0  0.102792  0.123672  0  4.015449  0
C  C80  1  0.66946051  0.90721869  0.21755256  1  0.522295  0  0.111076  0.11946  0  4.001007  0
C  C81  1  0.33054192  0.09278014  0.78244760  1  0.521495  0  0.110991  0.119333  0  4.001091  0
C  C82  1  0.76731727  0.87422598  0.98783707  1  -0.036944  0  0.012957  0.126281  0  3.975582  0
C  C83  1  0.23268490  0.12577217  0.01216424  1  -0.036914  0  0.012944  0.126348  0  3.975721  0
C  C84  1  0.88767226  0.89668759  0.95053852  1  -0.103202  0  -0.089012  -0.191297  0  3.969282  0
C  C85  1  0.11233112  0.10331126  0.04946230  1  -0.103247  0  -0.088975  -0.191318  0  3.969515  0
C  C86  1  0.88724795  0.89239679  0.86383857  1  0.502556  0  0.045132  0.095142  0  3.960494  0
C  C87  1  0.11275402  0.10760344  0.13616302  1  0.502463  0  0.045131  0.095192  0  3.960354  0
C  C88  1  0.65915207  0.84110439  0.84699933  1  0.441936  0  0.046318  0.091811  0  3.962699  0
C  C89  1  0.34084990  0.15889583  0.15300101  1  0.442146  0  0.046286  0.091761  0  3.962757  0
C  C90  1  0.65062201  0.84589454  0.93344039  1  0.019198  0  -0.081219  -0.161632  0  3.91404  0
C  C91  1  0.34938066  0.15410499  0.06656050  1  0.019047  0  -0.081187  -0.161656  0  3.914213  0
C  C92  1  0.84612758  0.64077796  0.45072268  1  0.460642  0  0.047895  0.097484  0  3.95738  0
C  C93  1  0.15387105  0.35922360  0.54927714  1  0.460651  0  0.047945  0.097577  0  3.957228  0
C  C94  1  0.84287861  0.64274823  0.36485335  1  0.033672  0  -0.082102  -0.168816  0  3.93047  0
C  C95  1  0.15712261  0.35724990  0.63514730  1  0.033675  0  -0.082096  -0.168888  0  3.930402  0
C  C96  1  0.72022568  0.62587612  0.31796354  1  -0.063127  0  0.011874  0.106329  0  3.976437  0
C  C97  1  0.27977578  0.37412269  0.68203598  1  -0.063157  0  0.011886  0.106415  0  3.976356  0
C  C98  1  0.60648647  0.60869673  0.36170688  1  0.009587  0  -0.075555  -0.142708  0  3.906053  0
C  C99  1  0.39351233  0.39129996  0.63829165  1  0.009838  0  -0.075532  -0.142704  0  3.906103  0
C  C100  1  0.61825853  0.60685847  0.44747435  1  0.457796  0  0.053873  0.116754  0  3.911231  0
C  C101  1  0.38173956  0.39313890  0.55252426  1  0.45786  0  0.053862  0.116656  0  3.91119  0
C  C102  1  0.71256829  0.62394006  0.22621367  1  0.041873  0  0.006931  0.017839  0  3.947191  0
C  C103  1  0.28743363  0.37605736  0.77378567  1  0.041867  0  0.006866  0.017796  0  3.947131  0
C  C104  1  0.80674475  0.59742893  0.17735319  1  -0.017034  0  -0.080379  -0.113809  0  3.958085  0
C  C105  1  0.19325716  0.40256850  0.82264615  1  -0.016971  0  -0.080345  -0.113798  0  3.958062  0
C  C106  1  0.80351166  0.59491670  0.08926481  1  -0.096616  0  -0.084062  -0.118922  0  3.991309  0
C  C107  1  0.19648734  0.40507792  0.91073468  1  -0.096491  0  -0.084091  -0.119031  0  3.991453  0
C  C108  1  0.70458666  0.61693981  0.04329214  1  0.069125  0  -0.004118  -0.001197  0  3.975923  0
C  C109  1  0.29541310  0.38305691  0.95670829  1  0.068954  0  -0.004087  -0.001097  0  3.975962  0
C  C110  1  0.60370452  0.64257942  0.09054292  1  0.465002  0  0.109004  0.12289  0  4.016469  0
C  C111  1  0.39629932  0.35741804  0.90945710  1  0.465073  0  0.108964  0.122846  0  4.016456  0
C  C112  1  0.60822532  0.64688350  0.18137381  1  0.44366  0  0.112079  0.116894  0  3.998225  0
C  C113  1  0.39177519  0.35311531  0.81862692  1  0.443758  0  0.11216  0.116904  0  3.998218  0
C  C114  1  0.70580773  0.61518586  0.95176315  1  -0.003392  0  0.00944  0.120056  0  3.991818  0
C  C115  1  0.29419635  0.38481230  0.04823697  1  -0.003447  0  0.009439  0.119993  0  3.991919  0
C  C116  1  0.82590846  0.64378789  0.91549530  1  -0.043315  0  -0.088778  -0.191373  0  3.962311  0
C  C117  1  0.17409512  0.35620888  0.08450524  1  -0.043263  0  -0.088734  -0.191378  0  3.962303  0
C  C118  1  0.82566226  0.64241985  0.82910412  1  0.500859  0  0.052174  0.111633  0  3.951022  0
C  C119  1  0.17433846  0.35757687  0.17089509  1  0.500825  0  0.052112  0.11157  0  3.951078  0
C  C120  1  0.59782874  0.58690067  0.81136041  1  0.484225  0  0.046015  0.094248  0  3.937965  0
C  C121  1  0.40217277  0.41310092  0.18863949  1  0.484272  0  0.046003  0.094197  0  3.937952  0
C  C122  1  0.58943590  0.58595190  0.89713507  1  -0.038569  0  -0.087478  -0.173561  0  3.933802  0
C  C123  1  0.41056677  0.41404762  0.10286395  1  -0.038594  0  -0.087471  -0.173454  0  3.933841  0
C  C124  1  0.01775647  0.80070308  0.66532072  1  1.534649  0  0.194834  0.560943  0  4.224465  0
C  C125  1  0.98224196  0.19930057  0.33468000  1  1.534576  0  0.194827  0.560993  0  4.224262  0
C  C126  1  0.14091283  0.76904161  0.65534703  1  -0.097471  0  -0.021691  -0.037635  0  3.986915  0
C  C127  1  0.85908579  0.23095991  0.34464906  1  -0.097639  0  -0.021655  -0.037595  0  3.986887  0
C  C128  1  0.13728201  0.67404209  0.64698546  1  -0.072254  0  -0.090278  -0.104724  0  3.96151  0
C  C129  1  0.86271807  0.32596087  0.35301335  1  -0.072241  0  -0.090381  -0.104908  0  3.961515  0
C  C130  1  0.25434271  0.64745958  0.64015203  1  -0.009905  0  -0.085425  -0.086826  0  3.956537  0
C  C131  1  0.74566104  0.35254830  0.35984817  1  -0.009935  0  -0.085366  -0.086798  0  3.956299  0
C  C132  1  0.37587323  0.71483801  0.64241075  1  -0.052292  0  -0.019885  -0.036054  0  3.982751  0
C  C133  1  0.62412669  0.28516980  0.35758810  1  -0.051441  0  -0.019925  -0.036275  0  3.982928  0
C  C134  1  0.37920048  0.80970921  0.64977294  1  -0.086058  0  -0.09376  -0.116762  0  3.976869  0
C  C135  1  0.62079949  0.19030138  0.35022505  1  -0.086149  0  -0.093836  -0.116854  0  3.977073  0
C  C136  1  0.26205661  0.83618039  0.65563645  1  -0.002606  0  -0.090338  -0.09481  0  3.969611  0
C  C137  1  0.73794352  0.16382534  0.34436212  1  -0.002887  0  -0.090312  -0.094788  0  3.969609  0
C  C138  1  0.50076831  0.68458921  0.63735668  1  1.559976  0  0.198574  0.562554  0  4.224679  0
C  C139  1  0.49923186  0.31541928  0.36264041  1  1.55939  0  0.198706  0.562835  0  4.224483  0
C  C140  1  0.78566500  0.43612664  0.64456502  1  1.566539  0  0.186088  0.551895  0  4.25985  0
C  C141  1  0.21433244  0.56387426  0.35543964  1  1.566622  0  0.186083  0.551917  0  4.259993  0
C  C142  1  0.77530235  0.33658597  0.65337340  1  -0.071645  0  -0.016515  -0.011078  0  3.954268  0
C  C143  1  0.22469408  0.66341209  0.34662711  1  -0.072418  0  -0.016542  -0.01119  0  3.954396  0
C  C144  1  0.70529333  0.26230530  0.59083681  1  0.024386  0  -0.082519  -0.09057  0  3.949388  0
C  C145  1  0.29470481  0.73769487  0.40916404  1  0.02414  0  -0.082485  -0.090417  0  3.949425  0
C  C146  1  0.69415743  0.17025649  0.60068682  1  -0.048066  0  -0.081994  -0.093885  0  3.951758  0
C  C147  1  0.30583925  0.82974227  0.39931380  1  -0.048123  0  -0.082037  -0.093963  0  3.951875  0
C  C148  1  0.75350881  0.15128383  0.67307911  1  -0.068073  0  -0.019524  -0.018291  0  3.979022  0
C  C149  1  0.24648953  0.84871424  0.32691960  1  -0.068058  0  -0.019517  -0.018265  0  3.978942  0
C  C150  1  0.82291206  0.22562524  0.73594276  1  -0.02607  0  -0.101928  -0.133417  0  4.040425  0
C  C151  1  0.17709131  0.77437359  0.26405557  1  -0.025989  0  -0.101919  -0.133352  0  4.040167  0
C  C152  1  0.83326374  0.31750531  0.72620521  1  -0.082176  0  -0.100594  -0.12867  0  4.052854  0
C  C153  1  0.16673672  0.68249071  0.27379452  1  -0.081651  0  -0.100589  -0.128651  0  4.052702  0
C  C154  1  0.74955669  0.05256008  0.68072831  1  1.562338  0  0.178729  0.534867  0  4.279037  0
C  C155  1  0.25044024  0.94743938  0.31927179  1  1.562352  0  0.178681  0.534769  0  4.278918  0
S  S156  1  0.48470146  0.95981996  0.17715864  1  1.271526  0  0.396352  0.445571  0  3.345769  0
S  S157  1  0.51530070  0.04017816  0.82283956  1  1.271464  0  0.396371  0.445597  0  3.345796  0
S  S158  1  0.41765766  0.69199868  0.13866059  1  1.272731  0  0.39769  0.441762  0  3.353264  0
S  S159  1  0.58234842  0.30800507  0.86134036  1  1.272606  0  0.397664  0.44176  0  3.353172  0
N  N160  1  0.79092249  0.87055625  0.52550966  1  -1.240155  0  -0.331051  -0.236173  0  3.506623  0
N  N161  1  0.20907615  0.12944532  0.47449202  1  -1.240202  0  -0.331074  -0.236185  0  3.506658  0
N  N162  1  0.77483795  0.86472946  0.81254382  1  -1.219431  0  -0.327929  -0.233087  0  3.515198  0
N  N163  1  0.22516593  0.13527078  0.18745658  1  -1.219443  0  -0.327915  -0.233051  0  3.515164  0
N  N164  1  0.57021258  0.93706820  0.25260522  1  -1.180046  0  -0.293276  -0.324473  0  3.192753  0
N  N165  1  0.42978792  0.06293058  0.74739241  1  -1.179994  0  -0.293279  -0.324464  0  3.192768  0
N  N166  1  0.56447132  0.93429437  0.09683694  1  -1.182022  0  -0.319356  -0.376212  0  3.180985  0
N  N167  1  0.43553131  0.06570237  0.90316232  1  -1.181801  0  -0.319384  -0.376227  0  3.181031  0
N  N168  1  0.73552686  0.62270368  0.49161814  1  -1.226798  0  -0.328741  -0.238761  0  3.520643  0
N  N169  1  0.26447128  0.37729648  0.50838147  1  -1.226819  0  -0.328827  -0.238795  0  3.520614  0
N  N170  1  0.71342805  0.61508390  0.77779642  1  -1.230057  0  -0.323065  -0.223264  0  3.48819  0
N  N171  1  0.28657154  0.38491767  0.22220343  1  -1.230022  0  -0.323066  -0.22325  0  3.488077  0
N  N172  1  0.50670279  0.67497827  0.21549788  1  -1.174636  0  -0.292301  -0.32383  0  3.17681  0
N  N173  1  0.49330184  0.32502407  0.78450283  1  -1.174738  0  -0.292324  -0.323856  0  3.176771  0
N  N174  1  0.49893157  0.66731820  0.05917597  1  -1.191756  0  -0.311755  -0.363827  0  3.192562  0
N  N175  1  0.50107231  0.33268204  0.94082443  1  -1.191821  0  -0.311731  -0.363791  0  3.192514  0
O  O176  1  0.90634772  0.74042627  0.66531312  1  -1.198866  0  -0.341178  -0.598986  0  2.37607  0
O  O177  1  0.09365212  0.25957600  0.33468683  1  -1.19891  0  -0.341148  -0.598971  0  2.376002  0
O  O178  1  0.02715343  0.88789480  0.67454441  1  -1.160616  0  -0.326624  -0.545213  0  2.192503  0
O  O179  1  0.97284335  0.11210956  0.32546071  1  -1.160492  0  -0.326614  -0.545228  0  2.1924  0
O  O180  1  0.49285089  0.59781646  0.62995873  1  -1.153099  0  -0.320318  -0.549632  0  2.245227  0
O  O181  1  0.50714763  0.40219274  0.37004151  1  -1.153104  0  -0.320378  -0.549805  0  2.245189  0
O  O182  1  0.61160762  0.74596568  0.64074545  1  -1.210022  0  -0.341126  -0.598445  0  2.38036  0
O  O183  1  0.38839275  0.25404072  0.35925011  1  -1.209866  0  -0.341165  -0.598494  0  2.380394  0
O  O184  1  0.69079511  0.44936221  0.59925314  1  -1.152162  0  -0.333719  -0.553224  0  2.237508  0
O  O185  1  0.30920861  0.55064291  0.40074917  1  -1.152085  0  -0.333745  -0.553229  0  2.237549  0
O  O186  1  0.88170763  0.50072832  0.68291459  1  -1.185273  0  -0.343331  -0.580041  0  2.138885  0
O  O187  1  0.11829074  0.49926983  0.31709282  1  -1.185258  0  -0.343281  -0.580032  0  2.13888  0
O  O188  1  0.65088214  0.98617695  0.64779052  1  -1.174734  0  -0.330694  -0.562699  0  2.195226  0
O  O189  1  0.34911479  0.01382251  0.35221020  1  -1.174689  0  -0.330689  -0.562665  0  2.195221  0
O  O190  1  0.85201679  0.04034790  0.71862104  1  -1.164188  0  -0.338893  -0.568061  0  2.229848  0
O  O191  1  0.14798110  0.95965156  0.28137847  1  -1.164225  0  -0.338858  -0.568024  0  2.229697  0
