# generated using pymatgen
data_Cu3H16C12Br3N4
_symmetry_space_group_name_H-M   'P 1'
_cell_length_a   7.08207826
_cell_length_b   9.77718830
_cell_length_c   12.80902178
_cell_angle_alpha   83.29115984
_cell_angle_beta   84.14738230
_cell_angle_gamma   80.65330548
_symmetry_Int_Tables_number   1
_chemical_formula_structural   Cu3H16C12Br3N4
_chemical_formula_sum   'Cu6 H32 C24 Br6 N8'
_cell_volume   866.04211995
_cell_formula_units_Z   2
loop_
 _symmetry_equiv_pos_site_id
 _symmetry_equiv_pos_as_xyz
  1  'x, y, z'
loop_
 _atom_site_type_symbol
 _atom_site_label
 _atom_site_symmetry_multiplicity
 _atom_site_fract_x
 _atom_site_fract_y
 _atom_site_fract_z
 _atom_site_occupancy
 _atom_site_hle17_bader_spin_density
 _atom_site_hle17_ddec_charge
 _atom_site_hle17_ddec_spin_density
 _atom_site_hle17_ddec_sum_bond_order
 _atom_site_hle17_magmom
 _atom_site_hse06_10hf_bader_spin_density
 _atom_site_hse06_10hf_ddec_charge
 _atom_site_hse06_10hf_ddec_spin_density
 _atom_site_hse06_10hf_ddec_sum_bond_order
 _atom_site_hse06_10hf_magmom
 _atom_site_hse06_bader_spin_density
 _atom_site_hse06_ddec_charge
 _atom_site_hse06_ddec_spin_density
 _atom_site_hse06_ddec_sum_bond_order
 _atom_site_hse06_magmom
 _atom_site_pbe_bader_spin_density
 _atom_site_pbe_cm5_charge
 _atom_site_pbe_ddec_charge
 _atom_site_pbe_ddec_spin_density
 _atom_site_pbe_ddec_sum_bond_order
 _atom_site_pbe_magmom
Cu  Cu0  1  0.24720264  0.42631212  0.26743169  1  0  0.409621  0  1.954611  0  0  0.312393  0  2.407211  0  0  0.306484  0  2.36779  0  0  0.446614  0.319957  0  2.430378  0
Cu  Cu1  1  0.75278887  0.57368809  0.73257284  1  0  0.409708  0  1.9545  0  0  0.312485  0  2.407112  0  0  0.30654  0  2.367747  0  0  0.446619  0.320049  0  2.430176  0
Cu  Cu2  1  0.23488395  0.75546547  0.31918341  1  0  0.339796  0  2.025486  0  0  0.247658  0  2.502105  0  0  0.257156  0  2.447688  0  0  0.315309  0.243787  0  2.53666  0
Cu  Cu3  1  0.76513559  0.24451691  0.68081121  1  0  0.339731  0  2.025636  0  0  0.247612  0  2.502271  0  0  0.257104  0  2.447845  0  0  0.315341  0.243746  0  2.536782  0
Cu  Cu4  1  0.13652399  0.77327246  0.13668776  1  0  0.358283  0  1.921561  0  0  0.257316  0  2.393331  0  0  0.271861  0  2.335881  0  0  0.323652  0.249802  0  2.430035  0
Cu  Cu5  1  0.86347500  0.22672665  0.86330946  1  0  0.358262  0  1.921539  0  0  0.257327  0  2.393348  0  0  0.271874  0  2.335892  0  0  0.323631  0.249795  0  2.430027  0
H  H6  1  0.61320781  0.47630752  0.32635867  1  0  0.087614  0  0.989362  0  0  0.09226  0  1.061761  0  0  0.095542  0  1.059645  0  0  0.097185  0.089558  0  1.064035  0
H  H7  1  0.38678827  0.52369162  0.67364182  1  0  0.0876  0  0.989375  0  0  0.092253  0  1.061749  0  0  0.095536  0  1.059631  0  0  0.097178  0.089549  0  1.064016  0
H  H8  1  0.80576592  0.40699280  0.48223315  1  0  0.091578  0  0.97659  0  0  0.095283  0  1.049486  0  0  0.098323  0  1.048256  0  0  0.099674  0.092838  0  1.050727  0
H  H9  1  0.19423325  0.59300528  0.51776573  1  0  0.09158  0  0.976516  0  0  0.095298  0  1.04939  0  0  0.098338  0  1.048161  0  0  0.09967  0.092839  0  1.05067  0
H  H10  1  0.87224462  0.48428155  0.17881874  1  0  0.088194  0  0.985482  0  0  0.092001  0  1.059039  0  0  0.095121  0  1.057245  0  0  0.098371  0.089515  0  1.060728  0
H  H11  1  0.12774653  0.51572073  0.82118249  1  0  0.088191  0  0.985503  0  0  0.091991  0  1.059056  0  0  0.095112  0  1.057263  0  0  0.098387  0.089506  0  1.060737  0
H  H12  1  0.72875433  0.40796732  0.02798695  1  0  0.08942  0  0.962727  0  0  0.094573  0  1.033491  0  0  0.097181  0  1.032869  0  0  0.104256  0.092592  0  1.034208  0
H  H13  1  0.27123731  0.59203285  0.97201210  1  0  0.089414  0  0.962831  0  0  0.094589  0  1.03356  0  0  0.09721  0  1.032927  0  0  0.104265  0.092607  0  1.034276  0
H  H14  1  0.52480524  0.07478605  0.68691054  1  0  0.113312  0  0.983171  0  0  0.128095  0  1.056786  0  0  0.132227  0  1.052802  0  0  0.081954  0.124994  0  1.059526  0
H  H15  1  0.47520173  0.92521516  0.31309079  1  0  0.11333  0  0.983134  0  0  0.128113  0  1.056748  0  0  0.132243  0  1.052766  0  0  0.081987  0.125011  0  1.059497  0
H  H16  1  0.38394689  0.00826242  0.60127781  1  0  0.120415  0  0.941997  0  0  0.143978  0  0.996238  0  0  0.144813  0  0.997542  0  0  0.094024  0.143077  0  0.995912  0
H  H17  1  0.61605948  0.99173463  0.39872548  1  0  0.120417  0  0.941968  0  0  0.14399  0  0.996197  0  0  0.144823  0  0.997506  0  0  0.094031  0.143086  0  0.995873  0
H  H18  1  0.27760680  0.14540217  0.67626657  1  0  0.132673  0  0.965712  0  0  0.151567  0  1.029182  0  0  0.153608  0  1.029476  0  0  0.088005  0.149957  0  1.029053  0
H  H19  1  0.72239916  0.85459696  0.32373577  1  0  0.132652  0  0.965761  0  0  0.151549  0  1.029231  0  0  0.153622  0  1.029491  0  0  0.088025  0.149939  0  1.029109  0
H  H20  1  0.09088735  0.18431741  0.51931624  1  0  0.125359  0  0.963593  0  0  0.141784  0  1.031975  0  0  0.144763  0  1.02997  0  0  0.087675  0.139472  0  1.033467  0
H  H21  1  0.90911176  0.81568068  0.48068498  1  0  0.125367  0  0.963626  0  0  0.141796  0  1.031998  0  0  0.144775  0  1.029995  0  0  0.087682  0.139485  0  1.033492  0
H  H22  1  0.23008312  0.07050271  0.43281512  1  0  0.125939  0  0.943895  0  0  0.148059  0  1.002336  0  0  0.1493  0  1.003067  0  0  0.09365  0.147185  0  1.001721  0
H  H23  1  0.76991877  0.92949539  0.56718830  1  0  0.125948  0  0.943896  0  0  0.148058  0  1.002352  0  0  0.149299  0  1.003084  0  0  0.093649  0.147184  0  1.001733  0
H  H24  1  0.11145430  0.23433795  0.38004451  1  0  0.116973  0  0.966296  0  0  0.130417  0  1.03998  0  0  0.135523  0  1.035098  0  0  0.083764  0.126481  0  1.043788  0
H  H25  1  0.88854954  0.76565803  0.61995510  1  0  0.116983  0  0.966281  0  0  0.13042  0  1.039982  0  0  0.135528  0  1.035099  0  0  0.083764  0.126482  0  1.043777  0
H  H26  1  0.17909816  0.07816760  0.88908266  1  0  0.120427  0  0.987069  0  0  0.136694  0  1.055408  0  0  0.140673  0  1.051972  0  0  0.078595  0.133665  0  1.05797  0
H  H27  1  0.82089803  0.92183052  0.11092182  1  0  0.120487  0  0.986966  0  0  0.136754  0  1.055299  0  0  0.140731  0  1.051865  0  0  0.078626  0.133726  0  1.057864  0
H  H28  1  0.31377938  0.01424368  0.00001087  1  0  0.115361  0  0.963912  0  0  0.13337  0  1.035727  0  0  0.135699  0  1.033886  0  0  0.089592  0.131573  0  1.037093  0
H  H29  1  0.68621792  0.98576278  0.99999358  1  0  0.115442  0  0.963898  0  0  0.133459  0  1.03568  0  0  0.135789  0  1.033836  0  0  0.089629  0.131668  0  1.037045  0
H  H30  1  0.39698795  0.14194490  0.90295585  1  0  0.123136  0  0.969203  0  0  0.142286  0  1.034401  0  0  0.143938  0  1.034541  0  0  0.086481  0.140972  0  1.034425  0
H  H31  1  0.60300771  0.85805632  0.09704369  1  0  0.123158  0  0.969205  0  0  0.142309  0  1.034395  0  0  0.143961  0  1.034532  0  0  0.086488  0.140994  0  1.034427  0
H  H32  1  0.49051982  0.27078514  0.16833796  1  0  0.115337  0  0.969085  0  0  0.128643  0  1.042737  0  0  0.133113  0  1.038519  0  0  0.084719  0.12562  0  1.04527  0
H  H33  1  0.50948025  0.72922231  0.83166001  1  0  0.115314  0  0.969131  0  0  0.128609  0  1.042804  0  0  0.133082  0  1.038582  0  0  0.084699  0.125591  0  1.045318  0
H  H34  1  0.53849874  0.20757504  0.04116102  1  0  0.115968  0  0.974543  0  0  0.134565  0  1.042564  0  0  0.136594  0  1.041475  0  0  0.087073  0.132914  0  1.043594  0
H  H35  1  0.46149830  0.79243345  0.95883622  1  0  0.11593  0  0.974583  0  0  0.134503  0  1.042614  0  0  0.136529  0  1.041532  0  0  0.087066  0.13285  0  1.043645  0
H  H36  1  0.44785449  0.10040040  0.15056374  1  0  0.129166  0  0.944126  0  0  0.154841  0  0.996411  0  0  0.155723  0  0.997692  0  0  0.095575  0.154271  0  0.995304  0
H  H37  1  0.55214724  0.89960600  0.84943346  1  0  0.129048  0  0.944236  0  0  0.154741  0  0.9965  0  0  0.155621  0  0.997783  0  0  0.095543  0.15417  0  0.99539  0
C  C38  1  0.57293911  0.39809399  0.38877178  1  0  0.06053  0  3.705366  0  0  0.026107  0  3.966903  0  0  0.029753  0  3.979122  0  0  0.023124  0.02273  0  3.960877  0
C  C39  1  0.42705858  0.60190411  0.61122950  1  0  0.060582  0  3.705242  0  0  0.026181  0  3.966779  0  0  0.02983  0  3.978989  0  0  0.023206  0.022812  0  3.960724  0
C  C40  1  0.67868765  0.36012749  0.47480051  1  0  0.066949  0  3.696354  0  0  0.035173  0  3.955844  0  0  0.038634  0  3.96976  0  0  0.027238  0.032412  0  3.948197  0
C  C41  1  0.32131555  0.63987163  0.52519885  1  0  0.06685  0  3.696328  0  0  0.035046  0  3.955833  0  0  0.038504  0  3.969755  0  0  0.027146  0.032284  0  3.948173  0
C  C42  1  0.46913128  0.20773907  0.54560536  1  0  0.219333  0  3.643152  0  0  0.223632  0  3.886571  0  0  0.22979  0  3.903767  0  0  0.12084  0.218779  0  3.876405  0
C  C43  1  0.53086945  0.79225798  0.45439665  1  0  0.21948  0  3.643157  0  0  0.223776  0  3.886531  0  0  0.229972  0  3.903677  0  0  0.120952  0.218926  0  3.876358  0
C  C44  1  0.36076265  0.24661294  0.45722144  1  0  0.218308  0  3.644567  0  0  0.221404  0  3.888183  0  0  0.227147  0  3.905161  0  0  0.119729  0.217052  0  3.877861  0
C  C45  1  0.63923786  0.75338516  0.54278049  1  0  0.218222  0  3.644634  0  0  0.221355  0  3.888215  0  0  0.227087  0  3.905181  0  0  0.119696  0.217001  0  3.877869  0
C  C46  1  0.95352459  0.40758306  0.12958094  1  0  0.062342  0  3.699641  0  0  0.026379  0  3.965343  0  0  0.028925  0  3.979569  0  0  0.025894  0.024273  0  3.95757  0
C  C47  1  0.04646864  0.59241608  0.87041969  1  0  0.062428  0  3.699503  0  0  0.026476  0  3.965231  0  0  0.029024  0  3.979456  0  0  0.025893  0.024377  0  3.957442  0
C  C48  1  0.87456131  0.36503400  0.04711569  1  0  0.069003  0  3.694155  0  0  0.036349  0  3.953852  0  0  0.039109  0  3.970605  0  0  0.029867  0.033705  0  3.944213  0
C  C49  1  0.12543415  0.63496826  0.95288376  1  0  0.068938  0  3.694204  0  0  0.036201  0  3.953965  0  0  0.038948  0  3.970712  0  0  0.029823  0.03356  0  3.944323  0
C  C50  1  0.15766124  0.21803201  0.00761409  1  0  0.233651  0  3.635479  0  0  0.236941  0  3.874815  0  0  0.243717  0  3.892144  0  0  0.124537  0.232015  0  3.863686  0
C  C51  1  0.84233518  0.78197233  0.99238590  1  0  0.233633  0  3.635667  0  0  0.236829  0  3.87504  0  0  0.243602  0  3.892371  0  0  0.124545  0.231931  0  3.863851  0
C  C52  1  0.24019847  0.26517882  0.09009132  1  0  0.224327  0  3.650978  0  0  0.228975  0  3.892407  0  0  0.234514  0  3.909093  0  0  0.122363  0.224363  0  3.882026  0
C  C53  1  0.75979896  0.73482759  0.90990766  1  0  0.224386  0  3.651003  0  0  0.229125  0  3.89231  0  0  0.234664  0  3.908994  0  0  0.122461  0.224514  0  3.881905  0
C  C54  1  0.41170244  0.10271595  0.63217598  1  0  -0.3664  0  3.700376  0  0  -0.445434  0  3.932692  0  0  -0.450042  0  3.939647  0  0  -0.245626  -0.441564  0  3.928139  0
C  C55  1  0.58830352  0.89728318  0.36782637  1  0  -0.366444  0  3.700307  0  0  -0.445486  0  3.932636  0  0  -0.450132  0  3.939549  0  0  -0.245707  -0.441612  0  3.928091  0
C  C56  1  0.18860362  0.18075059  0.44693773  1  0  -0.362176  0  3.7003  0  0  -0.440398  0  3.933562  0  0  -0.445222  0  3.939714  0  0  -0.244368  -0.436639  0  3.929408  0
C  C57  1  0.81139732  0.81924542  0.55306437  1  0  -0.362208  0  3.700343  0  0  -0.440437  0  3.933599  0  0  -0.445253  0  3.939731  0  0  -0.244378  -0.436675  0  3.929426  0
C  C58  1  0.26793886  0.10691622  0.94595046  1  0  -0.367466  0  3.70207  0  0  -0.446683  0  3.930225  0  0  -0.451451  0  3.937334  0  0  -0.249013  -0.443027  0  3.925797  0
C  C59  1  0.73205772  0.89308709  0.05405196  1  0  -0.36763  0  3.702032  0  0  -0.44685  0  3.930233  0  0  -0.451614  0  3.93734  0  0  -0.249081  -0.443213  0  3.925801  0
C  C60  1  0.44129713  0.20835697  0.11364733  1  0  -0.360082  0  3.696262  0  0  -0.441143  0  3.927201  0  0  -0.445402  0  3.934156  0  0  -0.244909  -0.437664  0  3.922239  0
C  C61  1  0.55869876  0.79165047  0.88634772  1  0  -0.359876  0  3.696149  0  0  -0.440915  0  3.927071  0  0  -0.445163  0  3.934007  0  0  -0.244846  -0.43745  0  3.922113  0
Br  Br62  1  0.97967430  0.60100491  0.33669297  1  0  -0.506619  0  1.339604  0  0  -0.438112  0  1.720088  0  0  -0.456171  0  1.686629  0  0  -0.237158  -0.424547  0  1.741818  0
Br  Br63  1  0.02032419  0.39899630  0.66330721  1  0  -0.5066  0  1.339563  0  0  -0.43808  0  1.72001  0  0  -0.456132  0  1.686553  0  0  -0.237154  -0.424522  0  1.741701  0
Br  Br64  1  0.09320317  0.97732227  0.22994297  1  0  -0.476786  0  1.32399  0  0  -0.39461  0  1.66769  0  0  -0.418383  0  1.638293  0  0  -0.245264  -0.377879  0  1.685986  0
Br  Br65  1  0.90683427  0.02267673  0.77004768  1  0  -0.476758  0  1.324096  0  0  -0.394564  0  1.667773  0  0  -0.418337  0  1.63837  0  0  -0.245257  -0.377833  0  1.686051  0
Br  Br66  1  0.44774650  0.61768165  0.16329905  1  0  -0.493914  0  1.316303  0  0  -0.421934  0  1.693162  0  0  -0.439246  0  1.657722  0  0  -0.231373  -0.40942  0  1.715761  0
Br  Br67  1  0.55225310  0.38231434  0.83669999  1  0  -0.493941  0  1.3163  0  0  -0.421965  0  1.693154  0  0  -0.439264  0  1.657706  0  0  -0.231388  -0.409456  0  1.715723  0
N  N68  1  0.41085300  0.34475406  0.37983974  1  0  -0.29214  0  3.342466  0  0  -0.225106  0  3.632526  0  0  -0.227981  0  3.634954  0  0  -0.357632  -0.224361  0  3.631299  0
N  N69  1  0.58914591  0.65524507  0.62016061  1  0  -0.292129  0  3.34236  0  0  -0.225137  0  3.632441  0  0  -0.22801  0  3.634866  0  0  -0.357677  -0.224383  0  3.631145  0
N  N70  1  0.62581679  0.26738206  0.55504778  1  0  -0.279986  0  3.345623  0  0  -0.214487  0  3.639286  0  0  -0.220459  0  3.64235  0  0  -0.361377  -0.211415  0  3.637835  0
N  N71  1  0.37418967  0.73261496  0.44495160  1  0  -0.280026  0  3.345696  0  0  -0.2145  0  3.639326  0  0  -0.220488  0  3.642388  0  0  -0.361367  -0.211429  0  3.637896  0
N  N72  1  0.13736730  0.35987478  0.15089532  1  0  -0.28877  0  3.344745  0  0  -0.224011  0  3.634082  0  0  -0.227628  0  3.637519  0  0  -0.354087  -0.222948  0  3.632647  0
N  N73  1  0.86262792  0.64012852  0.84910483  1  0  -0.288984  0  3.344853  0  0  -0.224257  0  3.634178  0  0  -0.227871  0  3.63761  0  0  -0.354235  -0.223202  0  3.632707  0
N  N74  1  0.97592707  0.27096393  0.98490627  1  0  -0.278626  0  3.33781  0  0  -0.208841  0  3.628882  0  0  -0.21727  0  3.633237  0  0  -0.358964  -0.204097  0  3.626359  0
N  N75  1  0.02406739  0.72903624  0.01509342  1  0  -0.278532  0  3.337883  0  0  -0.20864  0  3.628883  0  0  -0.217064  0  3.63324  0  0  -0.3589  -0.20391  0  3.626367  0
