# generated using pymatgen
data_Zn2H24C39(NO4)2
_symmetry_space_group_name_H-M   'P 1'
_cell_length_a   10.84697842
_cell_length_b   12.67713791
_cell_length_c   13.47591449
_cell_angle_alpha   81.58841396
_cell_angle_beta   89.55264430
_cell_angle_gamma   79.91852292
_symmetry_Int_Tables_number   1
_chemical_formula_structural   Zn2H24C39(NO4)2
_chemical_formula_sum   'Zn2 H24 C39 N2 O8'
_cell_volume   1804.51585311
_cell_formula_units_Z   1
loop_
 _symmetry_equiv_pos_site_id
 _symmetry_equiv_pos_as_xyz
  1  'x, y, z'
loop_
 _atom_site_type_symbol
 _atom_site_label
 _atom_site_symmetry_multiplicity
 _atom_site_fract_x
 _atom_site_fract_y
 _atom_site_fract_z
 _atom_site_occupancy
 _atom_site_pbe_bader_charge
 _atom_site_pbe_bader_spin_density
 _atom_site_pbe_cm5_charge
 _atom_site_pbe_ddec_charge
 _atom_site_pbe_ddec_spin_density
 _atom_site_pbe_ddec_sum_bond_order
 _atom_site_pbe_magmom
Zn  Zn0  1  0.46638957  0.61226723  0.51331330  1  1.292333  0  0.672016  0.842568  0  2.378133  0
Zn  Zn1  1  0.51824923  0.38799769  0.48567848  1  1.286699  0  0.666993  0.829511  0  2.376815  0
H  H2  1  0.04768115  0.63424308  0.36167580  1  0.060481  0  0.09534  0.081422  0  0.998515  0
H  H3  1  0.60786984  0.30166890  0.31269141  1  0.151821  0  0.122142  0.09282  0  1.032304  0
H  H4  1  0.87358299  0.67139218  0.51785915  1  0.015075  0  0.092267  0.079584  0  1.010415  0
H  H5  1  0.55023819  0.97353955  0.32281257  1  0.10935  0  0.116153  0.116941  0  1.003887  0
H  H6  1  0.61876586  0.13641048  0.22908284  1  0.073316  0  0.116244  0.12067  0  0.982904  0
H  H7  1  0.40662795  0.24207205  0.60910095  1  0.153673  0  0.117495  0.139871  0  1.006714  0
H  H8  1  0.04980912  0.53567299  0.65680806  1  0.035541  0  0.095582  0.078969  0  0.997681  0
H  H9  1  0.93915621  0.35554934  0.62321902  1  0.059264  0  0.096148  0.080727  0  0.998069  0
H  H10  1  0.11511199  0.31755947  0.46826056  1  0.048625  0  0.091544  0.078714  0  1.004241  0
H  H11  1  0.93859346  0.45289401  0.32802349  1  0.029982  0  0.093631  0.079786  0  1.00124  0
H  H12  1  0.70773944  0.27356724  0.78643040  1  0.080846  0  0.102268  0.107044  0  1.00055  0
H  H13  1  0.45985603  0.56566908  0.82302606  1  0.076081  0  0.101123  0.104005  0  1.038382  0
H  H14  1  0.77340768  0.31926918  0.12899208  1  0.051805  0  0.099148  0.099433  0  0.999594  0
H  H15  1  0.78175911  0.25272627  0.96491360  1  0.040475  0  0.096701  0.095284  0  1.003754  0
H  H16  1  0.65475179  0.72963844  0.47242999  1  0.14844  0  0.104681  0.164228  0  1.03785  0
H  H17  1  0.57820564  0.80169269  0.36256490  1  0.099832  0  0.104205  0.161399  0  0.991604  0
H  H18  1  0.67485588  0.86637267  0.43291886  1  0.028716  0  0.094711  0.135908  0  1.008091  0
H  H19  1  0.33905588  0.74989796  0.20797600  1  0.111451  0  0.104243  0.108851  0  0.997113  0
H  H20  1  0.40158655  0.67815081  0.90745830  1  0.032108  0  0.098721  0.096866  0  1.021727  0
H  H21  1  0.30019766  0.79943060  0.02245488  1  0.057078  0  0.098404  0.093856  0  0.998791  0
H  H22  1  0.66783853  0.44118233  0.24223419  1  0.104928  0  0.10345  0.110757  0  1.026744  0
H  H23  1  0.31412644  0.72235473  0.65563417  1  0.11107  0  0.126525  0.104505  0  0.978898  0
H  H24  1  0.30739378  0.09407520  0.69804165  1  0.102241  0  0.112597  0.115357  0  0.975876  0
H  H25  1  0.26790556  0.90433258  0.71485969  1  0.069393  0  0.112475  0.121333  0  0.986635  0
C  C26  1  0.47772255  0.57432155  0.30651637  1  1.549837  0  0.213094  0.593932  0  4.179921  0
C  C27  1  0.50861294  0.56277477  0.02392462  1  -0.05609  0  -0.001901  0.036108  0  3.948277  0
C  C28  1  0.53811603  0.53939245  0.12877460  1  0.031618  0  -0.001379  0.061624  0  3.954265  0
C  C29  1  0.73372299  0.48738311  0.48665272  1  1.538934  0  0.213866  0.593794  0  4.17456  0
C  C30  1  0.56591669  0.48726548  0.95836544  1  0.037108  0  -0.006146  0.028838  0  3.96  0
C  C31  1  0.65871182  0.39660916  0.99774248  1  -0.044228  0  -0.009764  0.078188  0  4.025094  0
C  C32  1  0.69652426  0.38445267  0.10089741  1  -0.075007  0  -0.09497  -0.143322  0  4.031521  0
C  C33  1  0.63781084  0.45175924  0.16389121  1  -0.100344  0  -0.093242  -0.131581  0  4.009556  0
C  C34  1  0.52971821  0.49801010  0.85697564  1  -0.030351  0  -0.081453  -0.130706  0  3.947545  0
C  C35  1  0.66996067  0.33233003  0.83526470  1  -0.021129  0  -0.089571  -0.097443  0  4.007591  0
C  C36  1  0.47076450  0.60624375  0.19459969  1  -0.055908  0  -0.013147  -0.064772  0  3.923535  0
C  C37  1  0.05999994  0.39598340  0.47871594  1  -0.011856  0  -0.081377  -0.069447  0  3.652036  0
C  C38  1  0.33012398  0.89083326  0.65229862  1  -0.015342  0  -0.089145  -0.195572  0  3.995324  0
C  C39  1  0.57769051  0.22913383  0.35101377  1  0.492336  0  0.066307  0.124323  0  3.90771  0
C  C40  1  0.58515696  0.13597562  0.30547418  1  -0.003339  0  -0.082543  -0.135387  0  4.003385  0
C  C41  1  0.53350871  0.43998460  0.68908269  1  1.568459  0  0.210612  0.590214  0  4.175979  0
C  C42  1  0.54787251  0.04537869  0.35841713  1  -0.0101  0  -0.060549  -0.073057  0  3.957105  0
C  C43  1  0.50214600  0.04775900  0.45671650  1  -0.028418  0  0.004486  0.008972  0  3.951957  0
C  C44  1  0.48600961  0.14928080  0.49342680  1  0.445236  0  0.124235  0.204454  0  3.952258  0
C  C45  1  0.46159816  0.95647562  0.51783205  1  0.027773  0  0.001022  -0.070235  0  3.899717  0
C  C46  1  0.38381201  0.97656417  0.60122372  1  -0.047253  0  0.009089  0.110231  0  4.041102  0
C  C47  1  0.36465179  0.08135859  0.63247449  1  -0.020109  0  -0.07338  -0.111943  0  3.96833  0
C  C48  1  0.96444568  0.47137187  0.40109668  1  -0.015784  0  -0.07792  -0.067074  0  3.63987  0
C  C49  1  0.41858888  0.16329308  0.58370846  1  -0.016529  0  -0.067313  -0.125617  0  3.924041  0
C  C50  1  0.49878330  0.84685185  0.50153466  1  0.523471  0  0.144959  0.302594  0  3.861406  0
C  C51  1  0.35684722  0.79040173  0.62181705  1  0.462821  0  0.047387  0.09526  0  3.969856  0
C  C52  1  0.25423549  0.50139988  0.50218896  1  1.548449  0  0.21646  0.603405  0  4.166937  0
C  C53  1  0.92806848  0.59311258  0.50632824  1  0.006632  0  -0.081712  -0.070904  0  3.655626  0
C  C54  1  0.02210041  0.57222456  0.41956528  1  -0.03074  0  -0.078528  -0.067782  0  3.643144  0
C  C55  1  0.11858378  0.49611819  0.49640579  1  0.024933  0  -0.009001  -0.02619  0  3.640009  0
C  C56  1  0.02332533  0.51760372  0.58375199  1  -0.004597  0  -0.073035  -0.061861  0  3.632892  0
C  C57  1  0.96583968  0.41704078  0.56529596  1  -0.028529  0  -0.074155  -0.062538  0  3.631013  0
C  C58  1  0.60785110  0.81050868  0.43832521  1  -0.122339  0  -0.243911  -0.478955  0  3.935542  0
C  C59  1  0.86924092  0.49356891  0.48739468  1  0.020361  0  -0.009513  -0.027711  0  3.648258  0
C  C60  1  0.71009747  0.32116710  0.93401940  1  -0.045465  0  -0.097627  -0.146652  0  4.016705  0
C  C61  1  0.57861120  0.42209216  0.79607999  1  -0.011192  0  -0.022367  -0.031031  0  3.981355  0
C  C62  1  0.38790723  0.69942081  0.15593364  1  0.040481  0  -0.091946  -0.107337  0  4.011309  0
C  C63  1  0.36523211  0.72597985  0.05209020  1  -0.134361  0  -0.100149  -0.0942  0  4.081928  0
C  C64  1  0.42262974  0.65769050  0.98759137  1  0.026779  0  -0.092012  -0.129621  0  4.005181  0
N  N65  1  0.44276225  0.76830949  0.55058384  1  -1.245562  0  -0.316849  -0.260082  0  3.452133  0
N  N66  1  0.52826994  0.23627209  0.44121352  1  -1.234629  0  -0.308881  -0.238527  0  3.456587  0
O  O67  1  0.47652594  0.64994991  0.35948594  1  -1.155371  0  -0.315833  -0.548146  0  2.329701  0
O  O68  1  0.47874784  0.47500403  0.33981201  1  -1.175084  0  -0.313016  -0.557304  0  2.338717  0
O  O69  1  0.65991615  0.56292624  0.52110013  1  -1.183938  0  -0.315559  -0.559496  0  2.360853  0
O  O70  1  0.70124294  0.40618729  0.45464221  1  -1.163481  0  -0.325089  -0.551082  0  2.275983  0
O  O71  1  0.46650256  0.53173770  0.65782361  1  -1.183214  0  -0.326394  -0.568307  0  2.356166  0
O  O72  1  0.56569468  0.36350510  0.63700399  1  -1.16344  0  -0.319325  -0.550343  0  2.297728  0
O  O73  1  0.28318984  0.59529180  0.49713025  1  -1.160832  0  -0.325665  -0.554656  0  2.285511  0
O  O74  1  0.33048987  0.41145158  0.51196058  1  -1.181295  0  -0.32196  -0.563462  0  2.353997  0
