# generated using pymatgen
data_AlH3C6Cl2O7
_symmetry_space_group_name_H-M   'P 1'
_cell_length_a   6.74684684
_cell_length_b   10.65539100
_cell_length_c   18.42012033
_cell_angle_alpha   90.01758794
_cell_angle_beta   90.01222726
_cell_angle_gamma   90.00373364
_symmetry_Int_Tables_number   1
_chemical_formula_structural   AlH3C6Cl2O7
_chemical_formula_sum   'Al4 H12 C24 Cl8 O28'
_cell_volume   1324.22771825
_cell_formula_units_Z   4
loop_
 _symmetry_equiv_pos_site_id
 _symmetry_equiv_pos_as_xyz
  1  'x, y, z'
loop_
 _atom_site_type_symbol
 _atom_site_label
 _atom_site_symmetry_multiplicity
 _atom_site_fract_x
 _atom_site_fract_y
 _atom_site_fract_z
 _atom_site_occupancy
 _atom_site_pbe_bader_charge
 _atom_site_pbe_bader_spin_density
 _atom_site_pbe_cm5_charge
 _atom_site_pbe_ddec_charge
 _atom_site_pbe_ddec_spin_density
 _atom_site_pbe_ddec_sum_bond_order
 _atom_site_pbe_magmom
Al  Al0  1  0.09129086  0.75329305  0.24981157  1  2.492403  0  0.406928  1.656977  0  2.547292  0
Al  Al1  1  0.91052257  0.23958790  0.74965338  1  2.497008  0  0.406137  1.647595  0  2.567763  0
Al  Al2  1  0.58950658  0.73952223  0.24981423  1  2.497266  0  0.406021  1.648178  0  2.566958  0
Al  Al3  1  0.40874818  0.25340277  0.74971303  1  2.493827  0  0.407048  1.655927  0  2.548028  0
H  H4  1  0.68727971  0.52470020  0.55169307  1  0.601323  0  0.308984  0.338611  0  0.950933  0
H  H5  1  0.10692576  0.67634049  0.41599642  1  0.635756  0  0.322071  0.36596  0  0.922243  0
H  H6  1  0.10661192  0.67646585  0.08360498  1  0.639296  0  0.322202  0.366318  0  0.920558  0
H  H7  1  0.68690694  0.52460445  0.94799721  1  0.604286  0  0.308564  0.338718  0  0.951376  0
H  H8  1  0.39314480  0.17606765  0.91600543  1  0.636559  0  0.321838  0.365872  0  0.921595  0
H  H9  1  0.81292320  0.02451499  0.05179625  1  0.601187  0  0.30864  0.338352  0  0.951847  0
H  H10  1  0.81288544  0.02471677  0.44815362  1  0.601641  0  0.30888  0.33893  0  0.950684  0
H  H11  1  0.39326083  0.17661817  0.58365041  1  0.638715  0  0.322354  0.366475  0  0.920533  0
H  H12  1  0.32926274  0.57761903  0.25087376  1  0.605383  0  0.357662  0.44259  0  0.833376  0
H  H13  1  0.67461247  0.40899703  0.75842574  1  0.622301  0  0.362694  0.448395  0  0.822679  0
H  H14  1  0.82542793  0.90978509  0.25176803  1  0.61265  0  0.363252  0.449952  0  0.821698  0
H  H15  1  0.17075146  0.07775713  0.75196725  1  0.607882  0  0.35721  0.441644  0  0.834509  0
C  C16  1  0.34932758  0.88433174  0.35265314  1  1.595178  0  0.257821  0.652508  0  4.122655  0
C  C17  1  0.66036261  0.09642607  0.65008756  1  1.592729  0  0.262242  0.660388  0  4.10373  0
C  C18  1  0.66043974  0.09582118  0.84957645  1  1.591268  0  0.260924  0.659619  0  4.107065  0
C  C19  1  0.34922164  0.88422416  0.14703884  1  1.597939  0  0.25857  0.653107  0  4.121268  0
C  C20  1  0.83946756  0.59618830  0.15002186  1  1.592775  0  0.260812  0.658447  0  4.106909  0
C  C21  1  0.15094985  0.38468167  0.85250922  1  1.596207  0  0.258141  0.653381  0  4.121452  0
C  C22  1  0.15054002  0.38391900  0.64685251  1  1.597837  0  0.258552  0.653137  0  4.120168  0
C  C23  1  0.83976110  0.59595975  0.34949070  1  1.590193  0  0.261023  0.659437  0  4.105216  0
C  C24  1  0.85089483  0.51910189  0.41662339  1  0.15486  0  -0.032036  -0.186139  0  4.017736  0
C  C25  1  0.13913759  0.44867940  0.57602250  1  0.109286  0  -0.017955  -0.140126  0  3.903069  0
C  C26  1  0.13896748  0.44910427  0.92344372  1  0.135471  0  -0.01818  -0.140449  0  3.904801  0
C  C27  1  0.85052124  0.51929437  0.08285412  1  0.145326  0  -0.031106  -0.18528  0  4.017404  0
C  C28  1  0.36094408  0.94891275  0.07619545  1  0.109798  0  -0.018297  -0.14123  0  3.903802  0
C  C29  1  0.64931422  0.01903142  0.91680072  1  0.152215  0  -0.032383  -0.185906  0  4.016762  0
C  C30  1  0.64916148  0.01936562  0.58303852  1  0.164763  0  -0.031609  -0.187174  0  4.018701  0
C  C31  1  0.36098143  0.94882707  0.42357755  1  0.139039  0  -0.017957  -0.140069  0  3.904014  0
C  C32  1  0.97118095  0.55494510  0.47258587  1  0.542632  0  0.076742  0.178753  0  4.11131  0
C  C33  1  0.96917516  0.49521735  0.54559166  1  0.599816  0  0.094586  0.232165  0  4.011192  0
C  C34  1  0.96891175  0.49544091  0.95389303  1  0.570519  0  0.094841  0.233837  0  4.009539  0
C  C35  1  0.97074090  0.55515867  0.02690744  1  0.559601  0  0.076333  0.178323  0  4.111188  0
C  C36  1  0.53096220  0.99530418  0.04574929  1  0.59649  0  0.095164  0.233651  0  4.010993  0
C  C37  1  0.52915467  0.05493174  0.97274513  1  0.545171  0  0.076409  0.178108  0  4.112076  0
C  C38  1  0.52885543  0.05512184  0.52705911  1  0.549127  0  0.077216  0.179822  0  4.110356  0
C  C39  1  0.53092111  0.99532598  0.45406205  1  0.568609  0  0.095043  0.233261  0  4.009594  0
Cl  Cl40  1  0.35296659  0.44939397  0.52458570  1  -0.188669  0  0.002839  -0.04996  0  1.829532  0
Cl  Cl41  1  0.70510249  0.38653164  0.42038290  1  -0.171061  0  0.002955  -0.01512  0  1.643712  0
Cl  Cl42  1  0.70504054  0.38660150  0.07908437  1  -0.172426  0  0.003839  -0.013749  0  1.643786  0
Cl  Cl43  1  0.35248788  0.44971222  0.97506269  1  -0.188624  0  0.0036  -0.048806  0  1.831859  0
Cl  Cl44  1  0.79483524  0.88633460  0.92055266  1  -0.172686  0  0.002933  -0.014949  0  1.643535  0
Cl  Cl45  1  0.14719109  0.94965156  0.02467211  1  -0.187744  0  0.002929  -0.049476  0  1.830125  0
Cl  Cl46  1  0.14728444  0.94940952  0.47506873  1  -0.188234  0  0.003493  -0.048831  0  1.830896  0
Cl  Cl47  1  0.79489486  0.88682117  0.57929324  1  -0.180284  0  0.004219  -0.013284  0  1.644011  0
O  O48  1  0.51307374  0.85250280  0.17576603  1  -1.240883  0  -0.232343  -0.578454  0  2.379786  0
O  O49  1  0.49293815  0.13801144  0.82678736  1  -1.251957  0  -0.236418  -0.596262  0  2.341666  0
O  O50  1  0.49344718  0.14015260  0.67243022  1  -1.251181  0  -0.233848  -0.591612  0  2.342681  0
O  O51  1  0.51320002  0.85287097  0.32383242  1  -1.245067  0  -0.231815  -0.579205  0  2.381014  0
O  O52  1  0.00705849  0.63871857  0.32687129  1  -1.254289  0  -0.235392  -0.594559  0  2.341405  0
O  O53  1  0.98660525  0.35162353  0.67525173  1  -1.244784  0  -0.232164  -0.57737  0  2.379269  0
O  O54  1  0.98718815  0.35373451  0.82336928  1  -1.250705  0  -0.232519  -0.580915  0  2.382016  0
O  O55  1  0.00667370  0.63916763  0.17257535  1  -1.247402  0  -0.233909  -0.591829  0  2.341517  0
O  O56  1  0.17718216  0.86215893  0.32628201  1  -1.257919  0  -0.246198  -0.608821  0  2.337443  0
O  O57  1  0.82789166  0.11634804  0.67855990  1  -1.236364  0  -0.227308  -0.565697  0  2.332065  0
O  O58  1  0.82841643  0.11672209  0.82167465  1  -1.232405  0  -0.228636  -0.568395  0  2.330962  0
O  O59  1  0.17713133  0.86215049  0.17343989  1  -1.25843  0  -0.246083  -0.608112  0  2.337197  0
O  O60  1  0.67175846  0.61650795  0.17823912  1  -1.23261  0  -0.227523  -0.565801  0  2.332035  0
O  O61  1  0.32325431  0.36203349  0.82644395  1  -1.257172  0  -0.245986  -0.609298  0  2.338054  0
O  O62  1  0.32248316  0.36242201  0.67357143  1  -1.25567  0  -0.245295  -0.606886  0  2.335814  0
O  O63  1  0.67193638  0.61647187  0.32133971  1  -1.241619  0  -0.228248  -0.567806  0  2.331385  0
O  O64  1  0.33513066  0.66843856  0.24983224  1  -1.405335  0  -0.449273  -0.996337  0  2.168603  0
O  O65  1  0.66188788  0.31945629  0.75024514  1  -1.418807  0  -0.444979  -0.985295  0  2.156567  0
O  O66  1  0.83816328  0.81922213  0.24992583  1  -1.408826  0  -0.44478  -0.987394  0  2.159433  0
O  O67  1  0.16490542  0.16852354  0.74994001  1  -1.408372  0  -0.449015  -0.994909  0  2.169173  0
O  O68  1  0.79565300  0.49234282  0.58179899  1  -1.064656  0  -0.317725  -0.379745  0  2.372377  0
O  O69  1  0.09581865  0.65349867  0.46805880  1  -1.11343  0  -0.338841  -0.415352  0  2.388847  0
O  O70  1  0.09540248  0.65373403  0.03149432  1  -1.117745  0  -0.339097  -0.415952  0  2.385743  0
O  O71  1  0.79506688  0.49239973  0.91769853  1  -1.072284  0  -0.319004  -0.384925  0  2.371735  0
O  O72  1  0.40458011  0.15355853  0.96810765  1  -1.114956  0  -0.339723  -0.416092  0  2.386934  0
O  O73  1  0.70459036  0.99230712  0.08197704  1  -1.066265  0  -0.318425  -0.381705  0  2.372006  0
O  O74  1  0.70470236  0.99239220  0.41790863  1  -1.067638  0  -0.318899  -0.383421  0  2.371493  0
O  O75  1  0.40410760  0.15360150  0.53156270  1  -1.117836  0  -0.338739  -0.415745  0  2.386025  0
