# generated using pymatgen
data_CuH18C14(NO)6
_symmetry_space_group_name_H-M   'P 1'
_cell_length_a   9.35555137
_cell_length_b   9.60465240
_cell_length_c   10.39593288
_cell_angle_alpha   90.00020253
_cell_angle_beta   90.00000899
_cell_angle_gamma   113.54225068
_symmetry_Int_Tables_number   1
_chemical_formula_structural   CuH18C14(NO)6
_chemical_formula_sum   'Cu2 H36 C28 N12 O12'
_cell_volume   856.39259162
_cell_formula_units_Z   2
loop_
 _symmetry_equiv_pos_site_id
 _symmetry_equiv_pos_as_xyz
  1  'x, y, z'
loop_
 _atom_site_type_symbol
 _atom_site_label
 _atom_site_symmetry_multiplicity
 _atom_site_fract_x
 _atom_site_fract_y
 _atom_site_fract_z
 _atom_site_occupancy
 _atom_site_pbe_cm5_charge
 _atom_site_pbe_ddec_charge
 _atom_site_pbe_ddec_spin_density
 _atom_site_pbe_ddec_sum_bond_order
 _atom_site_pbe_magmom
Cu  Cu0  1  0.50000103  1.00000000  0.49999846  1  0.74351  0.80007  0.747454  2.265027  0.589
Cu  Cu1  1  0.99999952  0.99999826  0.99999855  1  0.743513  0.800008  0.747451  2.265156  0.589
H  H2  1  0.49457314  0.92905637  0.77678803  1  0.277327  0.368368  -2.2e-05  0.976057  0.0
H  H3  1  0.00542485  0.07094317  0.27679009  1  0.27734  0.368415  -2.2e-05  0.976007  0.0
H  H4  1  0.50542838  0.07094417  0.22320860  1  0.277329  0.368374  -2.2e-05  0.976039  0.0
H  H5  1  0.99457575  0.92905510  0.72320846  1  0.277331  0.368399  -2.2e-05  0.976019  0.0
H  H6  1  0.33507701  0.93238915  0.72443101  1  0.281706  0.36865  4.5e-05  0.971098  0.0
H  H7  1  0.16492133  0.06761128  0.22443308  1  0.281711  0.368643  4.5e-05  0.97109  0.0
H  H8  1  0.66492497  0.06761253  0.27556562  1  0.281711  0.368643  4.5e-05  0.971104  0.0
H  H9  1  0.83507911  0.93238925  0.77556354  1  0.281715  0.368644  4.5e-05  0.971092  0.0
H  H10  1  0.56236479  0.69355880  0.54113587  1  0.13923  0.107373  2.5e-05  0.99566  0.0
H  H11  1  0.93764370  0.30644079  0.04113204  1  0.139271  0.107377  2.5e-05  0.995638  0.0
H  H12  1  0.43763320  0.30643832  0.45886460  1  0.139238  0.107416  2.5e-05  0.99566  0.0
H  H13  1  0.06235536  0.69355634  0.95886939  1  0.139292  0.107412  2.4e-05  0.995618  0.0
H  H14  1  0.29180466  0.79769955  0.26348417  1  0.144304  0.129092  3e-06  1.006984  0.0
H  H15  1  0.20819759  0.20229995  0.76347392  1  0.144274  0.129089  3e-06  1.007061  0.0
H  H16  1  0.70820206  0.20230328  0.73651245  1  0.144307  0.129118  3e-06  1.00699  0.0
H  H17  1  0.79179887  0.79769603  0.23652655  1  0.144288  0.129126  3e-06  1.007022  0.0
H  H18  1  0.18344241  0.53679153  0.14917942  1  0.112624  0.094106  3.8e-05  1.036724  0.0
H  H19  1  0.31655884  0.46321083  0.64917388  1  0.1126  0.094062  3.8e-05  1.03676  0.0
H  H20  1  0.81655590  0.46320899  0.85082105  1  0.112632  0.094135  3.8e-05  1.03672  0.0
H  H21  1  0.68343900  0.53678855  0.35082755  1  0.112602  0.094052  3.8e-05  1.036766  0.0
H  H22  1  0.20847251  0.38406617  0.22923644  1  0.117506  0.126995  0.000103  1.002996  0.0
H  H23  1  0.29153227  0.61593431  0.72923525  1  0.117512  0.127008  0.000103  1.003034  0.0
H  H24  1  0.79152686  0.61593435  0.77076403  1  0.117509  0.127  0.000103  1.002997  0.0
H  H25  1  0.70847093  0.38406510  0.27076907  1  0.117526  0.127023  0.000103  1.003017  0.0
H  H26  1  0.40296655  0.29542733  0.16411950  1  0.108095  0.123464  -2.2e-05  0.998002  0.0
H  H27  1  0.09703886  0.70457739  0.66412242  1  0.108081  0.123467  -2.3e-05  0.998008  0.0
H  H28  1  0.59703114  0.70457432  0.83588097  1  0.10808  0.123425  -2.2e-05  0.997951  0.0
H  H29  1  0.90296051  0.29542314  0.33588479  1  0.108075  0.123407  -2.2e-05  0.998017  0.0
H  H30  1  0.39683400  0.70162390  0.99343199  1  0.099551  0.101275  0.000109  1.011494  0.0
H  H31  1  0.10316382  0.29837776  0.49343288  1  0.099538  0.101282  0.000109  1.011451  0.0
H  H32  1  0.60316430  0.29837662  0.00656752  1  0.09953  0.101262  0.000109  1.011419  0.0
H  H33  1  0.89683739  0.70162730  0.50657240  1  0.099564  0.101297  0.000109  1.011488  0.0
H  H34  1  0.08155174  0.98683564  0.45638779  1  0.101742  0.001344  0.007356  1.052829  0.009
H  H35  1  0.41843741  0.01314994  0.95638272  1  0.10174  0.001393  0.007356  1.052776  0.009
H  H36  1  0.91845023  0.01316603  0.54360980  1  0.101783  0.001361  0.007355  1.052981  0.009
H  H37  1  0.58156120  0.98685398  0.04361102  1  0.101752  0.001384  0.007357  1.052781  0.009
C  C38  1  0.48888324  0.68612730  0.45866226  1  0.149493  0.146771  -0.001033  3.977631  0.0
C  C39  1  0.01112216  0.31387197  0.95865811  1  0.149487  0.146893  -0.001033  3.977494  0.0
C  C40  1  0.51111567  0.31387209  0.54133725  1  0.149476  0.146716  -0.001033  3.977597  0.0
C  C41  1  0.98887645  0.68612402  0.04134333  1  0.149538  0.146942  -0.001034  3.977564  0.0
C  C42  1  0.34994241  0.74034916  0.31970222  1  0.168465  0.094613  -0.001095  3.849798  0.0
C  C43  1  0.15006271  0.25964948  0.81969696  1  0.168567  0.094601  -0.001094  3.850122  0.0
C  C44  1  0.65005972  0.25965025  0.68029440  1  0.168479  0.094557  -0.001095  3.849791  0.0
C  C45  1  0.84993682  0.74034878  0.18030352  1  0.168548  0.094575  -0.001094  3.85016  0.0
C  C46  1  0.26996365  0.49856537  0.18941145  1  -0.049675  -0.156771  0.000633  3.889441  0.001
C  C47  1  0.23003829  0.50143605  0.68940794  1  -0.049651  -0.156704  0.000633  3.889507  0.001
C  C48  1  0.73003465  0.50143515  0.81058903  1  -0.049697  -0.156807  0.000633  3.889439  0.001
C  C49  1  0.76996215  0.49856449  0.31059638  1  -0.049641  -0.156716  0.000633  3.889396  0.001
C  C50  1  0.38759985  0.49875481  0.09007934  1  -0.015495  0.088882  0.000171  3.981424  0.0
C  C51  1  0.11240128  0.50124728  0.59007870  1  -0.01552  0.088823  0.000171  3.981537  0.0
C  C52  1  0.61239846  0.50124571  0.90992017  1  -0.015486  0.088889  0.000171  3.981461  0.0
C  C53  1  0.88759702  0.49875324  0.40992561  1  -0.015477  0.088896  0.000171  3.981519  0.0
C  C54  1  0.44586971  0.38534350  0.09236082  1  -0.089548  -0.118589  0.000101  3.953072  0.0
C  C55  1  0.05413143  0.61465860  0.59236343  1  -0.089523  -0.11863  0.000101  3.953197  0.0
C  C56  1  0.55412967  0.61465703  0.90764157  1  -0.089525  -0.118578  0.000101  3.953061  0.0
C  C57  1  0.94586627  0.38534305  0.40764281  1  -0.089517  -0.118551  0.000101  3.953012  0.0
C  C58  1  0.44243781  0.61322654  0.99695245  1  -0.09516  -0.136496  0.000116  3.992805  0.0
C  C59  1  0.05756216  0.38677515  0.49695171  1  -0.095155  -0.136504  0.000116  3.992768  0.0
C  C60  1  0.55756142  0.38677625  0.00304898  1  -0.095146  -0.136509  0.000116  3.992759  0.0
C  C61  1  0.94244012  0.61322992  0.50305357  1  -0.095197  -0.136506  0.000116  3.992936  0.0
C  C62  1  0.18606661  0.99394827  0.51136604  1  0.133961  0.462583  -0.000907  4.273827  -0.002
C  C63  1  0.31392348  0.00603980  0.01136121  1  0.133903  0.462471  -0.000907  4.27383  -0.002
C  C64  1  0.81393705  0.00605227  0.48863347  1  0.133887  0.462504  -0.000907  4.273893  -0.002
C  C65  1  0.68607391  0.99395845  0.98863253  1  0.133879  0.462474  -0.000908  4.273896  -0.002
N  N66  1  0.34548982  0.60141973  0.29585517  1  -0.12754  0.177654  0.001401  3.74073  0.002
N  N67  1  0.15451417  0.39857879  0.79585036  1  -0.127511  0.177729  0.001401  3.740463  0.002
N  N68  1  0.65450909  0.39857966  0.70414530  1  -0.127508  0.177706  0.001401  3.740565  0.002
N  N69  1  0.84548750  0.60141948  0.20415300  1  -0.127519  0.177696  0.001401  3.740497  0.002
N  N70  1  0.43322468  0.56472875  0.38318061  1  -0.216732  -0.265714  0.004003  3.131767  0.005
N  N71  1  0.06677643  0.43526789  0.88317591  1  -0.216726  -0.265803  0.004003  3.131663  0.005
N  N72  1  0.56677163  0.43526950  0.61682082  1  -0.216735  -0.265715  0.004003  3.131726  0.005
N  N73  1  0.93322371  0.56472924  0.11682745  1  -0.216787  -0.265868  0.004002  3.131765  0.005
N  N74  1  0.44076458  0.79697616  0.42273011  1  -0.371313  -0.317203  0.047876  3.627356  0.063
N  N75  1  0.05924288  0.20302297  0.92272465  1  -0.371452  -0.317324  0.047878  3.627598  0.063
N  N76  1  0.55923954  0.20302553  0.57726651  1  -0.371328  -0.317184  0.047876  3.627394  0.063
N  N77  1  0.94075358  0.79697301  0.07727486  1  -0.371479  -0.317372  0.047877  3.627714  0.063
O  O78  1  0.29729009  0.99786401  0.43853469  1  -0.325018  -0.48875  0.066857  2.419989  0.097
O  O79  1  0.20269396  0.00210899  0.93853340  1  -0.324946  -0.488669  0.066848  2.420083  0.097
O  O80  1  0.70271388  0.00213993  0.56146193  1  -0.325049  -0.488783  0.066854  2.420017  0.097
O  O81  1  0.79730142  0.99788698  0.06146515  1  -0.324973  -0.488708  0.066855  2.420018  0.097
O  O82  1  0.18252366  0.99801933  0.63229315  1  -0.315022  -0.524078  0.001913  2.270821  0.004
O  O83  1  0.31747480  0.00198407  0.13228926  1  -0.315055  -0.524078  0.001913  2.270758  0.004
O  O84  1  0.81747847  0.00198007  0.36770348  1  -0.314971  -0.523992  0.001913  2.27066  0.004
O  O85  1  0.68252549  0.99801873  0.86770736  1  -0.314999  -0.524014  0.001913  2.27085  0.004
O  O86  1  0.40102388  0.87428430  0.72395381  1  -0.600235  -0.783556  -0.001394  2.016958  0.0
O  O87  1  0.09897890  0.12572181  0.22396280  1  -0.600287  -0.783616  -0.001394  2.016898  0.0
O  O88  1  0.59897717  0.12571510  0.27604474  1  -0.600251  -0.78356  -0.001393  2.016966  0.0
O  O89  1  0.90102108  0.87427758  0.77603479  1  -0.60027  -0.783586  -0.001395  2.016931  0.0
