# generated using pymatgen
data_CuH10(C2N5)2
_symmetry_space_group_name_H-M   'P 1'
_cell_length_a   6.91074987
_cell_length_b   9.77663428
_cell_length_c   13.74520726
_cell_angle_alpha   89.99724431
_cell_angle_beta   102.93514182
_cell_angle_gamma   90.00012438
_symmetry_Int_Tables_number   1
_chemical_formula_structural   CuH10(C2N5)2
_chemical_formula_sum   'Cu4 H40 C16 N40'
_cell_volume   905.11335885
_cell_formula_units_Z   4
loop_
 _symmetry_equiv_pos_site_id
 _symmetry_equiv_pos_as_xyz
  1  'x, y, z'
loop_
 _atom_site_type_symbol
 _atom_site_label
 _atom_site_symmetry_multiplicity
 _atom_site_fract_x
 _atom_site_fract_y
 _atom_site_fract_z
 _atom_site_occupancy
 _atom_site_hle17_ddec_charge
 _atom_site_hle17_ddec_spin_density
 _atom_site_hle17_ddec_sum_bond_order
 _atom_site_hle17_magmom
 _atom_site_hse06_10hf_ddec_charge
 _atom_site_hse06_10hf_ddec_spin_density
 _atom_site_hse06_10hf_ddec_sum_bond_order
 _atom_site_hse06_10hf_magmom
 _atom_site_hse06_ddec_charge
 _atom_site_hse06_ddec_spin_density
 _atom_site_hse06_ddec_sum_bond_order
 _atom_site_hse06_magmom
 _atom_site_pbe_cm5_charge
 _atom_site_pbe_ddec_charge
 _atom_site_pbe_ddec_spin_density
 _atom_site_pbe_ddec_sum_bond_order
 _atom_site_pbe_magmom
Cu  Cu0  1  0.50253737  0.18105912  0.38103628  1  0.719755  -0.71308  1.943507  -0.501  0.668026  -0.792406  2.348046  -0.608  0.748722  -0.861871  2.289824  -0.684  0.757872  0.619658  -0.744173  2.388287  -0.56
Cu  Cu1  1  0.99729981  0.68101116  0.11891049  1  0.720081  0.71306  1.943018  0.501  0.668267  0.792409  2.347457  0.608  0.748754  0.861869  2.289587  0.684  0.75786  0.619895  0.744173  2.387655  0.56
Cu  Cu2  1  0.49738122  0.81898239  0.61896517  1  0.719894  -0.713028  1.942964  -0.501  0.667966  -0.792363  2.347835  -0.608  0.748404  -0.861789  2.289925  -0.684  0.757922  0.619596  -0.744124  2.388036  -0.56
Cu  Cu3  1  0.00276777  0.31896488  0.88108002  1  0.720031  0.713038  1.943629  0.501  0.668355  0.79233  2.348069  0.608  0.748476  0.861765  2.290692  0.684  0.758072  0.619953  0.744104  2.388353  0.56
H  H4  1  0.65693411  0.38321891  0.49947777  1  0.282458  0.00061  0.938398  0.002  0.263176  -0.000585  1.019478  0.0  0.26955  -0.000327  1.015735  0.001  0.290765  0.258328  -0.000747  1.023  0.0
H  H5  1  0.84300035  0.88327276  0.00053740  1  0.282539  -0.00061  0.938182  -0.002  0.263151  0.000584  1.019373  0.0  0.269521  0.000327  1.015629  -0.001  0.290822  0.258304  0.000746  1.022884  0.0
H  H6  1  0.34299327  0.61679600  0.50053053  1  0.282371  0.000608  0.938447  0.002  0.26318  -0.000585  1.019511  0.0  0.269554  -0.000327  1.015763  0.001  0.290793  0.258331  -0.000747  1.023033  0.0
H  H7  1  0.15710391  0.11673499  0.99948068  1  0.282517  -0.000607  0.938188  -0.002  0.263281  0.000587  1.019316  0.0  0.269655  0.000329  1.015563  -0.001  0.290821  0.258433  0.000749  1.022837  0.0
H  H8  1  0.81074538  0.25302323  0.51912573  1  0.292926  0.000618  0.895624  0.001  0.279305  -0.000386  0.964969  0.0  0.284711  -0.000101  0.962992  0.0  0.295385  0.275351  -0.000605  0.966946  0.0
H  H9  1  0.68905055  0.75317582  0.98081466  1  0.293002  -0.000613  0.896066  -0.001  0.27936  0.000388  0.965319  0.0  0.284798  0.000103  0.963252  0.0  0.295296  0.275369  0.000608  0.967382  0.0
H  H10  1  0.18917615  0.74699782  0.48087752  1  0.292913  0.000616  0.895903  0.001  0.279351  -0.000385  0.965229  0.0  0.284772  -0.000101  0.963211  0.0  0.295453  0.275391  -0.000605  0.967221  0.0
H  H11  1  0.31090810  0.24691479  0.01911217  1  0.29279  -0.000619  0.896081  -0.001  0.279291  0.000382  0.965312  0.0  0.28473  9.8e-05  0.963235  0.0  0.295458  0.275333  0.000602  0.967291  0.0
H  H12  1  0.95953225  0.42051950  0.43036868  1  0.056268  -0.003021  0.93921  -0.004  0.07231  -0.002364  1.003405  -0.003  0.07157  -0.001694  1.004351  -0.002  0.098172  0.072853  -0.002852  1.002471  -0.003
H  H13  1  0.54039277  0.92059191  0.06964846  1  0.056436  0.003021  0.93903  0.004  0.072631  0.002363  1.003122  0.003  0.07189  0.001695  1.004078  0.002  0.098395  0.073179  0.002853  1.00219  0.003
H  H14  1  0.04036725  0.57948518  0.56961890  1  0.056508  -0.00302  0.938923  -0.004  0.072509  -0.002363  1.00321  -0.003  0.071771  -0.001694  1.00416  -0.002  0.098392  0.073049  -0.002851  1.002276  -0.003
H  H15  1  0.45965670  0.07941482  0.93035593  1  0.056367  0.003023  0.939015  0.004  0.072534  0.002366  1.003165  0.003  0.071785  0.001697  1.004115  0.002  0.098423  0.073083  0.002855  1.002231  0.003
H  H16  1  0.72841337  0.43038461  0.34183068  1  0.069583  -0.000133  0.933256  0.0  0.087972  5.3e-05  0.990533  0.0  0.087782  5.8e-05  0.991593  0.0  0.106834  0.087984  5.9e-05  0.98985  0.0
H  H17  1  0.77154031  0.93039207  0.15815818  1  0.069468  0.000126  0.933294  0.0  0.08777  -5.5e-05  0.990761  0.0  0.087575  -5.9e-05  0.991834  0.0  0.106732  0.08779  -6.1e-05  0.990089  0.0
H  H18  1  0.27149782  0.56962212  0.65816845  1  0.06925  -0.000129  0.933357  0.0  0.087656  5.4e-05  0.990685  0.0  0.087461  5.8e-05  0.991757  0.0  0.106676  0.087667  6e-05  0.990005  0.0
H  H19  1  0.22851820  0.06956557  0.84183999  1  0.069378  0.00013  0.933304  0.0  0.087708  -5.3e-05  0.990779  0.0  0.087507  -5.8e-05  0.991851  0.0  0.106798  0.087727  -5.9e-05  0.990107  0.0
H  H20  1  0.95856713  0.27438741  0.27697101  1  0.069797  -0.003466  0.929317  -0.005  0.079747  -0.002121  0.994534  -0.003  0.07827  -0.001508  0.99701  -0.002  0.101004  0.08061  -0.002568  0.992975  -0.003
H  H21  1  0.54139108  0.77440664  0.22304343  1  0.069721  0.003468  0.929718  0.005  0.079713  0.00212  0.994865  0.003  0.078247  0.001509  0.99732  0.002  0.101101  0.080572  0.002568  0.993318  0.003
H  H22  1  0.04138406  0.72561420  0.72303789  1  0.069832  -0.00347  0.929742  -0.005  0.079902  -0.002122  0.994824  -0.003  0.078431  -0.00151  0.997287  -0.002  0.101105  0.080761  -0.00257  0.993276  -0.003
H  H23  1  0.45860566  0.22554077  0.77691550  1  0.069847  0.003464  0.929527  0.005  0.079985  0.002119  0.994593  0.003  0.078517  0.001508  0.997056  0.002  0.10122  0.08084  0.002567  0.993044  0.003
H  H24  1  0.99010615  0.17395964  0.38668859  1  0.07214  -2.6e-05  0.944851  0.0  0.084009  7e-06  1.009533  0.0  0.083201  1.3e-05  1.011738  0.0  0.10681  0.084349  -1e-05  1.008182  0.0
H  H25  1  0.50975088  0.67401172  0.11331604  1  0.072126  2.7e-05  0.944584  0.0  0.083996  -8e-06  1.009262  0.0  0.083187  -1.3e-05  1.011468  0.0  0.106787  0.084334  9e-06  1.007907  0.0
H  H26  1  0.00978545  0.82604095  0.61332426  1  0.072331  -2.3e-05  0.944567  0.0  0.084164  7e-06  1.009302  0.0  0.083357  1.3e-05  1.011507  0.0  0.1068  0.084501  -1e-05  1.007956  0.0
H  H27  1  0.49026671  0.32596740  0.88664169  1  0.072034  2.3e-05  0.944362  0.0  0.083867  -7e-06  1.009253  0.0  0.083057  -1.3e-05  1.011461  0.0  0.106738  0.084204  1e-05  1.007899  0.0
H  H28  1  0.74014610  0.05787127  0.30104909  1  0.27672  0.000845  0.943002  0.003  0.25892  -0.000547  1.019447  0.001  0.265789  -0.000228  1.015756  0.001  0.285895  0.254045  -0.000813  1.022282  0.0
H  H29  1  0.75970803  0.55787293  0.19895267  1  0.276783  -0.000842  0.943024  -0.003  0.258991  0.000549  1.019401  -0.001  0.265864  0.000231  1.015706  -0.001  0.285969  0.254105  0.000816  1.022252  0.0
H  H30  1  0.25976337  0.94212114  0.69896293  1  0.276696  0.000843  0.943087  0.003  0.258872  -0.000548  1.019525  0.001  0.265741  -0.00023  1.015841  0.001  0.285913  0.25399  -0.000814  1.022368  0.0
H  H31  1  0.24031569  0.44211334  0.80107635  1  0.276446  -0.000843  0.943266  -0.003  0.258658  0.000548  1.019712  -0.001  0.26553  0.00023  1.016003  -0.001  0.285853  0.253775  0.000814  1.022562  0.0
H  H32  1  0.64783565  0.18706864  0.22140435  1  0.284981  0.00077  0.952779  0.002  0.262404  -0.000337  1.034759  0.0  0.270462  -7.9e-05  1.029524  0.001  0.281605  0.256689  -0.000529  1.03871  0.0
H  H33  1  0.85215464  0.68707635  0.27854557  1  0.285019  -0.000774  0.952775  -0.002  0.262539  0.000334  1.034781  0.0  0.27061  7.5e-05  1.029508  -0.001  0.281629  0.256825  0.000525  1.038741  0.0
H  H34  1  0.35212059  0.81290741  0.77857240  1  0.285164  0.000775  0.952749  0.002  0.262462  -0.000334  1.035001  0.0  0.27053  -7.6e-05  1.029736  0.001  0.281612  0.256747  -0.000525  1.038954  0.0
H  H35  1  0.14786128  0.31295902  0.72142216  1  0.285177  -0.000774  0.952789  -0.002  0.262534  0.000335  1.034915  0.0  0.270602  7.7e-05  1.029648  -0.001  0.281635  0.25682  0.000527  1.038867  0.0
H  H36  1  0.30227383  0.38181482  0.51528763  1  0.086143  0.000161  0.978971  0.0  0.088528  6.2e-05  1.058217  0.0  0.092099  4.6e-05  1.053103  0.0  0.128926  0.085663  9.5e-05  1.062199  0.0
H  H37  1  0.19773680  0.88183214  0.98479304  1  0.085913  -0.000163  0.979211  0.0  0.088369  -6.2e-05  1.058443  0.0  0.092046  -4.6e-05  1.053206  0.0  0.128862  0.085491  -9.5e-05  1.062441  0.0
H  H38  1  0.69758816  0.61818883  0.48479742  1  0.085786  0.000163  0.97942  0.0  0.088333  6.2e-05  1.058555  0.0  0.091959  4.6e-05  1.053374  0.0  0.128906  0.085456  9.5e-05  1.062554  0.0
H  H39  1  0.80247146  0.11820221  0.01515281  1  0.085682  -0.000162  0.979763  0.0  0.088359  -6.2e-05  1.058816  0.0  0.091955  -4.6e-05  1.053651  0.0  0.128957  0.08548  -9.5e-05  1.062816  0.0
H  H40  1  0.27017987  0.87248706  0.35200773  1  0.10107  0.000283  0.952079  0.0  0.103155  0.000192  1.027551  0.0  0.105952  0.000158  1.023414  0.0  0.133818  0.100836  0.00021  1.031019  0.0
H  H41  1  0.22966889  0.37245570  0.14799662  1  0.1011  -0.000284  0.952143  0.0  0.10308  -0.000192  1.02772  0.0  0.105876  -0.000158  1.02358  0.0  0.133693  0.100756  -0.00021  1.03118  0.0
H  H42  1  0.72988609  0.12751865  0.64798986  1  0.100948  0.000279  0.952296  0.0  0.103184  0.000192  1.027606  0.0  0.105985  0.000158  1.023465  0.0  0.133897  0.100863  0.000211  1.031076  0.0
H  H43  1  0.77042923  0.62759604  0.85203165  1  0.101177  -0.00028  0.95216  0.0  0.103061  -0.000192  1.027808  0.0  0.105851  -0.000159  1.023687  0.0  0.133736  0.100746  -0.000211  1.031262  0.0
C  C44  1  0.82827696  0.36166504  0.39296314  1  0.048765  -0.000835  3.630343  0.001  -0.007097  -0.002408  3.89717  0.0  -0.002473  -0.001367  3.91117  0.0  -0.080567  -0.009995  -0.003235  3.887668  -0.001
C  C45  1  0.67165819  0.86170443  0.10702957  1  0.048635  0.000853  3.630176  -0.001  -0.007497  0.002412  3.897225  0.0  -0.002881  0.00137  3.911216  0.0  -0.080794  -0.010423  0.003234  3.887752  0.001
C  C46  1  0.17164162  0.63834885  0.60703831  1  0.049013  -0.000843  3.630147  0.001  -0.006896  -0.002411  3.897033  0.0  -0.002279  -0.001371  3.911028  0.0  -0.080535  -0.009786  -0.003237  3.887521  -0.001
C  C47  1  0.32837217  0.13827673  0.89296167  1  0.048807  0.000851  3.629961  -0.001  -0.00725  0.002414  3.89724  0.0  -0.002598  0.001372  3.911164  0.0  -0.080747  -0.010181  0.003239  3.887778  0.001
C  C48  1  0.88580490  0.24069384  0.33616989  1  0.048279  0.001047  3.604789  0.004  0.005198  -0.001678  3.863158  0.001  0.010641  -0.000851  3.877884  0.001  -0.076931  0.001781  -0.002346  3.853335  0.001
C  C49  1  0.61411374  0.74073040  0.16383527  1  0.048261  -0.001063  3.604542  -0.004  0.005327  0.001682  3.862766  -0.001  0.010769  0.000852  3.877485  -0.001  -0.077051  0.00192  0.002348  3.852948  -0.001
C  C50  1  0.11412093  0.75931903  0.66384186  1  0.047689  0.001045  3.605402  0.004  0.004622  -0.001677  3.86371  0.001  0.010059  -0.000853  3.878438  0.001  -0.077118  0.001212  -0.002346  3.853888  0.001
C  C51  1  0.38589160  0.25923644  0.83614141  1  0.048486  -0.001051  3.604087  -0.004  0.005232  0.001679  3.86278  -0.001  0.010664  0.000849  3.877478  -0.001  -0.077012  0.001832  0.002345  3.852954  -0.001
C  C52  1  0.27737868  0.27573072  0.53163298  1  0.154738  0.003437  3.742831  0.002  0.106088  0.000738  4.021861  0.0  0.117658  0.001375  4.03455  0.001  0.132732  0.09911  0.00024  4.012752  -0.001
C  C53  1  0.22259267  0.77576450  0.96839365  1  0.154956  -0.003438  3.742953  -0.002  0.106179  -0.000741  4.021943  0.0  0.117654  -0.001376  4.034623  -0.001  0.132685  0.099222  -0.000243  4.012801  0.001
C  C54  1  0.72251987  0.72425248  0.46840614  1  0.154892  0.003448  3.743964  0.003  0.106091  0.000742  4.022917  0.0  0.117605  0.001379  4.03561  0.001  0.132558  0.099135  0.000245  4.013773  -0.001
C  C55  1  0.77755858  0.22425246  0.03157754  1  0.154749  -0.003445  3.744289  -0.003  0.105803  -0.000742  4.023284  0.0  0.11735  -0.00138  4.035992  -0.001  0.13233  0.098843  -0.000244  4.014136  0.001
C  C56  1  0.24796163  0.93529922  0.28568480  1  0.171645  0.002364  3.706843  0.001  0.123952  -0.00039  3.990782  -0.001  0.137178  0.000426  4.003327  0.0  0.140828  0.11557  -0.00094  3.983149  -0.002
C  C57  1  0.25192970  0.43527676  0.21430636  1  0.171637  -0.002368  3.706882  -0.001  0.124058  0.000391  3.990721  0.001  0.137289  -0.000428  4.003265  0.0  0.140972  0.115683  0.00094  3.983062  0.002
C  C58  1  0.75208057  0.06470445  0.71431002  1  0.171889  0.002409  3.706793  0.001  0.124066  -0.000389  3.990739  -0.001  0.13729  0.000429  4.00326  0.0  0.140821  0.115677  -0.000938  3.9831  -0.002
C  C59  1  0.74815774  0.56473816  0.78573594  1  0.171852  -0.002401  3.707291  -0.001  0.124316  0.000393  3.991125  0.001  0.137551  -0.000425  4.003621  0.0  0.140945  0.115933  0.000942  3.983483  0.002
N  N60  1  0.71633288  0.30668152  0.46398933  1  -0.570886  -0.103862  3.144671  -0.126  -0.551634  -0.070864  3.426231  -0.09  -0.583937  -0.057553  3.432556  -0.077  -0.633539  -0.531619  -0.078096  3.423912  -0.095
N  N61  1  0.78352601  0.80672475  0.03598254  1  -0.571194  0.103824  3.145059  0.126  -0.551725  0.070844  3.426872  0.09  -0.58397  0.057533  3.433187  0.077  -0.63352  -0.53171  0.078081  3.424539  0.095
N  N62  1  0.28360203  0.69334567  0.53601475  1  -0.570921  -0.103844  3.145128  -0.126  -0.551852  -0.070858  3.426455  -0.09  -0.584096  -0.057552  3.432766  -0.077  -0.633627  -0.531834  -0.078087  3.424128  -0.095
N  N63  1  0.21648990  0.19326255  0.96398591  1  -0.57099  0.103819  3.145373  0.126  -0.551999  0.070849  3.427018  0.09  -0.584195  0.057543  3.433317  0.077  -0.633861  -0.531984  0.078083  3.424715  0.095
N  N64  1  0.70515061  0.16024001  0.29512775  1  -0.572877  -0.119854  3.168132  -0.144  -0.555775  -0.073755  3.447703  -0.093  -0.590718  -0.059635  3.453146  -0.079  -0.644111  -0.534245  -0.081797  3.445483  -0.099
N  N65  1  0.79475054  0.66022495  0.20483378  1  -0.572682  0.119852  3.167822  0.144  -0.555672  0.073749  3.447144  0.093  -0.590599  0.059629  3.452574  0.079  -0.644048  -0.534133  0.081786  3.444923  0.099
N  N66  1  0.29476069  0.83977183  0.70486558  1  -0.572508  -0.119848  3.168057  -0.144  -0.555296  -0.073747  3.44776  -0.093  -0.590201  -0.059631  3.453186  -0.079  -0.644032  -0.533758  -0.081788  3.445536  -0.099
N  N67  1  0.20527870  0.33975416  0.79513769  1  -0.572796  0.119837  3.168211  0.144  -0.555561  0.073737  3.447752  0.093  -0.590406  0.059625  3.453179  0.079  -0.644149  -0.534029  0.081772  3.445535  0.099
N  N68  1  0.35020402  0.17070732  0.48808125  1  -0.281472  -0.059596  3.313003  -0.074  -0.240545  -0.044866  3.644871  -0.059  -0.267668  -0.038367  3.664789  -0.052  -0.272242  -0.223905  -0.048916  3.632945  -0.062
N  N69  1  0.14975137  0.67071415  0.01193021  1  -0.281873  0.059616  3.313421  0.074  -0.240807  0.044862  3.645225  0.059  -0.267899  0.038373  3.665153  0.052  -0.27248  -0.224157  0.048913  3.63328  0.062
N  N70  1  0.64974383  0.82931987  0.51194691  1  -0.281463  -0.059633  3.313376  -0.074  -0.240402  -0.044874  3.645189  -0.059  -0.26747  -0.038386  3.665101  -0.052  -0.272284  -0.22375  -0.048924  3.633248  -0.062
N  N71  1  0.85046721  0.32932428  0.98810124  1  -0.281303  0.059649  3.314034  0.074  -0.240351  0.044899  3.645846  0.059  -0.267364  0.038401  3.665761  0.052  -0.272215  -0.223692  0.048953  3.633889  0.062
N  N72  1  0.29011282  0.05567764  0.52737570  1  -0.114069  0.002142  2.981283  0.001  -0.111251  0.000335  3.301338  0.0  -0.112479  0.000839  3.314051  0.001  -0.107067  -0.110613  -0.000131  3.293753  -0.001
N  N73  1  0.20981182  0.55570498  0.97259561  1  -0.11432  -0.002158  2.981363  -0.002  -0.111636  -0.000333  3.30147  0.0  -0.112841  -0.000842  3.314154  -0.001  -0.107134  -0.110997  0.000131  3.293872  0.001
N  N74  1  0.70981230  0.94431273  0.47259450  1  -0.114471  0.002153  2.981402  0.002  -0.11177  0.000332  3.301573  0.0  -0.113019  0.000843  3.314282  0.001  -0.107229  -0.111139  -0.000131  3.293992  -0.001
N  N75  1  0.79035630  0.44431811  0.02742848  1  -0.114461  -0.002148  2.98166  -0.002  -0.111717  -0.000329  3.301868  0.0  -0.112957  -0.000835  3.314555  0.0  -0.10714  -0.111076  0.000137  3.294266  0.001
N  N76  1  0.18482453  0.09197524  0.59196730  1  -0.109348  -0.004918  2.998091  -0.006  -0.090897  -0.003032  3.297752  -0.004  -0.090705  -0.001774  3.306889  -0.002  -0.10352  -0.090286  -0.004232  3.291054  -0.005
N  N77  1  0.31506561  0.59204281  0.90799363  1  -0.108655  0.004919  2.997018  0.006  -0.090134  0.003031  3.296541  0.004  -0.089944  0.001771  3.305665  0.002  -0.103119  -0.089523  0.00423  3.289836  0.005
N  N78  1  0.81501913  0.90795171  0.40798246  1  -0.108781  -0.00492  2.997509  -0.006  -0.090284  -0.003034  3.297114  -0.004  -0.090097  -0.001774  3.306266  -0.002  -0.103258  -0.089668  -0.004234  3.290414  -0.005
N  N79  1  0.68497721  0.40794858  0.09196779  1  -0.108997  0.004928  2.997131  0.006  -0.090571  0.00304  3.29677  0.004  -0.090377  0.001776  3.305913  0.002  -0.103415  -0.089967  0.00424  3.290072  0.005
N  N80  1  0.17265715  0.23024968  0.59585649  1  -0.287497  -0.003189  3.018312  -0.003  -0.243617  -0.001713  3.29326  -0.002  -0.252135  -0.001508  3.301441  -0.002  -0.227322  -0.237373  -0.001871  3.286595  -0.002
N  N81  1  0.32724386  0.73031855  0.90414385  1  -0.287623  0.003182  3.018491  0.003  -0.243775  0.001711  3.293561  0.002  -0.252303  0.001507  3.301763  0.002  -0.227376  -0.237527  0.001866  3.286908  0.002
N  N82  1  0.82716039  0.76967625  0.40413824  1  -0.28747  -0.003182  3.018847  -0.003  -0.243664  -0.001708  3.293981  -0.002  -0.252188  -0.001505  3.302187  -0.002  -0.227254  -0.23742  -0.001865  3.287333  -0.002
N  N83  1  0.67277582  0.26966568  0.09578140  1  -0.287304  0.00319  3.018332  0.003  -0.243443  0.00171  3.293424  0.002  -0.251969  0.001509  3.301624  0.002  -0.227263  -0.237211  0.001867  3.286787  0.002
N  N84  1  0.31607040  0.06368344  0.28277868  1  -0.26492  -0.070505  3.275132  -0.087  -0.222706  -0.052065  3.591328  -0.068  -0.250194  -0.044237  3.610048  -0.061  -0.262269  -0.206169  -0.056645  3.580539  -0.072
N  N85  1  0.18384678  0.56366948  0.21720218  1  -0.264663  0.070522  3.274789  0.087  -0.22241  0.052088  3.590871  0.068  -0.249866  0.044247  3.609592  0.061  -0.262142  -0.205866  0.056667  3.580052  0.072
N  N86  1  0.68388385  0.93634784  0.71722549  1  -0.265028  -0.070522  3.275081  -0.087  -0.222828  -0.052076  3.591396  -0.068  -0.250259  -0.044243  3.610081  -0.061  -0.262502  -0.206288  -0.056656  3.580596  -0.072
N  N87  1  0.81625966  0.43634646  0.78285907  1  -0.265319  0.070539  3.275264  0.087  -0.222934  0.052085  3.591249  0.068  -0.250322  0.044253  3.609966  0.061  -0.262235  -0.206384  0.05666  3.580438  0.072
N  N88  1  0.25860496  0.10530113  0.18698230  1  -0.105667  0.002811  2.964779  0.003  -0.089886  0.000393  3.254554  0.001  -0.086645  0.000872  3.266381  0.001  -0.108422  -0.091391  0.000104  3.246828  0.0
N  N89  1  0.24136836  0.60529926  0.31299059  1  -0.105751  -0.002803  2.964686  -0.003  -0.089955  -0.00039  3.254456  -0.001  -0.086704  -0.000863  3.266258  -0.001  -0.108366  -0.091468  -9.9e-05  3.246742  0.0
N  N90  1  0.74135525  0.89472811  0.81302111  1  -0.105724  0.0028  2.965041  0.003  -0.08994  0.000395  3.254789  0.001  -0.086701  0.000873  3.266592  0.001  -0.108395  -0.091444  0.000104  3.247066  0.0
N  N91  1  0.75869469  0.39467474  0.68708378  1  -0.105361  -0.002808  2.963982  -0.003  -0.089625  -0.000396  3.253694  -0.001  -0.086377  -0.000869  3.265464  -0.001  -0.108266  -0.09113  -0.000105  3.245977  0.0
N  N92  1  0.15898904  0.00496971  0.13474383  1  -0.13942  -0.004649  3.032988  -0.006  -0.111662  -0.003073  3.327665  -0.004  -0.113097  -0.001926  3.338731  -0.003  -0.109808  -0.109763  -0.00405  3.319554  -0.005
N  N93  1  0.34097055  0.50496550  0.36523747  1  -0.139485  0.004649  3.032833  0.006  -0.11179  0.003075  3.327565  0.004  -0.113216  0.00193  3.338625  0.003  -0.109892  -0.109895  0.004054  3.319471  0.005
N  N94  1  0.84105166  0.99503293  0.86525153  1  -0.139343  -0.004609  3.033035  -0.005  -0.111583  -0.003071  3.327684  -0.004  -0.113011  -0.001925  3.338725  -0.003  -0.109751  -0.109682  -0.00405  3.319563  -0.005
N  N95  1  0.65904360  0.49497884  0.63482609  1  -0.139568  0.004627  3.032228  0.005  -0.111862  0.003071  3.326975  0.004  -0.11329  0.001927  3.338019  0.003  -0.109993  -0.10997  0.004048  3.318886  0.005
N  N96  1  0.15030220  0.89603510  0.19466694  1  -0.289197  -0.007036  3.070307  -0.007  -0.257679  -0.003684  3.372004  -0.003  -0.27346  -0.003204  3.38478  -0.003  -0.234764  -0.247419  -0.004213  3.364152  -0.004
N  N97  1  0.34960004  0.39601180  0.30532467  1  -0.289297  0.007044  3.070694  0.007  -0.257797  0.003679  3.372471  0.003  -0.273617  0.0032  3.385239  0.003  -0.234863  -0.247531  0.004206  3.364614  0.004
N  N98  1  0.84978471  0.10395731  0.80532364  1  -0.289267  -0.007081  3.070139  -0.007  -0.257774  -0.003679  3.371906  -0.003  -0.273511  -0.003206  3.384693  -0.003  -0.234722  -0.247506  -0.004209  3.364045  -0.004
N  N99  1  0.65042490  0.60395606  0.69471833  1  -0.28949  0.007068  3.070408  0.007  -0.258009  0.003684  3.372176  0.003  -0.273775  0.003202  3.384913  0.003  -0.23493  -0.247745  0.00421  3.364326  0.004
