# generated using pymatgen
data_CuH9C12(N3O2)2
_symmetry_space_group_name_H-M   'P 1'
_cell_length_a   9.56999146
_cell_length_b   10.19643220
_cell_length_c   15.39400907
_cell_angle_alpha   96.35324313
_cell_angle_beta   103.70925665
_cell_angle_gamma   102.41256248
_symmetry_Int_Tables_number   1
_chemical_formula_structural   CuH9C12(N3O2)2
_chemical_formula_sum   'Cu4 H36 C48 N24 O16'
_cell_volume   1404.41260863
_cell_formula_units_Z   4
loop_
 _symmetry_equiv_pos_site_id
 _symmetry_equiv_pos_as_xyz
  1  'x, y, z'
loop_
 _atom_site_type_symbol
 _atom_site_label
 _atom_site_symmetry_multiplicity
 _atom_site_fract_x
 _atom_site_fract_y
 _atom_site_fract_z
 _atom_site_occupancy
 _atom_site_pbe_bader_charge
 _atom_site_pbe_bader_spin_density
 _atom_site_pbe_cm5_charge
 _atom_site_pbe_ddec_charge
 _atom_site_pbe_ddec_spin_density
 _atom_site_pbe_ddec_sum_bond_order
 _atom_site_pbe_magmom
Cu  Cu0  1  0.99232984  0.04079243  0.40223114  1  1.102431  -0.570343  0.712532  0.896497  -0.730609  2.170258  -0.571
Cu  Cu1  1  0.00727275  0.95907731  0.59750650  1  1.102741  -0.570034  0.712452  0.896592  -0.730336  2.171238  -0.57
Cu  Cu2  1  0.67782994  0.84538708  0.35322634  1  1.129266  0.584886  0.713704  0.910404  0.741581  2.226269  0.584
Cu  Cu3  1  0.32190827  0.15445221  0.64684838  1  1.129127  0.584792  0.713257  0.910316  0.741434  2.227745  0.584
H  H4  1  0.91359292  0.80103422  0.41741357  1  0.629467  0.000807  0.277376  0.363938  0.000424  0.98218  0.0
H  H5  1  0.08607864  0.19889873  0.58242100  1  0.625949  0.00081  0.277356  0.364029  0.000433  0.981603  0.0
H  H6  1  0.75154293  0.04765684  0.24265449  1  0.620012  -1.7e-05  0.26888  0.328027  8.6e-05  1.047477  0.0
H  H7  1  0.24852761  0.95255751  0.75727755  1  0.622382  -1.7e-05  0.269059  0.328326  8.5e-05  1.046919  0.0
H  H8  1  0.83892647  0.93328650  0.22831209  1  0.650374  1e-06  0.273133  0.370103  0.000111  0.98554  0.0
H  H9  1  0.16087963  0.06669788  0.77159885  1  0.6501  2e-06  0.272941  0.369804  0.000111  0.985961  0.0
H  H10  1  0.87778825  0.38458511  0.53903961  1  0.149024  -0.000173  0.121041  0.144901  -0.000141  1.005743  0.0
H  H11  1  0.12226387  0.61542593  0.46091659  1  0.14925  -0.000171  0.121055  0.144954  -0.000139  1.005613  0.0
H  H12  1  0.85311861  0.85303246  0.75911854  1  0.152578  -0.000177  0.138755  0.107637  -1.9e-05  0.999209  0.0
H  H13  1  0.14707972  0.14683725  0.24107725  1  0.150867  -0.000178  0.138861  0.107327  -2e-05  0.999457  0.0
H  H14  1  0.88391322  0.64803996  0.51368416  1  0.270437  -0.000451  0.147373  0.13253  -0.000281  1.036501  0.0
H  H15  1  0.11635711  0.35196489  0.48648669  1  0.269646  -0.000453  0.146965  0.131839  -0.000282  1.037304  0.0
H  H16  1  0.49470203  0.47870419  0.60850852  1  0.115128  -0.000131  0.116481  0.095501  -7.8e-05  1.007029  0.0
H  H17  1  0.50535351  0.52119913  0.39157807  1  0.115894  -0.000131  0.116572  0.095724  -7.8e-05  1.006831  0.0
H  H18  1  0.44161131  0.10711775  0.44907669  1  0.115805  6.4e-05  0.116775  0.095329  0.00011  1.010749  0.0
H  H19  1  0.55839670  0.89292908  0.55086222  1  0.115291  6.1e-05  0.116955  0.095627  0.000108  1.010643  0.0
H  H20  1  0.87573375  0.35644403  0.32716752  1  0.099675  -7.2e-05  0.110694  0.081231  -5.1e-05  1.02991  0.0
H  H21  1  0.12428087  0.64383219  0.67293595  1  0.100995  -7.2e-05  0.110923  0.081405  -5.2e-05  1.030136  0.0
H  H22  1  0.53422151  0.06856312  0.13791773  1  0.102972  1e-05  0.124187  0.106707  -4e-06  0.992628  0.0
H  H23  1  0.46584611  0.93152742  0.86220421  1  0.102256  1e-05  0.124108  0.106453  -4e-06  0.992618  0.0
H  H24  1  0.10092205  0.03814104  0.93360965  1  0.131055  2e-06  0.132768  0.109841  -9e-06  0.989965  0.0
H  H25  1  0.89923405  0.96204708  0.06639911  1  0.128744  2e-06  0.132643  0.109476  -9e-06  0.990196  0.0
H  H26  1  0.23092729  0.36984106  0.14721258  1  0.164539  -1.7e-05  0.136324  0.104056  -2.4e-05  1.021226  0.0
H  H27  1  0.76903847  0.63011898  0.85296212  1  0.152015  -1.7e-05  0.136191  0.10371  -2.4e-05  1.02032  0.0
H  H28  1  0.48317862  0.47664881  0.19978464  1  0.126142  0.000143  0.113066  0.115881  0.000117  1.039921  0.0
H  H29  1  0.51683649  0.52345571  0.80018974  1  0.127459  0.000142  0.112668  0.115481  0.000116  1.039722  0.0
H  H30  1  0.38905576  0.90812324  0.37102304  1  0.131413  0.001379  0.119003  0.095842  0.000499  1.048873  0.002
H  H31  1  0.61100770  0.09181480  0.62890308  1  0.127561  0.001376  0.118969  0.095999  0.000498  1.048925  0.002
H  H32  1  0.52394270  0.70724304  0.16919095  1  0.17854  0.00206  0.128964  0.114967  0.000999  1.01765  0.002
H  H33  1  0.47607630  0.29290090  0.83065329  1  0.178703  0.002051  0.128961  0.11495  0.000994  1.017766  0.002
H  H34  1  0.32405887  0.41393753  0.90602588  1  0.137417  -2.7e-05  0.132972  0.10434  -7e-06  0.977651  0.0
H  H35  1  0.67600151  0.58591690  0.09397831  1  0.138474  -2.7e-05  0.132802  0.104074  -7e-06  0.97723  0.0
H  H36  1  0.06190780  0.67555485  0.96670452  1  0.21219  -1e-06  0.130063  0.100489  1e-06  1.064454  0.0
H  H37  1  0.93813908  0.32438634  0.03313172  1  0.21339  -1e-06  0.130052  0.100283  1e-06  1.064968  0.0
H  H38  1  0.06886100  0.74312644  0.11307285  1  0.169075  5e-05  0.119029  0.131262  2.7e-05  1.02611  0.0
H  H39  1  0.93099564  0.25663868  0.88692955  1  0.168622  4.9e-05  0.119093  0.131221  2.7e-05  1.025781  0.0
C  C40  1  0.75902766  0.35931716  0.53351647  1  0.023188  0.000225  -0.055834  -0.121493  0.00014  3.881267  0.001
C  C41  1  0.24100723  0.64068995  0.46642456  1  0.022132  0.000215  -0.056081  -0.122004  0.000133  3.882094  0.001
C  C42  1  0.73022642  0.12555459  0.44638395  1  1.601881  0.000185  0.223563  0.603153  8.2e-05  4.148535  0.0
C  C43  1  0.26968631  0.87440670  0.55352324  1  1.603281  0.000185  0.22325  0.6021  8.1e-05  4.147859  0.0
C  C44  1  0.66769094  0.23252347  0.48794805  1  0.012288  0.000424  -0.006762  -0.05967  0.000244  3.93711  0.0
C  C45  1  0.33230600  0.76751834  0.51198171  1  0.012857  0.000469  -0.006431  -0.058334  0.000277  3.936085  0.0
C  C46  1  0.69362235  0.44919513  0.57474837  1  0.272486  8.9e-05  0.101069  0.097089  8e-05  4.008986  0.0
C  C47  1  0.30644228  0.55076994  0.42529634  1  0.275994  9e-05  0.101313  0.097172  7.9e-05  4.010937  0.0
C  C48  1  0.83735615  0.77388182  0.70197823  1  0.983859  0.00019  0.152598  0.150825  -0.000365  3.969121  -0.001
C  C49  1  0.16282479  0.22607103  0.29817218  1  0.986376  0.000216  0.152534  0.150805  -0.000347  3.970284  -0.001
C  C50  1  0.86030300  0.67243788  0.57853401  1  0.958737  0.000995  0.176475  0.116174  0.000214  3.838113  0.001
C  C51  1  0.13980700  0.32752321  0.42159303  1  0.956067  0.001002  0.176961  0.11706  0.000215  3.837796  0.001
C  C52  1  0.54359833  0.41001050  0.57275940  1  0.565432  -0.000788  0.048312  0.015637  -0.00057  3.985847  -0.001
C  C53  1  0.45646050  0.58996905  0.42726806  1  0.56433  -0.000795  0.048134  0.01557  -0.000574  3.9862  -0.001
C  C54  1  0.51635837  0.20410487  0.48517157  1  0.502057  -0.002178  0.052945  0.079709  -0.001415  3.916889  -0.002
C  C55  1  0.48363893  0.79595020  0.51475863  1  0.504585  -0.002185  0.052716  0.078942  -0.001421  3.916849  -0.002
C  C56  1  0.75492258  0.57799299  0.32067457  1  1.576168  0.000751  0.21305  0.586113  0.001763  4.19054  0.0
C  C57  1  0.24491438  0.42210088  0.67929304  1  1.579238  0.000738  0.2134  0.586527  0.001753  4.189627  0.0
C  C58  1  0.68725352  0.43403845  0.27007555  1  -0.014175  0.007729  -0.014023  -0.069915  0.005355  3.969912  0.006
C  C59  1  0.31275910  0.56609267  0.72989147  1  -0.019906  0.007723  -0.014031  -0.069597  0.005347  3.967784  0.006
C  C60  1  0.76558931  0.33322289  0.28001881  1  0.555402  0.001147  0.052605  0.076552  0.000738  3.938407  0.001
C  C61  1  0.23447727  0.66697589  0.72001211  1  0.555229  0.001144  0.052328  0.076163  0.000737  3.938177  0.001
C  C62  1  0.57505630  0.17273805  0.17519222  1  0.592167  -0.000169  0.056171  0.024818  -0.000102  3.899654  0.0
C  C63  1  0.42502530  0.82738475  0.82488233  1  0.595303  -0.000168  0.055859  0.025349  -0.000101  3.898602  0.0
C  C64  1  0.48827076  0.26673144  0.16223442  1  0.330748  4.7e-05  0.104686  0.106461  -1e-06  4.024875  0.0
C  C65  1  0.51180482  0.73337330  0.83781639  1  0.329367  4.6e-05  0.104863  0.113256  -1e-06  4.027715  0.0
C  C66  1  0.16606364  0.11305370  0.99280877  1  0.999147  1.6e-05  0.143692  0.153704  5e-06  3.998892  0.0
C  C67  1  0.83402319  0.88708077  0.00723239  1  1.000618  1.6e-05  0.143498  0.154827  4e-06  3.996629  0.0
C  C68  1  0.22791094  0.28348739  0.09828595  1  0.94984  1.5e-05  0.151524  0.083647  7e-06  3.950952  0.0
C  C69  1  0.77207617  0.71651998  0.90186183  1  0.964168  1.5e-05  0.152091  0.091913  7e-06  3.954559  0.0
C  C70  1  0.54530955  0.39946073  0.21007398  1  0.003714  -0.000145  -0.065104  -0.143585  -6.4e-05  3.954594  0.0
C  C71  1  0.45472239  0.60066623  0.78990399  1  0.006941  -0.000148  -0.064734  -0.142655  -6.5e-05  3.950901  0.0
C  C72  1  0.10267641  0.89550292  0.27506111  1  1.594193  0.002145  0.209668  0.568976  0.000178  4.216947  0.004
C  C73  1  0.89743226  0.10448604  0.72496075  1  1.592285  0.00213  0.209846  0.56933  0.000162  4.217461  0.004
C  C74  1  0.21594447  0.83290143  0.24528041  1  -0.001788  -0.004999  -0.007617  -0.047496  -0.00351  3.957741  -0.004
C  C75  1  0.78403959  0.16695761  0.75466360  1  -3.3e-05  -0.005015  -0.007741  -0.047589  -0.003525  3.957816  -0.004
C  C76  1  0.35838044  0.85249079  0.30219118  1  0.47143  -0.000723  0.048173  0.058187  0.000181  3.912409  0.0
C  C77  1  0.64159013  0.14732639  0.69775470  1  0.47333  -0.000719  0.048133  0.057688  0.000189  3.913228  0.0
C  C78  1  0.43343877  0.73897166  0.18944792  1  0.539361  -0.001346  0.057361  0.029468  -0.00019  3.878218  -0.001
C  C79  1  0.56649994  0.26093854  0.81047269  1  0.539341  -0.001368  0.057024  0.029249  -0.000211  3.878781  -0.001
C  C80  1  0.29122381  0.71063016  0.13015848  1  0.328798  0.004157  0.110092  0.113097  0.002776  4.006914  0.004
C  C81  1  0.70869810  0.28930124  0.86977498  1  0.331333  0.004136  0.110271  0.112963  0.002764  4.008387  0.004
C  C82  1  0.28183603  0.48863506  0.94100708  1  0.964585  0.000223  0.139047  0.147826  0.000156  4.016164  0.0
C  C83  1  0.71818774  0.51121161  0.05895735  1  0.96491  0.000221  0.139581  0.148858  0.000154  4.015767  0.0
C  C84  1  0.14543837  0.61714404  0.96884392  1  0.911905  0.000454  0.152658  0.093092  0.000356  3.903089  0.0
C  C85  1  0.85456715  0.38277126  0.03101281  1  0.911632  0.000452  0.152261  0.09306  0.000355  3.903169  0.0
C  C86  1  0.18048390  0.75983611  0.15756557  1  0.007898  -0.004899  -0.053817  -0.121594  -0.003245  3.8888  -0.003
C  C87  1  0.81940979  0.24002664  0.84238694  1  0.006938  -0.004913  -0.053835  -0.121591  -0.003252  3.888008  -0.003
N  N88  1  0.77539420  0.58387431  0.61543870  1  -0.863847  -0.001988  -0.116463  0.141513  -0.001294  3.758392  -0.002
N  N89  1  0.22475609  0.41608066  0.38469765  1  -0.86741  -0.002  -0.116039  0.141641  -0.0013  3.759178  -0.002
N  N90  1  0.75834601  0.64719446  0.69401704  1  -0.683198  -0.005463  -0.217579  -0.266909  -0.003513  3.107882  -0.004
N  N91  1  0.24186057  0.35273395  0.30613585  1  -0.683645  -0.005458  -0.217779  -0.266893  -0.003511  3.108399  -0.004
N  N92  1  0.90141021  0.79362949  0.63238374  1  -1.201592  -0.058609  -0.366673  -0.320019  -0.039888  3.605029  -0.05
N  N93  1  0.09867248  0.20634999  0.36773425  1  -1.196819  -0.05878  -0.366833  -0.319898  -0.039993  3.60549  -0.05
N  N94  1  0.71059563  0.20604189  0.23347831  1  -1.250249  0.001861  -0.303995  -0.211486  0.001125  3.401484  0.001
N  N95  1  0.28951222  0.79413833  0.76657863  1  -1.250185  0.001858  -0.304049  -0.211796  0.001123  3.401718  0.001
N  N96  1  0.34497287  0.22674397  0.10134472  1  -0.858953  -1e-05  -0.124444  0.125173  -1.3e-05  3.771874  0.0
N  N97  1  0.65505152  0.77331816  0.89875631  1  -0.858546  -1e-05  -0.124666  0.101276  -1.3e-05  3.80617  0.0
N  N98  1  0.30577402  0.11609117  0.03342740  1  -0.683356  -2.7e-05  -0.2316  -0.27979  -1.7e-05  3.068693  0.0
N  N99  1  0.69431387  0.88407898  0.96661478  1  -0.685019  -2.7e-05  -0.231244  -0.272575  -1.7e-05  3.074123  0.0
N  N100  1  0.11274710  0.21369925  0.03059710  1  -1.183569  -8e-06  -0.336381  -0.348307  -2e-06  3.282414  0.0
N  N101  1  0.88727446  0.78634442  0.96951115  1  -1.18578  -8e-06  -0.336808  -0.348454  -2e-06  3.280047  0.0
N  N102  1  0.46457122  0.80716648  0.27417450  1  -1.198061  0.073153  -0.337797  -0.203314  0.048761  3.596685  0.063
N  N103  1  0.53536822  0.19262292  0.72578217  1  -1.197439  0.072956  -0.337361  -0.203126  0.048637  3.597417  0.063
N  N104  1  0.26150522  0.63179745  0.04358015  1  -0.878358  0.000602  -0.126083  0.119835  0.000291  3.769353  0.0
N  N105  1  0.73842589  0.36810061  0.95633189  1  -0.879803  0.000598  -0.126079  0.120116  0.000289  3.770811  0.0
N  N106  1  0.35077385  0.54943884  0.02600197  1  -0.696579  -3.4e-05  -0.2266  -0.287864  -3.1e-05  3.125076  0.0
N  N107  1  0.64913511  0.45041666  0.97396324  1  -0.697621  -3.4e-05  -0.226709  -0.288314  -3.1e-05  3.12456  0.0
N  N108  1  0.15540062  0.52690213  0.90289260  1  -1.148813  0.000271  -0.344311  -0.342704  0.000153  3.223712  0.0
N  N109  1  0.84466741  0.47299739  0.09701687  1  -1.149272  0.000269  -0.34425  -0.343024  0.000153  3.223282  0.0
N  N110  1  0.45576030  0.28931194  0.52817683  1  -1.196721  -0.004574  -0.318539  -0.271687  -0.003058  3.426414  -0.003
N  N111  1  0.54426180  0.71071525  0.47178599  1  -1.200071  -0.004562  -0.318874  -0.272248  -0.003049  3.427383  -0.003
O  O112  1  0.87852395  0.88240713  0.43396334  1  -1.119623  -0.002719  -0.586431  -0.849937  -0.001798  2.341684  -0.001
O  O113  1  0.12137912  0.11753708  0.56608011  1  -1.115142  -0.002714  -0.586268  -0.849779  -0.001792  2.342177  -0.001
O  O114  1  0.74514364  0.94809852  0.24015029  1  -1.29573  -0.000181  -0.616388  -0.834907  2.6e-05  2.161152  0.0
O  O115  1  0.25479754  0.05209020  0.75984134  1  -1.296884  -0.000159  -0.616294  -0.834587  4.3e-05  2.162247  0.0
O  O116  1  0.64078410  0.00831660  0.41873334  1  -1.127034  0.082435  -0.309071  -0.538788  0.053337  2.418877  0.075
O  O117  1  0.35896498  0.99180033  0.58100689  1  -1.127295  0.08247  -0.308986  -0.538435  0.053334  2.41773  0.075
O  O118  1  0.86364593  0.16094878  0.44243770  1  -1.130306  -0.078512  -0.304743  -0.526599  -0.051133  2.366756  -0.072
O  O119  1  0.13636141  0.83883600  0.55765653  1  -1.131822  -0.07828  -0.304597  -0.526259  -0.050968  2.364342  -0.071
O  O120  1  0.67582931  0.66124467  0.29567316  1  -1.127718  0.083639  -0.325892  -0.557776  0.053579  2.410177  0.076
O  O121  1  0.32388447  0.33874341  0.70432394  1  -1.128903  0.083419  -0.325919  -0.558017  0.053449  2.40845  0.076
O  O122  1  0.87646710  0.60598986  0.38100425  1  -1.18745  -0.001746  -0.313338  -0.538361  -0.001416  2.157013  -0.002
O  O123  1  0.12335977  0.39423739  0.61897824  1  -1.188854  -0.001746  -0.313571  -0.53834  -0.001415  2.157012  -0.002
O  O124  1  0.12687729  0.93413131  0.36091766  1  -1.102181  -0.109572  -0.315189  -0.52685  -0.070836  2.295793  -0.1
O  O125  1  0.87338195  0.06610828  0.63907777  1  -1.101557  -0.109563  -0.315226  -0.526906  -0.070799  2.296759  -0.1
O  O126  1  0.99751650  0.90972574  0.21319573  1  -1.183717  2.2e-05  -0.301856  -0.531347  0.000219  2.204682  -0.001
O  O127  1  0.00242093  0.09009512  0.78685212  1  -1.183517  9e-06  -0.301823  -0.531167  0.000211  2.205881  -0.001
