# generated using pymatgen
data_ZnTeH8C3N
_symmetry_space_group_name_H-M   'P 1'
_cell_length_a   6.87221672
_cell_length_b   6.93831214
_cell_length_c   26.87605510
_cell_angle_alpha   89.99986698
_cell_angle_beta   89.99946490
_cell_angle_gamma   90.00010015
_symmetry_Int_Tables_number   1
_chemical_formula_structural   ZnTeH8C3N
_chemical_formula_sum   'Zn8 Te8 H64 C24 N8'
_cell_volume   1281.49289597
_cell_formula_units_Z   8
loop_
 _symmetry_equiv_pos_site_id
 _symmetry_equiv_pos_as_xyz
  1  'x, y, z'
loop_
 _atom_site_type_symbol
 _atom_site_label
 _atom_site_symmetry_multiplicity
 _atom_site_fract_x
 _atom_site_fract_y
 _atom_site_fract_z
 _atom_site_occupancy
 _atom_site_hle17_bader_spin_density
 _atom_site_hle17_ddec_charge
 _atom_site_hle17_ddec_spin_density
 _atom_site_hle17_ddec_sum_bond_order
 _atom_site_hle17_magmom
 _atom_site_hse06_10hf_bader_spin_density
 _atom_site_hse06_10hf_ddec_charge
 _atom_site_hse06_10hf_ddec_spin_density
 _atom_site_hse06_10hf_ddec_sum_bond_order
 _atom_site_hse06_10hf_magmom
 _atom_site_hse06_bader_spin_density
 _atom_site_hse06_ddec_charge
 _atom_site_hse06_ddec_spin_density
 _atom_site_hse06_ddec_sum_bond_order
 _atom_site_hse06_magmom
 _atom_site_pbe_bader_spin_density
 _atom_site_pbe_cm5_charge
 _atom_site_pbe_ddec_charge
 _atom_site_pbe_ddec_spin_density
 _atom_site_pbe_ddec_sum_bond_order
 _atom_site_pbe_magmom
Zn  Zn0  1  0.18943183  0.40906214  0.28370649  1  0  0.571742  0  2.270852  0  0  0.447307  0  2.705026  0  0  0.485526  0  2.677224  0  0  0.308717  0.421771  0  2.722899  0
Zn  Zn1  1  0.81056257  0.09093658  0.78370332  1  0  0.571813  0  2.270745  0  0  0.447379  0  2.704877  0  0  0.485596  0  2.677082  0  0  0.308739  0.421844  0  2.722752  0
Zn  Zn2  1  0.68943637  0.59093427  0.21629603  1  0  0.571833  0  2.270719  0  0  0.447408  0  2.704857  0  0  0.485623  0  2.67706  0  0  0.30874  0.421872  0  2.722735  0
Zn  Zn3  1  0.31056426  0.90906774  0.71629687  1  0  0.571792  0  2.270788  0  0  0.447356  0  2.704952  0  0  0.485574  0  2.677153  0  0  0.308718  0.421823  0  2.722825  0
Zn  Zn4  1  0.81056860  0.59094327  0.71629412  1  0  0.571796  0  2.270839  0  0  0.447375  0  2.70499  0  0  0.485591  0  2.67719  0  0  0.308751  0.421839  0  2.722877  0
Zn  Zn5  1  0.18943058  0.90906883  0.21629320  1  0  0.571804  0  2.270771  0  0  0.447398  0  2.704865  0  0  0.485615  0  2.677066  0  0  0.308738  0.421863  0  2.722739  0
Zn  Zn6  1  0.31056551  0.40906393  0.78370644  1  0  0.571799  0  2.270827  0  0  0.447363  0  2.704994  0  0  0.48558  0  2.677192  0  0  0.308741  0.421831  0  2.722861  0
Zn  Zn7  1  0.68943180  0.09093767  0.28370635  1  0  0.571843  0  2.270791  0  0  0.447413  0  2.704941  0  0  0.485633  0  2.677135  0  0  0.308763  0.421878  0  2.72282  0
Te  Te8  1  0.81398548  0.44563203  0.30070637  1  0  -0.696086  0  2.303098  0  0  -0.600245  0  2.792005  0  0  -0.637135  0  2.765494  0  0  -0.284427  -0.5747  0  2.809704  0
Te  Te9  1  0.18601120  0.05437228  0.80070656  1  0  -0.696069  0  2.303091  0  0  -0.6002  0  2.791951  0  0  -0.637088  0  2.765443  0  0  -0.284409  -0.574651  0  2.80964  0
Te  Te10  1  0.31398865  0.55437469  0.19929622  1  0  -0.696044  0  2.303034  0  0  -0.600175  0  2.791895  0  0  -0.637065  0  2.765394  0  0  -0.284405  -0.574621  0  2.809576  0
Te  Te11  1  0.68601260  0.94563470  0.69929354  1  0  -0.696115  0  2.303149  0  0  -0.600259  0  2.792017  0  0  -0.637146  0  2.765501  0  0  -0.284436  -0.574726  0  2.809734  0
Te  Te12  1  0.18601640  0.55437338  0.69929721  1  0  -0.69604  0  2.303093  0  0  -0.600197  0  2.792005  0  0  -0.637088  0  2.765496  0  0  -0.284417  -0.574652  0  2.8097  0
Te  Te13  1  0.81398340  0.94563025  0.19929590  1  0  -0.696103  0  2.303086  0  0  -0.60023  0  2.791943  0  0  -0.637117  0  2.765432  0  0  -0.284418  -0.574679  0  2.809635  0
Te  Te14  1  0.68601323  0.44563071  0.80070364  1  0  -0.696036  0  2.303032  0  0  -0.600205  0  2.791952  0  0  -0.637095  0  2.765443  0  0  -0.284429  -0.574657  0  2.809647  0
Te  Te15  1  0.31398491  0.05436783  0.30070409  1  0  -0.696064  0  2.303035  0  0  -0.600263  0  2.791983  0  0  -0.637155  0  2.765475  0  0  -0.284441  -0.574718  0  2.809678  0
H  H16  1  0.47276467  0.55243418  0.33235090  1  0  0.262395  0  0.957905  0  0  0.2553  0  1.016678  0  0  0.261741  0  1.012615  0  0  0.253244  0.250656  0  1.019657  0
H  H17  1  0.52723897  0.94755795  0.83235158  1  0  0.262464  0  0.95791  0  0  0.255347  0  1.016709  0  0  0.261786  0  1.012652  0  0  0.253305  0.250704  0  1.01968  0
H  H18  1  0.97276202  0.44755985  0.16764945  1  0  0.262451  0  0.95795  0  0  0.255363  0  1.016711  0  0  0.261803  0  1.012652  0  0  0.2533  0.250716  0  1.019694  0
H  H19  1  0.02724100  0.05243721  0.66764816  1  0  0.262489  0  0.9578  0  0  0.255379  0  1.016581  0  0  0.261819  0  1.01252  0  0  0.253305  0.250734  0  1.019563  0
H  H20  1  0.52724012  0.44757267  0.66764821  1  0  0.262521  0  0.957793  0  0  0.255411  0  1.016557  0  0  0.261853  0  1.012492  0  0  0.2533  0.250767  0  1.019537  0
H  H21  1  0.47275709  0.05244169  0.16764680  1  0  0.262472  0  0.958027  0  0  0.255351  0  1.016793  0  0  0.261791  0  1.012731  0  0  0.253322  0.250707  0  1.019772  0
H  H22  1  0.02723840  0.55244123  0.83235115  1  0  0.262447  0  0.957995  0  0  0.255348  0  1.016757  0  0  0.261788  0  1.012699  0  0  0.253296  0.250706  0  1.019735  0
H  H23  1  0.97276088  0.94756964  0.33235133  1  0  0.262462  0  0.957837  0  0  0.255351  0  1.016604  0  0  0.261792  0  1.012541  0  0  0.253273  0.250706  0  1.019584  0
H  H24  1  0.29150291  0.70381373  0.34033216  1  0  0.265189  0  0.949279  0  0  0.256109  0  1.011461  0  0  0.262997  0  1.006456  0  0  0.255959  0.250758  0  1.01582  0
H  H25  1  0.70850190  0.79617399  0.84033099  1  0  0.265146  0  0.94907  0  0  0.25607  0  1.011292  0  0  0.262962  0  1.006275  0  0  0.255893  0.250719  0  1.01565  0
H  H26  1  0.79150175  0.29616844  0.15967123  1  0  0.265209  0  0.949179  0  0  0.256097  0  1.011406  0  0  0.262987  0  1.006399  0  0  0.255917  0.250748  0  1.015763  0
H  H27  1  0.20850302  0.20382150  0.65966832  1  0  0.265178  0  0.949184  0  0  0.256114  0  1.011367  0  0  0.263005  0  1.006354  0  0  0.255947  0.250766  0  1.01572  0
H  H28  1  0.70850043  0.29618591  0.65966993  1  0  0.265224  0  0.949228  0  0  0.256146  0  1.011412  0  0  0.263037  0  1.0064  0  0  0.255968  0.250797  0  1.01577  0
H  H29  1  0.29150144  0.20383718  0.15966961  1  0  0.265226  0  0.949142  0  0  0.256102  0  1.011368  0  0  0.26299  0  1.006364  0  0  0.255927  0.25075  0  1.015729  0
H  H30  1  0.20849722  0.70382832  0.84033124  1  0  0.265209  0  0.949184  0  0  0.256104  0  1.011393  0  0  0.262993  0  1.006385  0  0  0.255934  0.250752  0  1.015755  0
H  H31  1  0.79150322  0.79618391  0.34033118  1  0  0.26522  0  0.94924  0  0  0.256139  0  1.011424  0  0  0.263029  0  1.006414  0  0  0.25597  0.250787  0  1.015785  0
H  H32  1  0.31936460  0.32288512  0.38963410  1  0  0.049809  0  0.944399  0  0  0.067338  0  1.009462  0  0  0.068255  0  1.009021  0  0  0.08605  0.066591  0  1.009861  0
H  H33  1  0.68063028  0.17710672  0.88963343  1  0  0.049884  0  0.944418  0  0  0.067327  0  1.009497  0  0  0.068241  0  1.009061  0  0  0.08608  0.066599  0  1.009877  0
H  H34  1  0.81936881  0.67709567  0.11036587  1  0  0.049989  0  0.94444  0  0  0.067393  0  1.009557  0  0  0.068307  0  1.009121  0  0  0.086116  0.066639  0  1.009962  0
H  H35  1  0.18063280  0.82289304  0.61036557  1  0  0.04986  0  0.944438  0  0  0.067315  0  1.009526  0  0  0.06823  0  1.009089  0  0  0.086069  0.066576  0  1.009919  0
H  H36  1  0.68065038  0.67710732  0.61036427  1  0  0.049817  0  0.944577  0  0  0.067314  0  1.009601  0  0  0.068227  0  1.009166  0  0  0.086069  0.066569  0  1.009995  0
H  H37  1  0.31935559  0.82290878  0.11036383  1  0  0.049922  0  0.944416  0  0  0.067344  0  1.00953  0  0  0.068278  0  1.009071  0  0  0.086111  0.066566  0  1.00996  0
H  H38  1  0.18062725  0.32289677  0.88963436  1  0  0.049937  0  0.944336  0  0  0.067357  0  1.009487  0  0  0.068272  0  1.009047  0  0  0.086094  0.066611  0  1.009882  0
H  H39  1  0.81936035  0.17710516  0.38963578  1  0  0.049854  0  0.944478  0  0  0.067286  0  1.009592  0  0  0.068199  0  1.009157  0  0  0.086075  0.066547  0  1.00998  0
H  H40  1  0.14922289  0.50614128  0.40359948  1  0  0.045964  0  0.926736  0  0  0.063193  0  0.992017  0  0  0.063736  0  0.991748  0  0  0.093069  0.06267  0  0.992389  0
H  H41  1  0.85077814  0.99385731  0.90359638  1  0  0.046047  0  0.9268  0  0  0.063206  0  0.992058  0  0  0.063748  0  0.991793  0  0  0.093074  0.06268  0  0.992446  0
H  H42  1  0.64921857  0.49384785  0.09640500  1  0  0.046026  0  0.926803  0  0  0.063223  0  0.992035  0  0  0.063768  0  0.991766  0  0  0.093085  0.062697  0  0.992419  0
H  H43  1  0.35078562  0.00613987  0.59640221  1  0  0.045995  0  0.926746  0  0  0.063179  0  0.992013  0  0  0.063721  0  0.991746  0  0  0.093059  0.06266  0  0.992394  0
H  H44  1  0.85079500  0.49384972  0.59640262  1  0  0.045998  0  0.926812  0  0  0.063189  0  0.992064  0  0  0.063734  0  0.991795  0  0  0.093069  0.062662  0  0.99245  0
H  H45  1  0.14920919  0.00616107  0.09640385  1  0  0.046014  0  0.926798  0  0  0.063174  0  0.99208  0  0  0.063715  0  0.991817  0  0  0.09309  0.062651  0  0.992452  0
H  H46  1  0.35077458  0.50614891  0.90359784  1  0  0.046037  0  0.926756  0  0  0.063243  0  0.992017  0  0  0.063786  0  0.99175  0  0  0.093109  0.06272  0  0.9924  0
H  H47  1  0.64921481  0.99384824  0.40359914  1  0  0.045956  0  0.92674  0  0  0.063138  0  0.992024  0  0  0.063682  0  0.991756  0  0  0.093051  0.062612  0  0.992406  0
H  H48  1  0.59284374  0.54142253  0.41607994  1  0  0.06175  0  0.944341  0  0  0.077391  0  1.011364  0  0  0.078758  0  1.010983  0  0  0.081834  0.076262  0  1.01188  0
H  H49  1  0.40715829  0.95855287  0.91608052  1  0  0.061745  0  0.944164  0  0  0.077372  0  1.011242  0  0  0.078738  0  1.010856  0  0  0.081832  0.07625  0  1.011751  0
H  H50  1  0.09283498  0.45854344  0.08391723  1  0  0.061773  0  0.944218  0  0  0.077378  0  1.011304  0  0  0.078741  0  1.010912  0  0  0.081825  0.076252  0  1.011817  0
H  H51  1  0.90716676  0.04143865  0.58391831  1  0  0.061721  0  0.944296  0  0  0.077356  0  1.011356  0  0  0.078723  0  1.01097  0  0  0.081828  0.076233  0  1.011866  0
H  H52  1  0.40717415  0.45856703  0.58391880  1  0  0.061782  0  0.944318  0  0  0.077436  0  1.011349  0  0  0.078803  0  1.010963  0  0  0.081864  0.07631  0  1.011861  0
H  H53  1  0.59282759  0.04145542  0.08391450  1  0  0.061664  0  0.944137  0  0  0.077357  0  1.011202  0  0  0.078702  0  1.010832  0  0  0.081816  0.076228  0  1.011714  0
H  H54  1  0.90715381  0.54143747  0.91608338  1  0  0.061733  0  0.944257  0  0  0.077384  0  1.011324  0  0  0.078749  0  1.010941  0  0  0.081835  0.076259  0  1.011839  0
H  H55  1  0.09283512  0.95855955  0.41608118  1  0  0.061771  0  0.944273  0  0  0.0774  0  1.011343  0  0  0.078765  0  1.010955  0  0  0.08182  0.076274  0  1.011859  0
H  H56  1  0.42175611  0.71865702  0.43425688  1  0  0.058701  0  0.936862  0  0  0.076618  0  0.999612  0  0  0.077502  0  0.999763  0  0  0.084012  0.075892  0  0.999678  0
H  H57  1  0.57826271  0.78132683  0.93425751  1  0  0.05872  0  0.936674  0  0  0.076655  0  0.999435  0  0  0.077534  0  0.999586  0  0  0.084056  0.075925  0  0.999509  0
H  H58  1  0.92173219  0.28131818  0.06574174  1  0  0.058657  0  0.936779  0  0  0.076628  0  0.999486  0  0  0.077504  0  0.999634  0  0  0.084047  0.075898  0  0.999557  0
H  H59  1  0.07826440  0.21867131  0.56574248  1  0  0.058726  0  0.936708  0  0  0.076675  0  0.999444  0  0  0.077555  0  0.999594  0  0  0.08407  0.075948  0  0.999516  0
H  H60  1  0.57826469  0.28132965  0.56574447  1  0  0.058726  0  0.936751  0  0  0.076674  0  0.999503  0  0  0.077554  0  0.999653  0  0  0.084055  0.075942  0  0.999575  0
H  H61  1  0.42172753  0.21868579  0.06573789  1  0  0.058635  0  0.936736  0  0  0.076618  0  0.999515  0  0  0.0775  0  0.999657  0  0  0.084033  0.075888  0  0.999587  0
H  H62  1  0.07824787  0.71867137  0.93425886  1  0  0.058661  0  0.936706  0  0  0.076633  0  0.999453  0  0  0.077516  0  0.9996  0  0  0.084035  0.075905  0  0.999523  0
H  H63  1  0.92174039  0.78133122  0.43425887  1  0  0.058768  0  0.936694  0  0  0.076712  0  0.999444  0  0  0.07759  0  0.999592  0  0  0.084075  0.075984  0  0.999516  0
H  H64  1  0.43985686  0.30697456  0.47658237  1  0  0.054823  0  0.930263  0  0  0.076719  0  0.986767  0  0  0.077303  0  0.987408  0  0  0.086217  0.076208  0  0.986424  0
H  H65  1  0.56015956  0.19301204  0.97658048  1  0  0.054954  0  0.930393  0  0  0.076827  0  0.986869  0  0  0.077409  0  0.987514  0  0  0.086281  0.07632  0  0.986527  0
H  H66  1  0.93983664  0.69300645  0.02342068  1  0  0.054873  0  0.930518  0  0  0.076758  0  0.986981  0  0  0.077339  0  0.987626  0  0  0.086249  0.076246  0  0.986639  0
H  H67  1  0.06015943  0.80698895  0.52341844  1  0  0.054932  0  0.930377  0  0  0.076809  0  0.986849  0  0  0.07739  0  0.987494  0  0  0.086274  0.076296  0  0.986511  0
H  H68  1  0.56016830  0.69300779  0.52341750  1  0  0.054942  0  0.930482  0  0  0.07682  0  0.986917  0  0  0.077393  0  0.98757  0  0  0.086295  0.076311  0  0.986577  0
H  H69  1  0.43981904  0.80699481  0.02341901  1  0  0.054913  0  0.930576  0  0  0.07678  0  0.987013  0  0  0.077346  0  0.987672  0  0  0.086244  0.076269  0  0.986672  0
H  H70  1  0.06015942  0.30698455  0.97658105  1  0  0.054914  0  0.930357  0  0  0.076805  0  0.986822  0  0  0.077388  0  0.987463  0  0  0.086275  0.076293  0  0.986483  0
H  H71  1  0.93984827  0.19301790  0.47658031  1  0  0.054909  0  0.930324  0  0  0.076772  0  0.986831  0  0  0.077355  0  0.987473  0  0  0.086239  0.076261  0  0.98649  0
H  H72  1  0.27728902  0.48858044  0.49618881  1  0  0.051503  0  0.934232  0  0  0.07095  0  0.99494  0  0  0.071716  0  0.995202  0  0  0.083994  0.070335  0  0.994829  0
H  H73  1  0.72270922  0.01140019  0.99618924  1  0  0.051436  0  0.934348  0  0  0.070928  0  0.99497  0  0  0.071692  0  0.995232  0  0  0.083994  0.070314  0  0.994857  0
H  H74  1  0.77727212  0.51140316  0.00381275  1  0  0.051477  0  0.934273  0  0  0.070949  0  0.994915  0  0  0.071707  0  0.995187  0  0  0.084011  0.070331  0  0.994804  0
H  H75  1  0.22272612  0.98859244  0.50381078  1  0  0.051505  0  0.93426  0  0  0.070976  0  0.994898  0  0  0.071735  0  0.995167  0  0  0.084001  0.070359  0  0.994788  0
H  H76  1  0.72273760  0.51140191  0.50381179  1  0  0.05153  0  0.93427  0  0  0.070997  0  0.994888  0  0  0.07176  0  0.995151  0  0  0.084008  0.070382  0  0.994778  0
H  H77  1  0.27726647  0.98860090  0.00380951  1  0  0.051548  0  0.934329  0  0  0.071025  0  0.994932  0  0  0.071786  0  0.995196  0  0  0.084023  0.070407  0  0.994822  0
H  H78  1  0.22271812  0.48859505  0.99618748  1  0  0.051487  0  0.934352  0  0  0.070978  0  0.994969  0  0  0.071736  0  0.99524  0  0  0.084026  0.070361  0  0.994856  0
H  H79  1  0.77727867  0.01141585  0.49618908  1  0  0.051425  0  0.934379  0  0  0.070921  0  0.994994  0  0  0.07168  0  0.995261  0  0  0.083998  0.070304  0  0.99488  0
C  C80  1  0.30102125  0.48045223  0.39225798  1  0  0.081816  0  3.65082  0  0  0.026459  0  3.913568  0  0  0.030604  0  3.926816  0  0  -0.080349  0.023737  0  3.904368  0
C  C81  1  0.69898662  0.01953814  0.89225734  1  0  0.081461  0  3.651198  0  0  0.026347  0  3.913701  0  0  0.03049  0  3.926946  0  0  -0.08045  0.023608  0  3.904505  0
C  C82  1  0.80101220  0.51952997  0.10774278  1  0  0.081364  0  3.651204  0  0  0.026217  0  3.913764  0  0  0.030354  0  3.927001  0  0  -0.080496  0.023501  0  3.90456  0
C  C83  1  0.19898805  0.98045877  0.60774199  1  0  0.08159  0  3.651041  0  0  0.026415  0  3.913624  0  0  0.030559  0  3.926865  0  0  -0.080408  0.023679  0  3.904432  0
C  C84  1  0.69899372  0.51954021  0.60774188  1  0  0.081592  0  3.65111  0  0  0.026425  0  3.913661  0  0  0.030568  0  3.926901  0  0  -0.080416  0.023703  0  3.904454  0
C  C85  1  0.30100216  0.98048024  0.10774029  1  0  0.081423  0  3.650984  0  0  0.0263  0  3.913653  0  0  0.030431  0  3.926881  0  0  -0.080522  0.023597  0  3.904453  0
C  C86  1  0.19897804  0.48046824  0.89225820  1  0  0.081507  0  3.651064  0  0  0.026273  0  3.913801  0  0  0.030416  0  3.927045  0  0  -0.080498  0.023543  0  3.904606  0
C  C87  1  0.80101528  0.01953943  0.39225825  1  0  0.081745  0  3.650994  0  0  0.026572  0  3.913596  0  0  0.030713  0  3.926838  0  0  -0.080363  0.023845  0  3.904391  0
C  C88  1  0.44358598  0.56172841  0.43041406  1  0  -0.141124  0  3.70401  0  0  -0.178478  0  3.964104  0  0  -0.180666  0  3.979766  0  0  -0.169839  -0.176781  0  3.953184  0
C  C89  1  0.55643007  0.93826125  0.93041430  1  0  -0.140863  0  3.703838  0  0  -0.178353  0  3.964021  0  0  -0.180526  0  3.979662  0  0  -0.169797  -0.176666  0  3.953114  0
C  C90  1  0.94356800  0.43824972  0.06958636  1  0  -0.140822  0  3.703845  0  0  -0.178257  0  3.963946  0  0  -0.180413  0  3.979568  0  0  -0.169756  -0.176569  0  3.95303  0
C  C91  1  0.05643281  0.06173973  0.56958611  1  0  -0.140899  0  3.703838  0  0  -0.178368  0  3.96401  0  0  -0.180546  0  3.979663  0  0  -0.169816  -0.176682  0  3.953105  0
C  C92  1  0.55643773  0.43825971  0.56958654  1  0  -0.140933  0  3.703813  0  0  -0.178473  0  3.964028  0  0  -0.180651  0  3.979677  0  0  -0.169862  -0.176784  0  3.953121  0
C  C93  1  0.44355434  0.06175136  0.06958370  1  0  -0.140563  0  3.703456  0  0  -0.178212  0  3.963782  0  0  -0.180366  0  3.979427  0  0  -0.169712  -0.176513  0  3.952855  0
C  C94  1  0.05641933  0.56173839  0.93041350  1  0  -0.140896  0  3.703739  0  0  -0.178395  0  3.963948  0  0  -0.180568  0  3.979587  0  0  -0.169827  -0.176697  0  3.953022  0
C  C95  1  0.94357635  0.93825992  0.43041487  1  0  -0.141134  0  3.703849  0  0  -0.178605  0  3.964037  0  0  -0.180768  0  3.97966  0  0  -0.16991  -0.176917  0  3.953129  0
C  C96  1  0.42492141  0.46452581  0.48116970  1  0  -0.098818  0  3.711601  0  0  -0.136698  0  3.971448  0  0  -0.138186  0  3.988197  0  0  -0.16473  -0.135433  0  3.959594  0
C  C97  1  0.57508903  0.03546362  0.98116823  1  0  -0.09915  0  3.711952  0  0  -0.136967  0  3.971726  0  0  -0.138444  0  3.988439  0  0  -0.164878  -0.135708  0  3.959879  0
C  C98  1  0.92490400  0.53545661  0.01883077  1  0  -0.099071  0  3.712222  0  0  -0.136895  0  3.972036  0  0  -0.138375  0  3.988743  0  0  -0.16486  -0.135633  0  3.960183  0
C  C99  1  0.07509660  0.96453883  0.51882954  1  0  -0.099156  0  3.711961  0  0  -0.136958  0  3.971777  0  0  -0.13843  0  3.988483  0  0  -0.16483  -0.135688  0  3.959922  0
C  C100  1  0.57510521  0.53545798  0.51882905  1  0  -0.099292  0  3.712057  0  0  -0.137019  0  3.971819  0  0  -0.138488  0  3.988523  0  0  -0.164846  -0.135758  0  3.959971  0
C  C101  1  0.42488521  0.96454034  0.01882866  1  0  -0.099286  0  3.711966  0  0  -0.137005  0  3.971724  0  0  -0.13847  0  3.988418  0  0  -0.164838  -0.135736  0  3.959866  0
C  C102  1  0.07508915  0.46453150  0.98117058  1  0  -0.099115  0  3.711819  0  0  -0.13692  0  3.971626  0  0  -0.1384  0  3.988348  0  0  -0.164818  -0.135649  0  3.959768  0
C  C103  1  0.92491255  0.03546802  0.48116958  1  0  -0.09898  0  3.711902  0  0  -0.136777  0  3.971701  0  0  -0.138258  0  3.988421  0  0  -0.164752  -0.13551  0  3.959842  0
N  N104  1  0.32722922  0.55957695  0.34184577  1  0  -0.567638  0  3.182327  0  0  -0.501974  0  3.412852  0  0  -0.522167  0  3.413096  0  0  -0.63377  -0.487971  0  3.412898  0
N  N105  1  0.67276680  0.94042517  0.84184387  1  0  -0.567595  0  3.182293  0  0  -0.501913  0  3.41262  0  0  -0.52211  0  3.412866  0  0  -0.633721  -0.487911  0  3.412668  0
N  N106  1  0.82723419  0.44041971  0.15815679  1  0  -0.567634  0  3.182327  0  0  -0.501998  0  3.412837  0  0  -0.522194  0  3.413081  0  0  -0.633763  -0.487996  0  3.412884  0
N  N107  1  0.17277210  0.05957746  0.65815478  1  0  -0.56767  0  3.182182  0  0  -0.502043  0  3.412675  0  0  -0.52224  0  3.412916  0  0  -0.633802  -0.488037  0  3.412724  0
N  N108  1  0.67277848  0.44042414  0.65815558  1  0  -0.567733  0  3.182175  0  0  -0.502121  0  3.412707  0  0  -0.522317  0  3.412944  0  0  -0.633816  -0.488117  0  3.412758  0
N  N109  1  0.32723363  0.05958456  0.15815450  1  0  -0.567665  0  3.182197  0  0  -0.501985  0  3.412762  0  0  -0.522181  0  3.413015  0  0  -0.633788  -0.48798  0  3.4128  0
N  N110  1  0.17276187  0.55957994  0.84184493  1  0  -0.567686  0  3.18233  0  0  -0.502007  0  3.412839  0  0  -0.522202  0  3.41308  0  0  -0.633779  -0.488006  0  3.412892  0
N  N111  1  0.82722542  0.94042075  0.34184546  1  0  -0.567753  0  3.182307  0  0  -0.502062  0  3.412739  0  0  -0.522257  0  3.412981  0  0  -0.633812  -0.488059  0  3.412792  0
