# generated using pymatgen
data_Cd3H44C46(N2O3)4
_symmetry_space_group_name_H-M   'P 1'
_cell_length_a   13.18383300
_cell_length_b   16.05375622
_cell_length_c   15.82836372
_cell_angle_alpha   90.87645128
_cell_angle_beta   114.61818939
_cell_angle_gamma   89.98923181
_symmetry_Int_Tables_number   1
_chemical_formula_structural   Cd3H44C46(N2O3)4
_chemical_formula_sum   'Cd6 H88 C92 N16 O24'
_cell_volume   3045.13842167
_cell_formula_units_Z   2
loop_
 _symmetry_equiv_pos_site_id
 _symmetry_equiv_pos_as_xyz
  1  'x, y, z'
loop_
 _atom_site_type_symbol
 _atom_site_label
 _atom_site_symmetry_multiplicity
 _atom_site_fract_x
 _atom_site_fract_y
 _atom_site_fract_z
 _atom_site_occupancy
 _atom_site_pbe_bader_charge
 _atom_site_pbe_bader_spin_density
 _atom_site_pbe_cm5_charge
 _atom_site_pbe_ddec_charge
 _atom_site_pbe_ddec_spin_density
 _atom_site_pbe_ddec_sum_bond_order
 _atom_site_pbe_magmom
Cd  Cd0  1  0.42931415  0.23786664  0.23492019  1  1.278505  0  0.766959  0.879515  0  2.247399  0
Cd  Cd1  1  0.19439788  0.26207411  0.76515916  1  1.277198  0  0.766815  0.879731  0  2.246785  0
Cd  Cd2  1  0.57068922  0.76213710  0.76508104  1  1.278426  0  0.766962  0.879551  0  2.24746  0
Cd  Cd3  1  0.80560658  0.73792528  0.23484814  1  1.277271  0  0.766814  0.879678  0  2.246809  0
Cd  Cd4  1  0.23214540  0.25002946  0.00010370  1  1.411991  0  0.810075  1.141936  0  2.143072  0
Cd  Cd5  1  0.76785004  0.74997491  0.99989207  1  1.411999  0  0.810026  1.141889  0  2.143277  0
H  H6  1  0.19847590  0.48103940  0.05766935  1  0.09975  0  0.105031  0.109332  0  1.000818  0
H  H7  1  0.14101254  0.01942778  0.94283802  1  0.096256  0  0.104871  0.109684  0  1.000504  0
H  H8  1  0.80152915  0.51897244  0.94232443  1  0.099986  0  0.105071  0.10935  0  1.000798  0
H  H9  1  0.85899316  0.98057347  0.05716386  1  0.096026  0  0.104906  0.109684  0  1.000529  0
H  H10  1  0.06133166  0.59617384  0.03898605  1  0.104485  0  0.105961  0.113708  0  0.996033  0
H  H11  1  0.02301399  0.90395628  0.96151698  1  0.103249  0  0.106011  0.113626  0  0.995897  0
H  H12  1  0.93866620  0.40383301  0.96100466  1  0.104753  0  0.106007  0.113834  0  0.995962  0
H  H13  1  0.97699734  0.09603812  0.03847794  1  0.103323  0  0.10602  0.113597  0  0.995861  0
H  H14  1  0.01299835  0.50765152  0.27310859  1  0.063249  0  0.092159  0.089393  0  1.066506  0
H  H15  1  0.74067823  0.99120409  0.72638755  1  0.058269  0  0.092255  0.089598  0  1.065276  0
H  H16  1  0.98700870  0.49235409  0.72688882  1  0.063039  0  0.092132  0.089353  0  1.066461  0
H  H17  1  0.25932230  0.00879780  0.27362670  1  0.058069  0  0.092253  0.089602  0  1.065135  0
H  H18  1  0.15208476  0.39242018  0.29296686  1  0.052313  0  0.091237  0.08612  0  1.051784  0
H  H19  1  0.85939458  0.10685834  0.70662819  1  0.052013  0  0.091244  0.086957  0  1.051229  0
H  H20  1  0.84792561  0.60758855  0.70702889  1  0.051958  0  0.091311  0.086173  0  1.051654  0
H  H21  1  0.14059920  0.89315726  0.29339280  1  0.051663  0  0.091308  0.087071  0  1.051253  0
H  H22  1  0.33336349  0.09204192  0.94173823  1  0.120417  0  0.101052  0.115694  0  1.050548  0
H  H23  1  0.39148547  0.40818313  0.05829592  1  0.111456  0  0.100913  0.115623  0  1.05043  0
H  H24  1  0.66663817  0.90795746  0.05825706  1  0.120512  0  0.101045  0.115645  0  1.050649  0
H  H25  1  0.60853304  0.59181439  0.94170204  1  0.112123  0  0.100821  0.115444  0  1.050372  0
H  H26  1  0.65219496  0.02599770  0.15679239  1  0.103964  0  0.100096  0.102932  0  1.018461  0
H  H27  1  0.49546114  0.47379462  0.84327229  1  0.112526  0  0.100108  0.102705  0  1.018723  0
H  H28  1  0.34780466  0.97399982  0.84320586  1  0.10396  0  0.100058  0.10286  0  1.018548  0
H  H29  1  0.50455468  0.52620041  0.15672799  1  0.112837  0  0.100083  0.102588  0  1.018745  0
H  H30  1  0.50319734  0.40737582  0.36902653  1  0.116692  0  0.117465  0.117651  0  0.99952  0
H  H31  1  0.13409274  0.09282384  0.63056614  1  0.091881  0  0.117619  0.117129  0  1.000022  0
H  H32  1  0.49680715  0.59262169  0.63097494  1  0.116617  0  0.117457  0.117645  0  0.999607  0
H  H33  1  0.86590471  0.90718053  0.36943919  1  0.091941  0  0.117607  0.117027  0  1.00012  0
H  H34  1  0.70880102  0.25782329  0.20435484  1  0.065876  0  0.099422  0.149235  0  0.985055  0
H  H35  1  0.50457809  0.24194278  0.79574639  1  0.070602  0  0.099617  0.149799  0  0.984733  0
H  H36  1  0.29120584  0.74217610  0.79564735  1  0.066034  0  0.099464  0.149298  0  0.985095  0
H  H37  1  0.49542315  0.75805786  0.20425685  1  0.070556  0  0.099609  0.149767  0  0.984889  0
H  H38  1  0.70577778  0.35143711  0.14377857  1  0.056401  0  0.100552  0.143267  0  1.00037  0
H  H39  1  0.56189939  0.14826992  0.85632223  1  0.041562  0  0.100412  0.143231  0  1.000153  0
H  H40  1  0.29422115  0.64856289  0.85621817  1  0.05648  0  0.100592  0.143335  0  1.000331  0
H  H41  1  0.43810078  0.85172760  0.14367573  1  0.041461  0  0.100396  0.143195  0  1.00015  0
H  H42  1  0.58101435  0.29433753  0.11932954  1  0.094427  0  0.108369  0.170708  0  0.985877  0
H  H43  1  0.46158551  0.20552142  0.88064384  1  0.097004  0  0.108571  0.170867  0  0.98563  0
H  H44  1  0.41898604  0.70565688  0.88067113  1  0.09442  0  0.108397  0.170768  0  0.985888  0
H  H45  1  0.53841851  0.79447423  0.11935880  1  0.096929  0  0.10854  0.170837  0  0.985691  0
H  H46  1  0.67690040  0.51812656  0.39114960  1  0.106003  0  0.117707  0.114375  0  1.031357  0
H  H47  1  0.28570392  0.98197391  0.60851610  1  0.117414  0  0.117379  0.114278  0  1.03139  0
H  H48  1  0.32310353  0.48186908  0.60885212  1  0.105866  0  0.117687  0.114341  0  1.031384  0
H  H49  1  0.71428816  0.01802672  0.39148714  1  0.117329  0  0.117353  0.114158  0  1.031015  0
H  H50  1  0.77763961  0.53965731  0.27803633  1  0.141505  0  0.115013  0.113934  0  1.016954  0
H  H51  1  0.49964135  0.96027769  0.72201509  1  0.163845  0  0.115536  0.11445  0  1.016638  0
H  H52  1  0.22236153  0.46034146  0.72196597  1  0.141754  0  0.115  0.113926  0  1.016861  0
H  H53  1  0.50034627  0.03971796  0.27798364  1  0.16374  0  0.115532  0.114618  0  1.0158  0
H  H54  1  0.80131304  0.44878788  0.22524860  1  0.073044  0  0.115362  0.095354  0  0.976502  0
H  H55  1  0.57604390  0.05119462  0.77473507  1  0.055976  0  0.11554  0.096055  0  0.976545  0
H  H56  1  0.19868896  0.55121275  0.77475039  1  0.073327  0  0.11535  0.095376  0  0.976496  0
H  H57  1  0.42394920  0.94879792  0.22526746  1  0.055784  0  0.115552  0.096081  0  0.975835  0
H  H58  1  0.96719503  0.49205112  0.37422253  1  0.033644  0  0.099496  0.102201  0  1.00205  0
H  H59  1  0.59299212  0.00783252  0.62582565  1  0.013489  0  0.0993  0.102096  0  1.002068  0
H  H60  1  0.03280600  0.50794515  0.62577880  1  0.033291  0  0.099493  0.102171  0  1.002054  0
H  H61  1  0.40700400  0.99216438  0.37417827  1  0.013506  0  0.099319  0.102053  0  1.002199  0
H  H62  1  0.88498811  0.47652848  0.43649328  1  0.033597  0  0.094705  0.088865  0  1.008384  0
H  H63  1  0.44845645  0.02325685  0.56352477  1  0.035786  0  0.094707  0.088735  0  1.008001  0
H  H64  1  0.11501177  0.52346966  0.56350774  1  0.033619  0  0.094689  0.088811  0  1.008434  0
H  H65  1  0.55154013  0.97674004  0.43647795  1  0.035707  0  0.094698  0.088701  0  1.007944  0
H  H66  1  0.85676658  0.32532188  0.38285605  1  0.044151  0  0.115423  0.09225  0  0.982159  0
H  H67  1  0.47366168  0.17449717  0.61698839  1  0.061588  0  0.115357  0.092468  0  0.981428  0
H  H68  1  0.14323582  0.67467626  0.61714750  1  0.044172  0  0.115425  0.092208  0  0.982154  0
H  H69  1  0.52633491  0.82550035  0.38301434  1  0.061477  0  0.115349  0.092515  0  0.981335  0
H  H70  1  0.94369553  0.34136077  0.32420614  1  0.083938  0  0.118186  0.099139  0  0.952263  0
H  H71  1  0.61928089  0.15853188  0.67570603  1  0.082911  0  0.118234  0.098665  0  0.951839  0
H  H72  1  0.05630205  0.65863488  0.67579506  1  0.083999  0  0.118156  0.099073  0  0.952339  0
H  H73  1  0.38071797  0.84146564  0.32429647  1  0.082859  0  0.118224  0.098613  0  0.952003  0
H  H74  1  0.15551551  0.35865870  0.42160708  1  0.082376  0  0.122059  0.12585  0  1.028126  0
H  H75  1  0.73371673  0.14078911  0.57834146  1  0.115023  0  0.121972  0.125445  0  1.027069  0
H  H76  1  0.84448841  0.64134567  0.57839388  1  0.082483  0  0.122042  0.125835  0  1.028185  0
H  H77  1  0.26627973  0.85921277  0.42165951  1  0.114933  0  0.121979  0.125492  0  1.027147  0
H  H78  1  0.28741484  0.32000838  0.60724177  1  0.066645  0  0.119665  0.116194  0  0.999204  0
H  H79  1  0.68010194  0.17932124  0.39272598  1  0.102339  0  0.119679  0.116587  0  0.99896  0
H  H80  1  0.71259096  0.67999412  0.39276105  1  0.066717  0  0.119669  0.116176  0  0.999267  0
H  H81  1  0.31989398  0.82068064  0.60727527  1  0.102192  0  0.119636  0.116464  0  0.999019  0
H  H82  1  0.87233723  0.37561065  0.55081036  1  0.059577  0  0.096445  0.136271  0  1.001988  0
H  H83  1  0.32143456  0.12434812  0.44920871  1  0.028284  0  0.096626  0.136785  0  1.002009  0
H  H84  1  0.12765611  0.62437876  0.44918234  1  0.059681  0  0.096456  0.136299  0  1.001959  0
H  H85  1  0.67855516  0.87565751  0.55079974  1  0.028039  0  0.096623  0.136802  0  1.002012  0
H  H86  1  0.94583912  0.30643551  0.64325427  1  0.13192  0  0.109929  0.176937  0  0.997972  0
H  H87  1  0.30241978  0.19340992  0.35667349  1  0.136309  0  0.110107  0.177437  0  0.99742  0
H  H88  1  0.05416357  0.69356138  0.35674621  1  0.131909  0  0.109953  0.177041  0  0.997833  0
H  H89  1  0.69757582  0.80659009  0.64333078  1  0.136283  0  0.11013  0.177493  0  0.99743  0
H  H90  1  0.86712488  0.26674515  0.52876975  1  0.049171  0  0.097635  0.140122  0  0.996535  0
H  H91  1  0.33834683  0.23320203  0.47114377  1  0.060462  0  0.097601  0.14062  0  0.996442  0
H  H92  1  0.13288714  0.73324240  0.47123332  1  0.0487  0  0.097649  0.140123  0  0.996532  0
H  H93  1  0.66165953  0.76680235  0.52885880  1  0.060302  0  0.097617  0.140672  0  0.99642  0
C  C94  1  0.26595989  0.36250337  0.19177875  1  1.543838  0  0.201044  0.581174  0  4.187401  0
C  C95  1  0.07417429  0.13755224  0.80833691  1  1.545204  0  0.201478  0.580549  0  4.187155  0
C  C96  1  0.73404113  0.63750347  0.80820258  1  1.543932  0  0.201139  0.581313  0  4.187936  0
C  C97  1  0.92582523  0.86245463  0.19167219  1  1.544569  0  0.201324  0.580367  0  4.187128  0
C  C98  1  0.18323190  0.43051393  0.17700504  1  -0.051556  0  -0.015978  -0.02162  0  3.965259  0
C  C99  1  0.00643953  0.06940693  0.82308580  1  -0.072332  0  -0.016084  -0.019595  0  3.961873  0
C  C100  1  0.81676968  0.56949479  0.82298857  1  -0.052017  0  -0.015989  -0.021557  0  3.96569  0
C  C101  1  0.99355955  0.93060306  0.17692457  1  -0.071848  0  -0.01601  -0.019589  0  3.962294  0
C  C102  1  0.15827523  0.48769713  0.10518795  1  -0.052207  0  -0.080413  -0.086037  0  3.956534  0
C  C103  1  0.05341100  0.01241968  0.89509559  1  -0.005909  0  -0.079824  -0.087452  0  3.955004  0
C  C104  1  0.84172564  0.51231284  0.89480413  1  -0.051794  0  -0.080435  -0.08608  0  3.95667  0
C  C105  1  0.94659266  0.98757909  0.10490923  1  -0.006005  0  -0.0799  -0.087456  0  3.955283  0
C  C106  1  0.08235033  0.55147603  0.09476028  1  0.00177  0  -0.08221  -0.094045  0  3.970338  0
C  C107  1  0.98817870  0.94846961  0.90553590  1  -0.018063  0  -0.081869  -0.092222  0  3.96943  0
C  C108  1  0.91764871  0.44853144  0.90523078  1  0.00174  0  -0.082269  -0.094254  0  3.970333  0
C  C109  1  0.01182994  0.05152604  0.09446720  1  -0.017605  0  -0.081988  -0.092315  0  3.96937  0
C  C110  1  0.02965948  0.55838260  0.15530169  1  -0.109663  0  -0.017301  -0.022756  0  3.950537  0
C  C111  1  0.87508200  0.94117012  0.84474618  1  -0.055601  0  -0.018424  -0.026372  0  3.953148  0
C  C112  1  0.97034505  0.44162301  0.84469319  1  -0.109522  0  -0.017253  -0.022658  0  3.950377  0
C  C113  1  0.12492260  0.05882926  0.15525624  1  -0.055467  0  -0.018376  -0.026254  0  3.953374  0
C  C114  1  0.05474717  0.50092134  0.22690405  1  -0.012251  0  -0.099929  -0.117863  0  4.026936  0
C  C115  1  0.82851236  0.99836242  0.77286234  1  -0.037631  0  -0.099663  -0.116222  0  4.026396  0
C  C116  1  0.94525745  0.49908489  0.77309177  1  -0.011938  0  -0.099962  -0.117897  0  4.027037  0
C  C117  1  0.17148544  0.00164508  0.22714672  1  -0.034575  0  -0.099622  -0.116123  0  4.026375  0
C  C118  1  0.13092425  0.43781507  0.23783191  1  -0.006537  0  -0.09632  -0.110583  0  4.023932  0
C  C119  1  0.89346224  0.06167446  0.76197764  1  -0.022351  0  -0.096743  -0.112703  0  4.023629  0
C  C120  1  0.86908556  0.56219303  0.76216411  1  -0.006467  0  -0.096402  -0.11065  0  4.023798  0
C  C121  1  0.10653492  0.93833677  0.23803666  1  -0.024947  0  -0.096756  -0.112851  0  4.023769  0
C  C122  1  0.94494082  0.62546937  0.14359600  1  1.598916  0  0.206545  0.585945  0  4.211206  0
C  C123  1  0.80202744  0.87412269  0.85646784  1  1.576204  0  0.206277  0.586352  0  4.210322  0
C  C124  1  0.05506426  0.37453251  0.85640526  1  1.599061  0  0.206506  0.585939  0  4.211076  0
C  C125  1  0.19796689  0.12587482  0.14352258  1  1.575628  0  0.206376  0.586401  0  4.210191  0
C  C126  1  0.48498903  0.13525485  0.11682524  1  1.552472  0  0.199598  0.576625  0  4.199278  0
C  C127  1  0.36808314  0.36469309  0.88331622  1  1.54243  0  0.198924  0.575474  0  4.198812  0
C  C128  1  0.51500991  0.86474578  0.88317151  1  1.552644  0  0.199618  0.576621  0  4.199176  0
C  C129  1  0.63192944  0.63530505  0.11668583  1  1.542155  0  0.198917  0.575431  0  4.198588  0
C  C130  1  0.49273928  0.06634659  0.05544986  1  -0.090137  0  -0.019842  -0.033017  0  3.978004  0
C  C131  1  0.43725132  0.43361150  0.94461499  1  -0.058975  0  -0.019904  -0.032765  0  3.976655  0
C  C132  1  0.50726256  0.93365528  0.94454732  1  -0.089813  0  -0.01989  -0.033071  0  3.978185  0
C  C133  1  0.56277037  0.56638041  0.05538696  1  -0.058223  0  -0.019869  -0.032721  0  3.97638  0
C  C134  1  0.40638962  0.05196573  0.96712435  1  -0.040052  0  -0.089088  -0.101163  0  3.959269  0
C  C135  1  0.43913588  0.44817703  0.03287054  1  -0.039321  0  -0.088805  -0.1004  0  3.957819  0
C  C136  1  0.59361377  0.94803427  0.03287100  1  -0.040239  0  -0.089135  -0.101184  0  3.959447  0
C  C137  1  0.56088691  0.55181613  0.96713086  1  -0.040104  0  -0.088797  -0.100267  0  3.957618  0
C  C138  1  0.58611026  0.01407462  0.08784452  1  -0.02053  0  -0.088746  -0.09762  0  3.97617  0
C  C139  1  0.49830987  0.48577555  0.91221360  1  -0.060998  0  -0.089231  -0.098574  0  3.974555  0
C  C140  1  0.41388977  0.98592601  0.91215166  1  -0.020786  0  -0.088748  -0.097678  0  3.976315  0
C  C141  1  0.50171244  0.51421636  0.08778898  1  -0.061595  0  -0.089212  -0.098453  0  3.974527  0
C  C142  1  0.56235940  0.40704273  0.33774244  1  0.384685  0  -0.011647  -0.040881  0  4.066197  0
C  C143  1  0.22456635  0.09308935  0.66194364  1  0.442464  0  -0.011481  -0.039626  0  4.066107  0
C  C144  1  0.43764516  0.59295230  0.66225991  1  0.383893  0  -0.011599  -0.040805  0  4.066341  0
C  C145  1  0.77543099  0.90691254  0.33806071  1  0.442004  0  -0.01135  -0.038932  0  4.063884  0
C  C146  1  0.63834785  0.36334804  0.24578596  1  0.977207  0  0.216154  0.324387  0  3.954874  0
C  C147  1  0.39250322  0.13657095  0.75414141  1  1.004945  0  0.216056  0.323082  0  3.957861  0
C  C148  1  0.36165565  0.63665072  0.75421702  1  0.977345  0  0.216189  0.32447  0  3.954891  0
C  C149  1  0.60749511  0.86342844  0.24586141  1  1.004879  0  0.216086  0.329908  0  3.958709  0
C  C150  1  0.66074621  0.31440112  0.17492819  1  -0.053691  0  -0.2296  -0.469113  0  3.955978  0
C  C151  1  0.48578929  0.18540184  0.82510377  1  -0.059774  0  -0.229621  -0.46952  0  3.956662  0
C  C152  1  0.33925539  0.68559640  0.82507287  1  -0.053974  0  -0.229737  -0.469359  0  3.9561  0
C  C153  1  0.51421185  0.81459630  0.17489852  1  -0.059542  0  -0.229551  -0.46937  0  3.955292  0
C  C154  1  0.64701451  0.46187677  0.34935499  1  0.297119  0  -0.011239  -0.127862  0  3.979014  0
C  C155  1  0.29760721  0.03819016  0.65038176  1  0.252264  0  -0.01118  -0.129158  0  3.97964  0
C  C156  1  0.35298887  0.53811826  0.65064701  1  0.297448  0  -0.011252  -0.127891  0  3.979107  0
C  C157  1  0.70238767  0.96180923  0.34962095  1  0.252719  0  -0.011269  -0.122546  0  3.982912  0
C  C158  1  0.79275274  0.47260267  0.28729514  1  0.278224  0  -0.052049  -0.068286  0  3.862549  0
C  C159  1  0.50547050  0.02732430  0.71270676  1  0.262886  0  -0.052547  -0.069672  0  3.863848  0
C  C160  1  0.20725241  0.52739671  0.71270699  1  0.277699  0  -0.05199  -0.068303  0  3.862417  0
C  C161  1  0.49452162  0.97267197  0.28729732  1  0.263133  0  -0.052609  -0.063269  0  3.865719  0
C  C162  1  0.89759411  0.45513497  0.37519991  1  -0.005869  0  -0.160093  -0.197931  0  3.942137  0
C  C163  1  0.52235237  0.04472026  0.62480005  1  0.010056  0  -0.160005  -0.19811  0  3.943681  0
C  C164  1  0.10240675  0.54486005  0.62479956  1  -0.005459  0  -0.160106  -0.197866  0  3.942077  0
C  C165  1  0.47764501  0.95527663  0.37520514  1  0.010506  0  -0.159962  -0.197581  0  3.94177  0
C  C166  1  0.92704403  0.36261143  0.38357374  1  0.308731  0  -0.047729  -0.053951  0  3.897784  0
C  C167  1  0.54329236  0.13720866  0.61634363  1  0.29045  0  -0.047803  -0.053144  0  3.895975  0
C  C168  1  0.07295763  0.63738484  0.61642823  1  0.30854  0  -0.047727  -0.053868  0  3.897927  0
C  C169  1  0.45670231  0.86278574  0.38365715  1  0.290236  0  -0.047861  -0.053113  0  3.895915  0
C  C170  1  0.13415975  0.34520967  0.47910797  1  0.366117  0  -0.010695  -0.134951  0  3.979954  0
C  C171  1  0.65488778  0.15431691  0.52081958  1  0.246582  0  -0.010115  -0.13301  0  3.978294  0
C  C172  1  0.86584313  0.65479034  0.52089440  1  0.365992  0  -0.010718  -0.13502  0  3.980036  0
C  C173  1  0.34510280  0.84567624  0.47918042  1  0.247057  0  -0.010233  -0.133273  0  3.978207  0
C  C174  1  0.19768803  0.32580990  0.57015839  1  0.40057  0  -0.00922  -0.041601  0  4.075705  0
C  C175  1  0.62740544  0.17363352  0.42976399  1  0.456963  0  -0.009473  -0.043514  0  4.075614  0
C  C176  1  0.80231414  0.67419011  0.42984243  1  0.4006  0  -0.009186  -0.041524  0  4.075531  0
C  C177  1  0.37258948  0.82636089  0.57023955  1  0.456774  0  -0.009255  -0.043035  0  4.07547  0
C  C178  1  0.02402722  0.32460243  0.55231857  1  1.019309  0  0.219707  0.339302  0  3.934113  0
C  C179  1  0.47159480  0.17517990  0.44758928  1  0.971127  0  0.219721  0.340273  0  3.932742  0
C  C180  1  0.97597727  0.67539447  0.44768288  1  1.019121  0  0.219681  0.339267  0  3.934143  0
C  C181  1  0.52839707  0.82481575  0.55241203  1  0.97073  0  0.219828  0.340349  0  3.932479  0
C  C182  1  0.92172356  0.31811779  0.56945191  1  -0.090151  0  -0.229385  -0.46472  0  3.945815  0
C  C183  1  0.35217720  0.18177113  0.43047146  1  -0.047267  0  -0.229582  -0.466757  0  3.946143  0
C  C184  1  0.07827946  0.68187474  0.43054636  1  -0.08967  0  -0.229439  -0.464882  0  3.945679  0
C  C185  1  0.64781960  0.81823075  0.56953318  1  -0.046657  0  -0.229637  -0.466896  0  3.946006  0
N  N186  1  0.55792957  0.34635449  0.27363872  1  -1.200633  0  -0.357972  -0.353844  0  3.471954  0
N  N187  1  0.28423462  0.15366629  0.72620616  1  -1.209107  0  -0.358349  -0.353924  0  3.472666  0
N  N188  1  0.44207156  0.65364303  0.72636355  1  -1.199995  0  -0.358011  -0.353934  0  3.47196  0
N  N189  1  0.71576490  0.84633559  0.27379705  1  -1.208937  0  -0.358458  -0.353744  0  3.470255  0
N  N190  1  0.69466728  0.43370402  0.29116992  1  -1.225115  0  -0.244805  0.00348  0  3.702187  0
N  N191  1  0.40344848  0.06623278  0.70872721  1  -1.218469  0  -0.244534  0.005283  0  3.700832  0
N  N192  1  0.30533676  0.56629412  0.70883276  1  -1.225224  0  -0.244812  0.003513  0  3.702178  0
N  N193  1  0.59654678  0.93376599  0.29127336  1  -1.218727  0  -0.244479  -0.015781  0  3.727056  0
N  N194  1  0.12864615  0.31324735  0.61455576  1  -1.240454  0  -0.3513  -0.338456  0  3.449092  0
N  N195  1  0.51398272  0.18638650  0.38534048  1  -1.219283  0  -0.351195  -0.33796  0  3.446286  0
N  N196  1  0.87135881  0.68675078  0.38544452  1  -1.240138  0  -0.351274  -0.338417  0  3.449056  0
N  N197  1  0.48600725  0.81360915  0.61465894  1  -1.218787  0  -0.351448  -0.338284  0  3.446635  0
N  N198  1  0.02448124  0.34373895  0.46845604  1  -1.220536  0  -0.247579  -0.019152  0  3.741896  0
N  N199  1  0.55586129  0.15598760  0.53145984  1  -1.223516  0  -0.24777  -0.020079  0  3.742202  0
N  N200  1  0.97552318  0.65625919  0.53154452  1  -1.220749  0  -0.247544  -0.019078  0  3.741983  0
N  N201  1  0.44412976  0.84400556  0.46853895  1  -1.223624  0  -0.247637  -0.019944  0  3.741822  0
O  O202  1  0.29735471  0.34441451  0.12695213  1  -1.190135  0  -0.336348  -0.606623  0  2.346803  0
O  O203  1  0.17043670  0.15564113  0.87312904  1  -1.19436  0  -0.33664  -0.60614  0  2.34623  0
O  O204  1  0.70264822  0.65560417  0.87303039  1  -1.19014  0  -0.336252  -0.606528  0  2.347168  0
O  O205  1  0.82956752  0.84435950  0.12687553  1  -1.194464  0  -0.336598  -0.606125  0  2.346305  0
O  O206  1  0.30505990  0.32614404  0.26962200  1  -1.16389  0  -0.331842  -0.552842  0  2.174299  0
O  O207  1  0.03523586  0.17400256  0.73054380  1  -1.161735  0  -0.331863  -0.553105  0  2.173678  0
O  O208  1  0.69493136  0.67385159  0.73035361  1  -1.163675  0  -0.331977  -0.553018  0  2.174345  0
O  O209  1  0.96475814  0.82600805  0.26946733  1  -1.161763  0  -0.331762  -0.552952  0  2.173517  0
O  O210  1  0.41000350  0.19160328  0.08216813  1  -1.193305  0  -0.342046  -0.604159  0  2.365192  0
O  O211  1  0.32789936  0.30835054  0.91804962  1  -1.177869  0  -0.341818  -0.603474  0  2.365094  0
O  O212  1  0.58999990  0.80839859  0.91782726  1  -1.193415  0  -0.342079  -0.604166  0  2.36521  0
O  O213  1  0.67211079  0.69164947  0.08195086  1  -1.17797  0  -0.341831  -0.603493  0  2.365145  0
O  O214  1  0.55166584  0.13624255  0.20226351  1  -1.175756  0  -0.330777  -0.560256  0  2.17732  0
O  O215  1  0.34925118  0.36368172  0.79786811  1  -1.174711  0  -0.330261  -0.559636  0  2.175762  0
O  O216  1  0.44833432  0.86375496  0.79773445  1  -1.175861  0  -0.330757  -0.560186  0  2.177345  0
O  O217  1  0.65075318  0.63632015  0.20213160  1  -1.174582  0  -0.330277  -0.559637  0  2.175725  0
O  O218  1  0.90783464  0.63089487  0.20591575  1  -1.184518  0  -0.332785  -0.566967  0  2.282499  0
O  O219  1  0.70257441  0.86873022  0.79415843  1  -1.183567  0  -0.332896  -0.567322  0  2.281575  0
O  O220  1  0.09218048  0.36910577  0.79408888  1  -1.1847  0  -0.332802  -0.567047  0  2.282396  0
O  O221  1  0.29742848  0.13127414  0.20582476  1  -1.183289  0  -0.333007  -0.567574  0  2.28127  0
O  O222  1  0.91790983  0.67026288  0.07185378  1  -1.168187  0  -0.330813  -0.574575  0  2.281152  0
O  O223  1  0.84669126  0.82940762  0.92828689  1  -1.153795  0  -0.330384  -0.574022  0  2.27982  0
O  O224  1  0.08208753  0.32974585  0.92814397  1  -1.16852  0  -0.330761  -0.57448  0  2.281314  0
O  O225  1  0.15329850  0.17058615  0.07170392  1  -1.153463  0  -0.330427  -0.573958  0  2.280037  0
