# generated using pymatgen
data_Al2H15C20N3O10
_symmetry_space_group_name_H-M   'P 1'
_cell_length_a   6.62707212
_cell_length_b   11.14280220
_cell_length_c   11.13527224
_cell_angle_alpha   75.76966859
_cell_angle_beta   72.33777116
_cell_angle_gamma   71.74749412
_symmetry_Int_Tables_number   1
_chemical_formula_structural   Al2H15C20N3O10
_chemical_formula_sum   'Al2 H15 C20 N3 O10'
_cell_volume   733.68834885
_cell_formula_units_Z   1
loop_
 _symmetry_equiv_pos_site_id
 _symmetry_equiv_pos_as_xyz
  1  'x, y, z'
loop_
 _atom_site_type_symbol
 _atom_site_label
 _atom_site_symmetry_multiplicity
 _atom_site_fract_x
 _atom_site_fract_y
 _atom_site_fract_z
 _atom_site_occupancy
 _atom_site_pbe_bader_charge
 _atom_site_pbe_bader_spin_density
 _atom_site_pbe_cm5_charge
 _atom_site_pbe_ddec_charge
 _atom_site_pbe_ddec_spin_density
 _atom_site_pbe_ddec_sum_bond_order
 _atom_site_pbe_magmom
Al  Al0  1  0.49373089  0.49364516  0.51067011  1  2.49881  0  0.393121  1.636099  0  2.590532  0
Al  Al1  1  0.99291983  0.49820993  0.50416309  1  2.502641  0  0.393968  1.629674  0  2.591402  0
H  H2  1  0.29140674  0.33526627  0.57065624  1  0.609482  0  0.351303  0.423285  0  0.864145  0
H  H3  1  0.68602272  0.65692511  0.44718355  1  0.628872  0  0.343353  0.41417  0  0.887507  0
H  H4  1  0.10162944  0.57037308  0.11308462  1  0.103261  0  0.101743  0.111388  0  1.016622  0
H  H5  1  0.77327060  0.45021319  0.13594689  1  0.089813  0  0.111917  0.129136  0  1.00034  0
H  H6  1  0.22965739  0.56281026  0.87693139  1  0.110226  0  0.106296  0.107713  0  1.01505  0
H  H7  1  0.25983347  0.24995869  0.30914532  1  0.115067  0  0.103198  0.125181  0  1.036388  0
H  H8  1  0.46529639  0.77953733  0.32210001  1  0.04237  0  0.105441  0.122981  0  1.041438  0
H  H9  1  0.74298499  0.87196325  0.60350224  1  0.065807  0  0.106579  0.112823  0  0.992679  0
H  H10  1  0.64119487  0.10818718  0.59874533  1  0.082987  0  0.10536  0.108176  0  1.002076  0
H  H11  1  0.00606309  0.43185574  0.79836915  1  0.53657  0  0.309475  0.325665  0  0.973085  0
H  H12  1  0.05566920  0.41238737  0.94882240  1  0.460273  0  0.308091  0.302947  0  0.958051  0
H  H13  1  0.59404752  0.25391371  0.14696902  1  0.423472  0  0.290829  0.282923  0  0.995967  0
H  H14  1  0.73453736  0.12430347  0.07550865  1  0.432987  0  0.303379  0.290221  0  0.955138  0
H  H15  1  0.81140344  0.79911855  0.18805109  1  0.414516  0  0.306978  0.303701  0  0.936436  0
H  H16  1  0.88994913  0.93458099  0.16364808  1  0.444633  0  0.3039  0.291644  0  0.953058  0
C  C17  1  0.87664876  0.27110167  0.48983548  1  1.541245  0  0.273271  0.656754  0  4.058367  0
C  C18  1  0.62832734  0.48647362  0.73768010  1  1.519586  0  0.259279  0.643325  0  4.104602  0
C  C19  1  0.11954803  0.72490076  0.50042320  1  1.514407  0  0.270898  0.654154  0  4.073335  0
C  C20  1  0.36333758  0.51111497  0.27724344  1  1.568421  0  0.260052  0.622011  0  4.122178  0
C  C21  1  0.56969009  0.49545452  0.87481038  1  -0.004726  0  -0.029647  -0.171088  0  3.924044  0
C  C22  1  0.43309191  0.50898277  0.13671832  1  -0.07922  0  -0.017647  -0.019369  0  4.03394  0
C  C23  1  0.73115206  0.46451806  0.94628810  1  0.467994  0  0.116135  0.30975  0  4.067053  0
C  C24  1  0.27490497  0.54144494  0.06550968  1  -0.012971  0  -0.113303  -0.161709  0  4.043942  0
C  C25  1  0.65540940  0.47318769  0.07803272  1  -0.045783  0  -0.098526  -0.23193  0  3.932153  0
C  C26  1  0.34621538  0.53553058  0.93615615  1  -0.073124  0  -0.087623  -0.079187  0  4.038681  0
C  C27  1  0.94803219  0.13383206  0.47516075  1  -0.027499  0  -0.015026  -0.095639  0  3.93547  0
C  C28  1  0.15695720  0.07582533  0.39851443  1  -0.001531  0  -0.00816  0.06686  0  3.989864  0
C  C29  1  0.80006100  0.06095409  0.54340563  1  -0.005672  0  -0.090303  -0.097322  0  4.024628  0
C  C30  1  0.30464271  0.14644947  0.31546562  1  0.001304  0  -0.117534  -0.26959  0  3.979825  0
C  C31  1  0.50278058  0.08872761  0.23943782  1  0.392148  0  0.090607  0.2153  0  4.091516  0
C  C32  1  0.06282263  0.86712598  0.47970299  1  0.000968  0  -0.013777  -0.092833  0  3.951891  0
C  C33  1  0.85648799  0.92892966  0.54593211  1  -0.010771  0  -0.092287  -0.105942  0  4.028799  0
C  C34  1  0.21500359  0.93887142  0.40056216  1  -0.066138  0  -0.009919  0.062883  0  3.992373  0
C  C35  1  0.41915516  0.88212823  0.32224248  1  0.084942  0  -0.118621  -0.279961  0  4.002138  0
C  C36  1  0.56466570  0.95222806  0.24611206  1  0.356862  0  0.086864  0.211184  0  4.09975  0
N  N37  1  0.95000935  0.42412574  0.89508568  1  -1.297256  0  -0.585674  -0.604471  0  3.347337  0
N  N38  1  0.64963589  0.15677915  0.15909448  1  -1.211367  0  -0.597684  -0.6006  0  3.319806  0
N  N39  1  0.76558740  0.89648757  0.16948378  1  -1.198611  0  -0.596641  -0.609171  0  3.283487  0
O  O40  1  0.67025204  0.32247829  0.51948765  1  -1.269375  0  -0.238451  -0.609022  0  2.358354  0
O  O41  1  0.83217597  0.46531906  0.67908770  1  -1.273045  0  -0.240363  -0.605676  0  2.390422  0
O  O42  1  0.96617993  0.66966443  0.52326804  1  -1.267993  0  -0.242269  -0.601808  0  2.324875  0
O  O43  1  0.51365486  0.49169640  0.33388610  1  -1.24818  0  -0.236776  -0.582145  0  2.362419  0
O  O44  1  0.31885503  0.66494499  0.49680030  1  -1.271596  0  -0.233804  -0.598854  0  2.412213  0
O  O45  1  0.15809537  0.53202619  0.32941941  1  -1.26663  0  -0.239731  -0.596464  0  2.356086  0
O  O46  1  0.02114999  0.33001363  0.47674836  1  -1.267  0  -0.235579  -0.594888  0  2.362177  0
O  O47  1  0.47446843  0.49849128  0.68553366  1  -1.257478  0  -0.241412  -0.591542  0  2.334698  0
O  O48  1  0.24740107  0.42789990  0.56475289  1  -1.416364  0  -0.448673  -0.976678  0  2.171239  0
O  O49  1  0.73467473  0.56454829  0.45066331  1  -1.437334  0  -0.452608  -0.984058  0  2.195588  0
