# generated using pymatgen
data_ZnH17C20IN6O5
_symmetry_space_group_name_H-M   'P 1'
_cell_length_a   10.23810161
_cell_length_b   10.24390442
_cell_length_c   13.61603319
_cell_angle_alpha   71.89835647
_cell_angle_beta   84.18811630
_cell_angle_gamma   72.04824744
_symmetry_Int_Tables_number   1
_chemical_formula_structural   ZnH17C20IN6O5
_chemical_formula_sum   'Zn2 H34 C40 I2 N12 O10'
_cell_volume   1291.24229440
_cell_formula_units_Z   2
loop_
 _symmetry_equiv_pos_site_id
 _symmetry_equiv_pos_as_xyz
  1  'x, y, z'
loop_
 _atom_site_type_symbol
 _atom_site_label
 _atom_site_symmetry_multiplicity
 _atom_site_fract_x
 _atom_site_fract_y
 _atom_site_fract_z
 _atom_site_occupancy
 _atom_site_hle17_bader_spin_density
 _atom_site_hle17_ddec_charge
 _atom_site_hle17_ddec_spin_density
 _atom_site_hle17_ddec_sum_bond_order
 _atom_site_hle17_magmom
 _atom_site_hse06_10hf_bader_spin_density
 _atom_site_hse06_10hf_ddec_charge
 _atom_site_hse06_10hf_ddec_spin_density
 _atom_site_hse06_10hf_ddec_sum_bond_order
 _atom_site_hse06_10hf_magmom
 _atom_site_hse06_bader_spin_density
 _atom_site_hse06_ddec_charge
 _atom_site_hse06_ddec_spin_density
 _atom_site_hse06_ddec_sum_bond_order
 _atom_site_hse06_magmom
 _atom_site_pbe_bader_spin_density
 _atom_site_pbe_cm5_charge
 _atom_site_pbe_ddec_charge
 _atom_site_pbe_ddec_spin_density
 _atom_site_pbe_ddec_sum_bond_order
 _atom_site_pbe_magmom
Zn  Zn0  1  0.86962172  0.27350270  0.54728950  1  0  1.049017  0  1.784161  0  0  0.869237  0  2.232955  0  0  0.918682  0  2.17907  0  0  0.680993  0.8322  0  2.271886  0
Zn  Zn1  1  0.13038759  0.72649487  0.45271121  1  0  1.04898  0  1.784236  0  0  0.869222  0  2.232994  0  0  0.918762  0  2.179039  0  0  0.680974  0.832181  0  2.271925  0
H  H2  1  0.90074978  0.05417154  0.40784840  1  0  0.126767  0  0.94967  0  0  0.131965  0  1.018738  0  0  0.135677  0  1.013996  0  0  0.143295  0.129085  0  1.022243  0
H  H3  1  0.09926768  0.94581105  0.59215752  1  0  0.126857  0  0.9497  0  0  0.132104  0  1.018698  0  0  0.1358  0  1.013964  0  0  0.14336  0.129218  0  1.022215  0
H  H4  1  0.36014446  0.27755611  0.56099475  1  0  0.08953  0  1.000534  0  0  0.098124  0  1.069767  0  0  0.102498  0  1.065056  0  0  0.102612  0.094892  0  1.07351  0
H  H5  1  0.63986689  0.72245444  0.43900723  1  0  0.089563  0  1.000591  0  0  0.09818  0  1.069779  0  0  0.102547  0  1.065074  0  0  0.102651  0.094949  0  1.073521  0
H  H6  1  0.23414343  0.12549229  0.33555186  1  0  0.116102  0  0.957172  0  0  0.122305  0  1.02637  0  0  0.125667  0  1.024378  0  0  0.106281  0.120015  0  1.027626  0
H  H7  1  0.76584872  0.87454821  0.66443914  1  0  0.115967  0  0.957274  0  0  0.12227  0  1.026364  0  0  0.125578  0  1.024437  0  0  0.106231  0.119986  0  1.027611  0
H  H8  1  0.65925489  0.10988313  0.35394834  1  0  0.102636  0  0.954833  0  0  0.110913  0  1.023737  0  0  0.114499  0  1.020721  0  0  0.102939  0.108683  0  1.025213  0
H  H9  1  0.34074775  0.89013481  0.64604362  1  0  0.102626  0  0.954781  0  0  0.110888  0  1.023691  0  0  0.114473  0  1.020679  0  0  0.10292  0.108658  0  1.025166  0
H  H10  1  0.60970804  0.39970957  0.69423427  1  0  0.127668  0  0.932975  0  0  0.136911  0  0.993956  0  0  0.140446  0  0.988656  0  0  0.144366  0.134273  0  0.997208  0
H  H11  1  0.39031064  0.60028694  0.30575879  1  0  0.127698  0  0.933075  0  0  0.136953  0  0.994014  0  0  0.140764  0  0.988688  0  0  0.14438  0.134316  0  0.997261  0
H  H12  1  0.01251786  0.42798062  0.67011871  1  0  0.113591  0  0.947917  0  0  0.125139  0  1.00307  0  0  0.12741  0  1.000548  0  0  0.140656  0.12332  0  1.005066  0
H  H13  1  0.98749095  0.57202556  0.32988003  1  0  0.113687  0  0.948025  0  0  0.125152  0  1.003259  0  0  0.127542  0  1.000654  0  0  0.140655  0.123332  0  1.005258  0
H  H14  1  0.21239714  0.90250734  0.20891435  1  0  0.082908  0  0.934443  0  0  0.091698  0  0.997451  0  0  0.093919  0  0.994975  0  0  0.126636  0.090073  0  0.999147  0
H  H15  1  0.78761458  0.09749887  0.79108494  1  0  0.082916  0  0.934574  0  0  0.091759  0  0.997505  0  0  0.09397  0  0.995053  0  0  0.12667  0.090135  0  0.999203  0
H  H16  1  0.52981413  0.50556677  0.84802069  1  0  0.090692  0  0.916377  0  0  0.108034  0  0.974227  0  0  0.108475  0  0.973891  0  0  0.117937  0.107615  0  0.973966  0
H  H17  1  0.47018760  0.49441447  0.15196810  1  0  0.090674  0  0.916477  0  0  0.10804  0  0.974339  0  0  0.10869  0  0.974061  0  0  0.117964  0.107621  0  0.974078  0
H  H18  1  0.58913186  0.65876550  0.82210129  1  0  0.077592  0  0.964968  0  0  0.086432  0  1.04192  0  0  0.086672  0  1.041412  0  0  0.101719  0.086188  0  1.041575  0
H  H19  1  0.41086234  0.34121260  0.17790703  1  0  0.077528  0  0.965005  0  0  0.086357  0  1.042037  0  0  0.086753  0  1.041678  0  0  0.101721  0.086136  0  1.041676  0
H  H20  1  0.61594332  0.29452853  0.00170161  1  0  0.083788  0  0.954227  0  0  0.093586  0  1.015904  0  0  0.096454  0  1.014904  0  0  0.094221  0.091598  0  1.016508  0
H  H21  1  0.38406196  0.70542912  0.99830054  1  0  0.083816  0  0.95429  0  0  0.093607  0  1.015971  0  0  0.096495  0  1.014934  0  0  0.094265  0.091619  0  1.016571  0
H  H22  1  0.73986353  0.19214004  0.16754204  1  0  0.080331  0  0.978152  0  0  0.085719  0  1.051327  0  0  0.08847  0  1.050274  0  0  0.090071  0.083903  0  1.051775  0
H  H23  1  0.26013516  0.80783695  0.83245820  1  0  0.080338  0  0.978054  0  0  0.085707  0  1.051252  0  0  0.088464  0  1.050198  0  0  0.090049  0.083893  0  1.051699  0
H  H24  1  0.89551664  0.55737627  0.09573468  1  0  0.101765  0  0.939862  0  0  0.113959  0  0.994225  0  0  0.116882  0  0.993565  0  0  0.105427  0.112001  0  0.994476  0
H  H25  1  0.10446547  0.44260282  0.90427486  1  0  0.101759  0  0.940112  0  0  0.114003  0  0.994397  0  0  0.116918  0  0.993751  0  0  0.105551  0.112044  0  0.994647  0
H  H26  1  0.77023642  0.66100341  0.92932918  1  0  0.097454  0  0.955203  0  0  0.102867  0  1.025182  0  0  0.10646  0  1.022541  0  0  0.098763  0.100224  0  1.027288  0
H  H27  1  0.22975824  0.33895961  0.07068042  1  0  0.097526  0  0.955257  0  0  0.102946  0  1.025222  0  0  0.106579  0  1.022493  0  0  0.09874  0.100267  0  1.027361  0
H  H28  1  0.97823510  0.36541130  0.24250178  1  0  0.101607  0  0.928432  0  0  0.110833  0  1.000838  0  0  0.112363  0  0.999353  0  0  0.11811  0.109774  0  1.001744  0
H  H29  1  0.02173977  0.63458705  0.75749636  1  0  0.101768  0  0.928199  0  0  0.110986  0  1.000575  0  0  0.112469  0  0.99917  0  0  0.118153  0.109931  0  1.001481  0
H  H30  1  0.83621728  0.31452982  0.31057382  1  0  0.112029  0  0.929859  0  0  0.125992  0  0.991876  0  0  0.127029  0  0.991354  0  0  0.120283  0.125026  0  0.992655  0
H  H31  1  0.16376726  0.68546015  0.68944406  1  0  0.112104  0  0.929888  0  0  0.126004  0  0.991915  0  0  0.127036  0  0.99139  0  0  0.120269  0.125037  0  0.992697  0
H  H32  1  0.81133353  0.55697909  0.43833941  1  0  0.419048  0  0.893104  0  0  0.38553  0  0.962333  0  0  0.39685  0  0.94588  0  0  0.282995  0.377428  0  0.97408  0
H  H33  1  0.18867701  0.44302392  0.56166511  1  0  0.419153  0  0.893004  0  0  0.385627  0  0.962247  0  0  0.396948  0  0.94579  0  0  0.283022  0.377525  0  0.973995  0
H  H34  1  0.68071607  0.50244331  0.44358217  1  0  0.423542  0  0.831014  0  0  0.39886  0  0.900011  0  0  0.407655  0  0.889557  0  0  0.304622  0.392312  0  0.907887  0
H  H35  1  0.31928910  0.49757151  0.55642064  1  0  0.423503  0  0.831  0  0  0.398818  0  0.900004  0  0  0.407613  0  0.889551  0  0  0.304636  0.392272  0  0.907878  0
C  C36  1  0.62118667  0.24255723  0.50759557  1  0  0.635239  0  3.939847  0  0  0.588882  0  4.22592  0  0  0.62249  0  4.220089  0  0  0.195356  0.565896  0  4.229258  0
C  C37  1  0.37882349  0.75745860  0.49239496  1  0  0.635339  0  3.939783  0  0  0.589004  0  4.225861  0  0  0.622611  0  4.220034  0  0  0.195316  0.566018  0  4.229196  0
C  C38  1  0.51859987  0.20202928  0.46028219  1  0  -0.051065  0  3.759577  0  0  -0.021618  0  3.988433  0  0  -0.030916  0  4.012405  0  0  -0.018369  -0.015942  0  3.97326  0
C  C39  1  0.48140408  0.79798759  0.53970920  1  0  -0.051369  0  3.759761  0  0  -0.021965  0  3.988646  0  0  -0.031264  0  4.012629  0  0  -0.018528  -0.016282  0  3.973475  0
C  C40  1  0.97152093  0.04450721  0.34362564  1  0  0.186398  0  3.601413  0  0  0.106645  0  3.86971  0  0  0.121659  0  3.879082  0  0  0.163461  0.097134  0  3.862884  0
C  C41  1  0.02848398  0.95548172  0.65637733  1  0  0.186326  0  3.601438  0  0  0.106411  0  3.869796  0  0  0.121435  0  3.879161  0  0  0.163365  0.096899  0  3.862963  0
C  C42  1  0.38347419  0.23415226  0.49585861  1  0  -0.079377  0  3.742235  0  0  -0.120332  0  3.989896  0  0  -0.117731  0  4.009568  0  0  -0.083169  -0.122351  0  3.977877  0
C  C43  1  0.61653313  0.76585928  0.50413750  1  0  -0.079219  0  3.741899  0  0  -0.120185  0  3.989591  0  0  -0.117587  0  4.009274  0  0  -0.083161  -0.122209  0  3.977581  0
C  C44  1  0.28061593  0.20899974  0.45107447  1  0  -0.055901  0  3.750756  0  0  -0.02762  0  3.98667  0  0  -0.036814  0  4.009492  0  0  -0.016464  -0.02185  0  3.971936  0
C  C45  1  0.71938371  0.79102043  0.54892963  1  0  -0.056065  0  3.750498  0  0  -0.027803  0  3.986506  0  0  -0.036996  0  4.009322  0  0  -0.016513  -0.02203  0  3.971776  0
C  C46  1  0.31399159  0.14554209  0.37059192  1  0  -0.075727  0  3.675183  0  0  -0.115459  0  3.933324  0  0  -0.111935  0  3.950348  0  0  -0.083834  -0.116891  0  3.921255  0
C  C47  1  0.68600334  0.85448549  0.62939971  1  0  -0.075377  0  3.675025  0  0  -0.115225  0  3.933159  0  0  -0.111687  0  3.950268  0  0  -0.083711  -0.116662  0  3.921089  0
C  C48  1  0.45043010  0.10972460  0.33739211  1  0  0.022013  0  3.671342  0  0  0.052155  0  3.934779  0  0  0.050703  0  3.958708  0  0  -0.047702  0.052774  0  3.918359  0
C  C49  1  0.54956153  0.89031478  0.66259477  1  0  0.021934  0  3.671152  0  0  0.05211  0  3.93454  0  0  0.050643  0  3.958492  0  0  -0.047658  0.052727  0  3.918124  0
C  C50  1  0.55327142  0.13764701  0.38069404  1  0  -0.091283  0  3.719358  0  0  -0.126013  0  3.968421  0  0  -0.123777  0  3.98787  0  0  -0.087742  -0.12667  0  3.954763  0
C  C51  1  0.44672868  0.86238379  0.61928993  1  0  -0.091238  0  3.719396  0  0  -0.125902  0  3.968361  0  0  -0.123675  0  3.987828  0  0  -0.087745  -0.126564  0  3.954716  0
C  C52  1  0.13683395  0.25361499  0.49079783  1  0  0.63971  0  3.917277  0  0  0.586526  0  4.209938  0  0  0.620552  0  4.203931  0  0  0.202596  0.563284  0  4.213406  0
C  C53  1  0.86317422  0.74638910  0.50920951  1  0  0.639714  0  3.917092  0  0  0.586535  0  4.209724  0  0  0.620553  0  4.203746  0  0  0.202653  0.563295  0  4.213189  0
C  C54  1  0.70287574  0.42167887  0.70663837  1  0  0.157123  0  3.633663  0  0  0.080856  0  3.895057  0  0  0.103966  0  3.910539  0  0  0.16285  0.072101  0  3.886283  0
C  C55  1  0.29713736  0.57830904  0.29336289  1  0  0.156869  0  3.63406  0  0  0.080602  0  3.895458  0  0  0.101894  0  3.912004  0  0  0.162741  0.071849  0  3.886678  0
C  C56  1  0.90719045  0.43814013  0.69525617  1  0  0.204656  0  3.693237  0  0  0.150558  0  3.980331  0  0  0.162654  0  3.989502  0  0  0.148111  0.143016  0  3.971867  0
C  C57  1  0.09281294  0.56186490  0.30473874  1  0  0.204488  0  3.693477  0  0  0.150435  0  3.98059  0  0  0.16278  0  3.990013  0  0  0.14806  0.142893  0  3.972127  0
C  C58  1  0.12859206  0.97220358  0.24096403  1  0  0.188201  0  3.755742  0  0  0.136384  0  4.048002  0  0  0.147287  0  4.061347  0  0  0.13614  0.129008  0  4.039168  0
C  C59  1  0.87141452  0.02779616  0.75904074  1  0  0.188115  0  3.755799  0  0  0.136252  0  4.048043  0  0  0.147141  0  4.061415  0  0  0.136019  0.128876  0  4.039214  0
C  C60  1  0.62039725  0.54093751  0.84889981  1  0  -0.050427  0  3.652627  0  0  -0.132053  0  3.905875  0  0  -0.118941  0  3.91894  0  0  -0.043478  -0.134676  0  3.898614  0
C  C61  1  0.37960355  0.45904919  0.15109878  1  0  -0.050345  0  3.652457  0  0  -0.132035  0  3.905917  0  0  -0.120584  0  3.919967  0  0  -0.04361  -0.134679  0  3.898625  0
C  C62  1  0.68437816  0.48494491  0.95443056  1  0  0.061003  0  3.768211  0  0  0.079324  0  4.012481  0  0  0.078303  0  4.035192  0  0  -0.017709  0.080012  0  3.99566  0
C  C63  1  0.31560615  0.51503090  0.04557080  1  0  0.060918  0  3.768174  0  0  0.079171  0  4.012628  0  0  0.078304  0  4.03556  0  0  -0.017779  0.079873  0  3.995777  0
C  C64  1  0.67661362  0.35307682  0.02231540  1  0  -0.115951  0  3.773746  0  0  -0.133436  0  4.019215  0  0  -0.135866  0  4.041733  0  0  -0.095496  -0.131359  0  4.003676  0
C  C65  1  0.32337716  0.64689365  0.97768535  1  0  -0.115738  0  3.774079  0  0  -0.133176  0  4.019467  0  0  -0.135549  0  4.041934  0  0  -0.095465  -0.131102  0  4.00392  0
C  C66  1  0.74590214  0.29585592  0.11616598  1  0  -0.121125  0  3.765051  0  0  -0.142249  0  4.015067  0  0  -0.145694  0  4.038084  0  0  -0.100699  -0.14001  0  3.999556  0
C  C67  1  0.25407923  0.70412211  0.88384605  1  0  -0.121234  0  3.765406  0  0  -0.142253  0  4.015529  0  0  -0.145702  0  4.038544  0  0  -0.10056  -0.140014  0  4.000016  0
C  C68  1  0.82526332  0.36889345  0.14332630  1  0  0.084315  0  3.742174  0  0  0.10273  0  3.982398  0  0  0.102374  0  4.007152  0  0  -0.006933  0.103238  0  3.965436  0
C  C69  1  0.17472533  0.63108678  0.85668259  1  0  0.084733  0  3.741598  0  0  0.102823  0  3.98224  0  0  0.102463  0  4.006998  0  0  -0.006836  0.103341  0  3.965262  0
C  C70  1  0.83162274  0.50142618  0.07596229  1  0  -0.109791  0  3.740377  0  0  -0.125708  0  3.977433  0  0  -0.129464  0  4.000483  0  0  -0.088663  -0.123181  0  3.961528  0
C  C71  1  0.16835683  0.49855404  0.92405522  1  0  -0.109878  0  3.740487  0  0  -0.12575  0  3.97764  0  0  -0.129486  0  4.000663  0  0  -0.088835  -0.12323  0  3.961735  0
C  C72  1  0.76125342  0.55950158  0.98241673  1  0  -0.106683  0  3.752461  0  0  -0.128813  0  4.003719  0  0  -0.130533  0  4.024619  0  0  -0.090394  -0.127852  0  3.989745  0
C  C73  1  0.23873297  0.44047970  0.01759205  1  0  -0.106945  0  3.752993  0  0  -0.12905  0  4.004242  0  0  -0.130663  0  4.02496  0  0  -0.090444  -0.128056  0  3.990267  0
C  C74  1  0.90397000  0.30732432  0.24332073  1  0  -0.062936  0  3.628274  0  0  -0.141804  0  3.875195  0  0  -0.137993  0  3.884833  0  0  -0.043414  -0.144103  0  3.86871  0
C  C75  1  0.09600601  0.69266876  0.75669032  1  0  -0.063495  0  3.628516  0  0  -0.142163  0  3.875285  0  0  -0.138361  0  3.884946  0  0  -0.043547  -0.144478  0  3.868823  0
I  I76  1  0.50634145  0.01164210  0.21746818  1  0  -0.01889  0  1.183889  0  0  -0.022298  0  1.411157  0  0  -0.024239  0  1.403598  0  0  0.090388  -0.020604  0  1.415897  0
I  I77  1  0.49362558  0.98844004  0.78249770  1  0  -0.018879  0  1.183631  0  0  -0.022304  0  1.410846  0  0  -0.024269  0  1.403301  0  0  0.090341  -0.020605  0  1.415582  0
N  N78  1  0.82139651  0.38806438  0.65566572  1  0  -0.409739  0  3.263656  0  0  -0.334266  0  3.566288  0  0  -0.356214  0  3.574894  0  0  -0.342331  -0.318542  0  3.556968  0
N  N79  1  0.17861582  0.61194069  0.34432499  1  0  -0.40956  0  3.263675  0  0  -0.334085  0  3.566299  0  0  -0.35571  0  3.575356  0  0  -0.342228  -0.31836  0  3.55697  0
N  N80  1  0.84829038  0.50030914  0.76698483  1  0  -0.26828  0  2.866006  0  0  -0.265961  0  3.134193  0  0  -0.265795  0  3.154186  0  0  -0.218483  -0.260039  0  3.124229  0
N  N81  1  0.15170962  0.49969049  0.23301227  1  0  -0.268278  0  2.865994  0  0  -0.265924  0  3.134124  0  0  -0.267292  0  3.154796  0  0  -0.218465  -0.259999  0  3.124161  0
N  N82  1  0.71869487  0.48828966  0.77353894  1  0  0.049035  0  3.549754  0  0  0.168681  0  3.739172  0  0  0.130054  0  3.79917  0  0  -0.128088  0.175168  0  3.723489  0
N  N83  1  0.28130744  0.51170890  0.22645680  1  0  0.049199  0  3.549723  0  0  0.168877  0  3.739135  0  0  0.132961  0  3.799045  0  0  -0.128024  0.175335  0  3.723509  0
N  N84  1  0.97979992  0.15595005  0.26172748  1  0  0.055647  0  3.556797  0  0  0.176271  0  3.743833  0  0  0.165776  0  3.7672  0  0  -0.132338  0.181804  0  3.730536  0
N  N85  1  0.02019861  0.84404320  0.73828221  1  0  0.055757  0  3.556951  0  0  0.176537  0  3.743799  0  0  0.166091  0  3.767067  0  0  -0.132253  0.182073  0  3.730501  0
N  N86  1  0.08011299  0.11225800  0.19502978  1  0  -0.284728  0  2.84059  0  0  -0.287298  0  3.102811  0  0  -0.294375  0  3.115087  0  0  -0.232478  -0.282741  0  3.095151  0
N  N87  1  0.91989127  0.88774607  0.80497779  1  0  -0.284755  0  2.840673  0  0  -0.287414  0  3.102904  0  0  -0.294504  0  3.115176  0  0  -0.23253  -0.282855  0  3.095247  0
N  N88  1  0.06497508  0.92548809  0.33263711  1  0  -0.414797  0  3.221958  0  0  -0.345079  0  3.520665  0  0  -0.367113  0  3.533546  0  0  -0.344601  -0.330175  0  3.511621  0
N  N89  1  0.93503576  0.07450412  0.66736476  1  0  -0.414744  0  3.221965  0  0  -0.344967  0  3.520692  0  0  -0.367016  0  3.533602  0  0  -0.344497  -0.330064  0  3.51165  0
O  O90  1  0.74850462  0.19475507  0.48366267  1  0  -0.646203  0  2.050195  0  0  -0.573548  0  2.306373  0  0  -0.603112  0  2.295444  0  0  -0.326242  -0.551942  0  2.314183  0
O  O91  1  0.25150773  0.80522853  0.51634037  1  0  -0.646126  0  2.05011  0  0  -0.573502  0  2.306283  0  0  -0.603063  0  2.295355  0  0  -0.326167  -0.551897  0  2.314093  0
O  O92  1  0.57796697  0.32234683  0.56509915  1  0  -0.641007  0  1.92059  0  0  -0.595671  0  2.144881  0  0  -0.618858  0  2.13511  0  0  -0.333096  -0.578553  0  2.150655  0
O  O93  1  0.42204684  0.67768507  0.43487495  1  0  -0.64108  0  1.920474  0  0  -0.595732  0  2.144726  0  0  -0.61888  0  2.134918  0  0  -0.333052  -0.578611  0  2.150492  0
O  O94  1  0.11157090  0.32946783  0.55216218  1  0  -0.635841  0  2.0161  0  0  -0.577333  0  2.246702  0  0  -0.602804  0  2.23672  0  0  -0.31266  -0.55889  0  2.252462  0
O  O95  1  0.88843612  0.67054054  0.44784203  1  0  -0.635752  0  2.016023  0  0  -0.577222  0  2.24659  0  0  -0.602687  0  2.236607  0  0  -0.312637  -0.558778  0  2.252345  0
O  O96  1  0.04437101  0.21302002  0.46218947  1  0  -0.621672  0  2.030584  0  0  -0.549228  0  2.28912  0  0  -0.578159  0  2.279302  0  0  -0.311275  -0.528216  0  2.296477  0
O  O97  1  0.95563434  0.78699476  0.53780820  1  0  -0.621755  0  2.030491  0  0  -0.5493  0  2.28899  0  0  -0.578243  0  2.279183  0  0  -0.311342  -0.528296  0  2.296351  0
O  O98  1  0.77896629  0.47898597  0.42729695  1  0  -0.817981  0  1.86903  0  0  -0.761355  0  2.067836  0  0  -0.78131  0  2.037853  0  0  -0.57512  -0.74747  0  2.089446  0
O  O99  1  0.22103792  0.52101811  0.57271210  1  0  -0.818025  0  1.868894  0  0  -0.761396  0  2.067702  0  0  -0.781339  0  2.037707  0  0  -0.575168  -0.747513  0  2.089309  0
