# generated using pymatgen
data_CdH12C12(NCl)2
_symmetry_space_group_name_H-M   'P 1'
_cell_length_a   7.26761477
_cell_length_b   10.09415905
_cell_length_c   10.09403951
_cell_angle_alpha   61.46303895
_cell_angle_beta   76.03292285
_cell_angle_gamma   76.03193761
_symmetry_Int_Tables_number   1
_chemical_formula_structural   CdH12C12(NCl)2
_chemical_formula_sum   'Cd2 H24 C24 N4 Cl4'
_cell_volume   624.36426569
_cell_formula_units_Z   2
loop_
 _symmetry_equiv_pos_site_id
 _symmetry_equiv_pos_as_xyz
  1  'x, y, z'
loop_
 _atom_site_type_symbol
 _atom_site_label
 _atom_site_symmetry_multiplicity
 _atom_site_fract_x
 _atom_site_fract_y
 _atom_site_fract_z
 _atom_site_occupancy
 _atom_site_pbe_bader_spin_density
 _atom_site_pbe_cm5_charge
 _atom_site_pbe_ddec_charge
 _atom_site_pbe_ddec_spin_density
 _atom_site_pbe_ddec_sum_bond_order
 _atom_site_pbe_magmom
Cd  Cd0  1  0.74999846  0.07030162  0.92970332  1  0  0.590173  0.749702  0  2.460339  0
Cd  Cd1  1  0.24999914  0.92970474  0.07029901  1  0  0.590158  0.749658  0  2.460414  0
H  H2  1  0.01095807  0.51585919  0.13359700  1  0  0.082907  0.135298  0  1.038735  0
H  H3  1  0.48905186  0.86641242  0.48412595  1  0  0.082935  0.135288  0  1.038669  0
H  H4  1  0.98905655  0.48412432  0.86640650  1  0  0.082922  0.135222  0  1.038598  0
H  H5  1  0.51095726  0.13359272  0.51586504  1  0  0.082919  0.135324  0  1.038729  0
H  H6  1  0.07975775  0.33010867  0.13939661  1  0  0.085666  0.140859  0  1.034833  0
H  H7  1  0.42025352  0.86061036  0.66987683  1  0  0.085654  0.140836  0  1.034908  0
H  H8  1  0.92025383  0.66987603  0.86061279  1  0  0.085602  0.140736  0  1.034832  0
H  H9  1  0.57975320  0.13939254  0.33011964  1  0  0.085662  0.140839  0  1.034975  0
H  H10  1  0.24430262  0.41480464  0.16744625  1  0  0.090741  0.131513  0  1.034966  0
H  H11  1  0.25570798  0.83256543  0.58517846  1  0  0.090766  0.13153  0  1.034978  0
H  H12  1  0.75570437  0.58517437  0.83256870  1  0  0.090715  0.131455  0  1.035052  0
H  H13  1  0.74429483  0.16744314  0.41481395  1  0  0.090752  0.131509  0  1.034996  0
H  H14  1  0.83394507  0.52722086  0.35856865  1  0  0.108795  0.125539  0  1.006463  0
H  H15  1  0.66605988  0.64142393  0.47277964  1  0  0.108771  0.125571  0  1.006743  0
H  H16  1  0.16604438  0.47278303  0.64141848  1  0  0.108823  0.125604  0  1.006596  0
H  H17  1  0.33393372  0.35857319  0.52721699  1  0  0.108775  0.125559  0  1.006585  0
H  H18  1  0.20450501  0.11089183  0.40139918  1  0  0.107316  0.12765  0  1.002877  0
H  H19  1  0.29551619  0.59861807  0.88909210  1  0  0.107365  0.127749  0  1.002984  0
H  H20  1  0.79550326  0.88910325  0.59861765  1  0  0.107362  0.127721  0  1.002821  0
H  H21  1  0.70448720  0.40139512  0.11090391  1  0  0.107326  0.127672  0  1.003059  0
H  H22  1  0.08160778  0.99750085  0.68353479  1  0  0.104048  0.076375  0  1.049187  0
H  H23  1  0.41839425  0.31648856  0.00248342  1  0  0.104082  0.076434  0  1.049301  0
H  H24  1  0.91839134  0.00249762  0.31648002  1  0  0.104047  0.076414  0  1.04915  0
H  H25  1  0.58160674  0.68352237  0.99751511  1  0  0.104048  0.076417  0  1.049327  0
C  C26  1  0.82513577  0.33680921  0.58483334  1  0  0.119986  0.179529  0  3.985803  0
C  C27  1  0.67486760  0.41514572  0.66320245  1  0  0.120073  0.179659  0  3.985776  0
C  C28  1  0.17484435  0.66319930  0.41516012  1  0  0.119945  0.179612  0  3.985951  0
C  C29  1  0.32511772  0.58485030  0.33680014  1  0  0.120141  0.179659  0  3.985651  0
C  C30  1  0.89065389  0.40927298  0.42833035  1  0  -0.081843  -0.224494  0  3.900411  0
C  C31  1  0.60935360  0.57168539  0.59070406  1  0  -0.081784  -0.224496  0  3.899627  0
C  C32  1  0.10934392  0.59070935  0.57167471  1  0  -0.081847  -0.224603  0  3.900058  0
C  C33  1  0.39064048  0.42832426  0.40928442  1  0  -0.081807  -0.224484  0  3.899584  0
C  C34  1  0.09793990  0.17800797  0.45072754  1  0  -0.083174  -0.187803  0  3.905543  0
C  C35  1  0.40206352  0.54931136  0.82196506  1  0  -0.083274  -0.187862  0  3.905681  0
C  C36  1  0.90206329  0.82196887  0.54930004  1  0  -0.083194  -0.187752  0  3.905518  0
C  C37  1  0.59793560  0.45070177  0.17802579  1  0  -0.083276  -0.187751  0  3.905754  0
C  C38  1  0.02674477  0.32950051  0.35790276  1  0  0.013735  0.226432  0  3.959053  0
C  C39  1  0.47325346  0.64209948  0.67050377  1  0  0.01361  0.226171  0  3.959463  0
C  C40  1  0.97324960  0.67050002  0.64209108  1  0  0.013653  0.226294  0  3.959223  0
C  C41  1  0.52675139  0.35790561  0.32948403  1  0  0.013766  0.226319  0  3.959022  0
C  C42  1  0.02983589  0.11422077  0.60601423  1  0  0.043754  0.097312  0  3.985734  0
C  C43  1  0.47016448  0.39398613  0.88578173  1  0  0.043799  0.097342  0  3.985006  0
C  C44  1  0.97016092  0.88578215  0.39398694  1  0  0.043689  0.097124  0  3.985151  0
C  C45  1  0.52983614  0.60601902  0.11421274  1  0  0.043714  0.097163  0  3.985215  0
C  C46  1  0.09221605  0.40226204  0.19005421  1  0  -0.247605  -0.435449  0  3.916883  0
C  C47  1  0.40779528  0.80995557  0.59772544  1  0  -0.247665  -0.43541  0  3.916743  0
C  C48  1  0.90778777  0.59772600  0.80994701  1  0  -0.247553  -0.435191  0  3.91641  0
C  C49  1  0.59220684  0.19004160  0.40227263  1  0  -0.247639  -0.435427  0  3.916788  0
N  N50  1  0.89513155  0.19063134  0.67112188  1  0  -0.328267  -0.267546  0  3.502107  0
N  N51  1  0.60487260  0.32888405  0.80935760  1  0  -0.328246  -0.26757  0  3.502777  0
N  N52  1  0.10486937  0.80936469  0.32887697  1  0  -0.328142  -0.267362  0  3.502302  0
N  N53  1  0.39512048  0.67112332  0.19063216  1  0  -0.328252  -0.267573  0  3.502371  0
Cl  Cl54  1  0.50287507  0.00905100  0.17541460  1  0  -0.311151  -0.500072  0  1.234533  0
Cl  Cl55  1  0.99712771  0.82459072  0.99094381  1  0  -0.311172  -0.500097  0  1.234515  0
Cl  Cl56  1  0.49712067  0.99095764  0.82458596  1  0  -0.311164  -0.500084  0  1.234478  0
Cl  Cl57  1  0.00287716  0.17541444  0.00905089  1  0  -0.311139  -0.500065  0  1.234575  0
