# generated using pymatgen
data_HoH4(C3O4)2
_symmetry_space_group_name_H-M   'P 1'
_cell_length_a   6.73410107
_cell_length_b   7.13838129
_cell_length_c   16.69969908
_cell_angle_alpha   90.00001277
_cell_angle_beta   90.00014245
_cell_angle_gamma   100.22689610
_symmetry_Int_Tables_number   1
_chemical_formula_structural   HoH4(C3O4)2
_chemical_formula_sum   'Ho4 H16 C24 O32'
_cell_volume   790.01021876
_cell_formula_units_Z   4
loop_
 _symmetry_equiv_pos_site_id
 _symmetry_equiv_pos_as_xyz
  1  'x, y, z'
loop_
 _atom_site_type_symbol
 _atom_site_label
 _atom_site_symmetry_multiplicity
 _atom_site_fract_x
 _atom_site_fract_y
 _atom_site_fract_z
 _atom_site_occupancy
 _atom_site_hle17_bader_spin_density
 _atom_site_hle17_ddec_charge
 _atom_site_hle17_ddec_spin_density
 _atom_site_hle17_ddec_sum_bond_order
 _atom_site_hle17_magmom
 _atom_site_hse06_10hf_bader_spin_density
 _atom_site_hse06_10hf_ddec_charge
 _atom_site_hse06_10hf_ddec_spin_density
 _atom_site_hse06_10hf_ddec_sum_bond_order
 _atom_site_hse06_10hf_magmom
 _atom_site_hse06_bader_spin_density
 _atom_site_hse06_ddec_charge
 _atom_site_hse06_ddec_spin_density
 _atom_site_hse06_ddec_sum_bond_order
 _atom_site_hse06_magmom
 _atom_site_pbe_bader_spin_density
 _atom_site_pbe_cm5_charge
 _atom_site_pbe_ddec_charge
 _atom_site_pbe_ddec_spin_density
 _atom_site_pbe_ddec_sum_bond_order
 _atom_site_pbe_magmom
Ho  Ho0  1  0.46999317  0.21488462  0.58518744  1  0  2.26656  0  1.564418  0  0  2.201079  0  1.878677  0  0  2.247143  0  1.840238  0  0  1.518433  2.077364  0  2.070968  0
Ho  Ho1  1  0.03000369  0.78511530  0.08518661  1  0  2.266609  0  1.564382  0  0  2.201126  0  1.878629  0  0  2.247194  0  1.840192  0  0  1.518438  2.077395  0  2.070939  0
Ho  Ho2  1  0.53000391  0.78511522  0.41481316  1  0  2.266526  0  1.564428  0  0  2.201041  0  1.878682  0  0  2.247107  0  1.840246  0  0  1.518412  2.077297  0  2.071011  0
Ho  Ho3  1  0.96999692  0.21488736  0.91481339  1  0  2.266557  0  1.564405  0  0  2.201073  0  1.87866  0  0  2.247142  0  1.840222  0  0  1.518397  2.077364  0  2.070927  0
H  H4  1  0.21007549  0.45613727  0.68302860  1  0  0.436861  0  0.852326  0  0  0.407595  0  0.912734  0  0  0.417858  0  0.897695  0  0  0.301319  0.399535  0  0.92446  0
H  H5  1  0.28992320  0.54386138  0.18302922  1  0  0.436832  0  0.85234  0  0  0.407561  0  0.912775  0  0  0.417825  0  0.897734  0  0  0.301297  0.399499  0  0.924503  0
H  H6  1  0.78992130  0.54386115  0.31697020  1  0  0.436865  0  0.852284  0  0  0.407605  0  0.912709  0  0  0.417868  0  0.89767  0  0  0.301302  0.399548  0  0.924432  0
H  H7  1  0.71007832  0.45613842  0.81697079  1  0  0.436861  0  0.852316  0  0  0.407598  0  0.912723  0  0  0.417859  0  0.897687  0  0  0.301318  0.399537  0  0.924452  0
H  H8  1  0.17191554  0.24784023  0.72131130  1  0  0.446599  0  0.845193  0  0  0.416199  0  0.907717  0  0  0.427202  0  0.891307  0  0  0.304936  0.407867  0  0.919844  0
H  H9  1  0.32808396  0.75216132  0.22130957  1  0  0.446629  0  0.845151  0  0  0.416231  0  0.907673  0  0  0.427234  0  0.89126  0  0  0.304957  0.407898  0  0.919799  0
H  H10  1  0.82808301  0.75215959  0.27868811  1  0  0.446583  0  0.845212  0  0  0.416184  0  0.907734  0  0  0.427188  0  0.891321  0  0  0.304933  0.40785  0  0.919863  0
H  H11  1  0.67191636  0.24783992  0.77868983  1  0  0.446623  0  0.845159  0  0  0.416229  0  0.907674  0  0  0.427232  0  0.891263  0  0  0.304963  0.407899  0  0.919798  0
H  H12  1  0.13648915  0.88857264  0.62214964  1  0  0.433519  0  0.863833  0  0  0.399908  0  0.931538  0  0  0.410769  0  0.916083  0  0  0.298075  0.391803  0  0.942845  0
H  H13  1  0.36350914  0.11142590  0.12214909  1  0  0.433537  0  0.863807  0  0  0.399934  0  0.931496  0  0  0.410793  0  0.916045  0  0  0.298085  0.391827  0  0.942805  0
H  H14  1  0.86350735  0.11142436  0.37785096  1  0  0.43357  0  0.863773  0  0  0.399966  0  0.931469  0  0  0.410827  0  0.916015  0  0  0.298104  0.391859  0  0.942778  0
H  H15  1  0.63649061  0.88857249  0.87785031  1  0  0.43352  0  0.863834  0  0  0.399906  0  0.931544  0  0  0.410766  0  0.916092  0  0  0.298068  0.391799  0  0.942853  0
H  H16  1  0.03476960  0.06425724  0.58971903  1  0  0.450037  0  0.824581  0  0  0.422867  0  0.884616  0  0  0.433112  0  0.869528  0  0  0.313594  0.414766  0  0.896379  0
H  H17  1  0.46522700  0.93574127  0.08971806  1  0  0.45005  0  0.824479  0  0  0.422879  0  0.884578  0  0  0.433126  0  0.869487  0  0  0.313598  0.414777  0  0.896343  0
H  H18  1  0.96522543  0.93573977  0.41028157  1  0  0.450081  0  0.82454  0  0  0.422911  0  0.884557  0  0  0.433158  0  0.869468  0  0  0.313616  0.414809  0  0.896324  0
H  H19  1  0.53477275  0.06425712  0.91028134  1  0  0.450056  0  0.824466  0  0  0.422889  0  0.884561  0  0  0.433134  0  0.869473  0  0  0.313605  0.414784  0  0.896329  0
C  C20  1  0.58733917  0.91594605  0.69695241  1  0  0.18359  0  3.90549  0  0  0.156933  0  4.197261  0  0  0.168458  0  4.209406  0  0  0.093729  0.150212  0  4.181275  0
C  C21  1  0.91266257  0.08406043  0.19695191  1  0  0.183575  0  3.905431  0  0  0.156917  0  4.197193  0  0  0.168444  0  4.209332  0  0  0.093733  0.150194  0  4.18121  0
C  C22  1  0.41265910  0.08405236  0.30304819  1  0  0.183584  0  3.905566  0  0  0.156928  0  4.197302  0  0  0.168449  0  4.209452  0  0  0.093717  0.150205  0  4.181309  0
C  C23  1  0.08734304  0.91594503  0.80304749  1  0  0.183528  0  3.905519  0  0  0.156877  0  4.197261  0  0  0.168401  0  4.209405  0  0  0.093658  0.15015  0  4.18128  0
C  C24  1  0.58195178  0.81472673  0.62192770  1  0  0.207341  0  3.86867  0  0  0.18574  0  4.155766  0  0  0.198326  0  4.165939  0  0  0.104737  0.177516  0  4.138361  0
C  C25  1  0.91804686  0.18527394  0.12192901  1  0  0.207462  0  3.868472  0  0  0.185807  0  4.155659  0  0  0.198398  0  4.165827  0  0  0.104723  0.17758  0  4.138261  0
C  C26  1  0.41804945  0.18527164  0.37807290  1  0  0.207233  0  3.868932  0  0  0.185627  0  4.156016  0  0  0.198216  0  4.166191  0  0  0.104661  0.177407  0  4.138603  0
C  C27  1  0.08195375  0.81472871  0.87807099  1  0  0.207368  0  3.868619  0  0  0.18574  0  4.155746  0  0  0.198329  0  4.165916  0  0  0.10472  0.177522  0  4.138341  0
C  C28  1  0.62834381  0.64560262  0.66326619  1  0  0.262538  0  3.809306  0  0  0.241991  0  4.091425  0  0  0.257094  0  4.099932  0  0  0.128808  0.230681  0  4.082936  0
C  C29  1  0.87165989  0.35439237  0.16326807  1  0  0.262528  0  3.809208  0  0  0.241966  0  4.091353  0  0  0.257066  0  4.099858  0  0  0.128815  0.230654  0  4.082866  0
C  C30  1  0.37165799  0.35439860  0.33673441  1  0  0.262488  0  3.809528  0  0  0.241949  0  4.091598  0  0  0.257051  0  4.100106  0  0  0.12878  0.230635  0  4.083106  0
C  C31  1  0.12834460  0.64560739  0.83673313  1  0  0.262563  0  3.809308  0  0  0.242004  0  4.091434  0  0  0.257106  0  4.099939  0  0  0.128813  0.230686  0  4.082954  0
C  C32  1  0.63056164  0.74926953  0.74115203  1  0  0.212648  0  3.818205  0  0  0.187129  0  4.100047  0  0  0.200319  0  4.111686  0  0  0.115202  0.177075  0  4.094489  0
C  C33  1  0.86943247  0.25072712  0.24114970  1  0  0.21258  0  3.818302  0  0  0.187145  0  4.100045  0  0  0.200339  0  4.11168  0  0  0.115221  0.177092  0  4.094485  0
C  C34  1  0.36943395  0.25073033  0.25884977  1  0  0.212669  0  3.818475  0  0  0.187201  0  4.100209  0  0  0.20039  0  4.111849  0  0  0.115222  0.177151  0  4.094646  0
C  C35  1  0.13056700  0.74926985  0.75884910  1  0  0.212589  0  3.818423  0  0  0.187136  0  4.100155  0  0  0.200325  0  4.111794  0  0  0.115209  0.177085  0  4.094597  0
C  C36  1  0.92514597  0.37713451  0.52896690  1  0  0.222349  0  3.835062  0  0  0.199841  0  4.11769  0  0  0.213745  0  4.126803  0  0  0.114817  0.190244  0  4.10713  0
C  C37  1  0.57485207  0.62286602  0.02896970  1  0  0.222321  0  3.83497  0  0  0.199791  0  4.117665  0  0  0.213695  0  4.126774  0  0  0.11478  0.190197  0  4.107104  0
C  C38  1  0.07485731  0.62286670  0.47103131  1  0  0.222221  0  3.835074  0  0  0.199696  0  4.117743  0  0  0.213601  0  4.126856  0  0  0.114774  0.190103  0  4.107174  0
C  C39  1  0.42514501  0.37713382  0.97103150  1  0  0.222308  0  3.835037  0  0  0.199776  0  4.117744  0  0  0.213681  0  4.126852  0  0  0.114788  0.190183  0  4.107183  0
C  C40  1  0.13628194  0.45902574  0.51106319  1  0  0.238326  0  3.851286  0  0  0.218369  0  4.133214  0  0  0.23167  0  4.142174  0  0  0.121126  0.208845  0  4.120506  0
C  C41  1  0.36371535  0.54097120  0.01106388  1  0  0.238331  0  3.851236  0  0  0.218387  0  4.133174  0  0  0.231689  0  4.142129  0  0  0.121144  0.20886  0  4.120471  0
C  C42  1  0.86371838  0.54097549  0.48893621  1  0  0.238272  0  3.851216  0  0  0.218356  0  4.133093  0  0  0.231658  0  4.142049  0  0  0.121126  0.208834  0  4.120381  0
C  C43  1  0.63628320  0.45902863  0.98893612  1  0  0.238333  0  3.851147  0  0  0.218379  0  4.133105  0  0  0.231681  0  4.142058  0  0  0.121117  0.208851  0  4.120403  0
O  O44  1  0.54533134  0.08057355  0.70937054  1  0  -0.584213  0  2.127048  0  0  -0.537367  0  2.365125  0  0  -0.558672  0  2.359807  0  0  -0.355692  -0.511473  0  2.368919  0
O  O45  1  0.95466462  0.91942588  0.20937016  1  0  -0.584196  0  2.12692  0  0  -0.537348  0  2.364995  0  0  -0.558654  0  2.359675  0  0  -0.355683  -0.51145  0  2.368792  0
O  O46  1  0.45466129  0.91942634  0.29063006  1  0  -0.584183  0  2.127039  0  0  -0.537341  0  2.365116  0  0  -0.558644  0  2.359798  0  0  -0.355671  -0.511443  0  2.368909  0
O  O47  1  0.04534191  0.08057672  0.79062984  1  0  -0.584177  0  2.126912  0  0  -0.537328  0  2.36498  0  0  -0.558634  0  2.359661  0  0  -0.355655  -0.511434  0  2.368776  0
O  O48  1  0.53376367  0.87462827  0.55384562  1  0  -0.66657  0  2.209368  0  0  -0.632799  0  2.474185  0  0  -0.655162  0  2.470309  0  0  -0.383442  -0.59575  0  2.474913  0
O  O49  1  0.96624018  0.12537081  0.05384577  1  0  -0.666591  0  2.209182  0  0  -0.632809  0  2.474017  0  0  -0.655175  0  2.470147  0  0  -0.383433  -0.595766  0  2.474749  0
O  O50  1  0.46623580  0.12536869  0.44615319  1  0  -0.666486  0  2.209514  0  0  -0.632731  0  2.474348  0  0  -0.655089  0  2.470463  0  0  -0.383404  -0.595686  0  2.475074  0
O  O51  1  0.03376311  0.87463040  0.94615423  1  0  -0.666565  0  2.209272  0  0  -0.632792  0  2.474089  0  0  -0.655156  0  2.47022  0  0  -0.383436  -0.595746  0  2.474818  0
O  O52  1  0.64593044  0.47917698  0.64601438  1  0  -0.583801  0  2.227243  0  0  -0.548381  0  2.481094  0  0  -0.57026  0  2.477453  0  0  -0.379831  -0.521004  0  2.486935  0
O  O53  1  0.85406864  0.52082516  0.14601446  1  0  -0.583882  0  2.227038  0  0  -0.548449  0  2.480865  0  0  -0.570335  0  2.477235  0  0  -0.379872  -0.521069  0  2.486708  0
O  O54  1  0.35406874  0.52081856  0.35398562  1  0  -0.583741  0  2.227399  0  0  -0.54834  0  2.481246  0  0  -0.57022  0  2.477609  0  0  -0.379797  -0.520964  0  2.487092  0
O  O55  1  0.14593522  0.47917889  0.85398554  1  0  -0.583788  0  2.227115  0  0  -0.548386  0  2.480971  0  0  -0.57027  0  2.477337  0  0  -0.37981  -0.521001  0  2.486801  0
O  O56  1  0.64679257  0.70244299  0.81300722  1  0  -0.484198  0  2.071641  0  0  -0.426343  0  2.278243  0  0  -0.449558  0  2.278864  0  0  -0.270139  -0.411053  0  2.27964  0
O  O57  1  0.85320674  0.29755515  0.31300668  1  0  -0.484076  0  2.071532  0  0  -0.426291  0  2.278157  0  0  -0.449514  0  2.278778  0  0  -0.270107  -0.411  0  2.279551  0
O  O58  1  0.35320718  0.29755539  0.18699578  1  0  -0.484183  0  2.071845  0  0  -0.426364  0  2.278437  0  0  -0.449574  0  2.279049  0  0  -0.270133  -0.411073  0  2.279831  0
O  O59  1  0.14679182  0.70244468  0.68699332  1  0  -0.48409  0  2.071654  0  0  -0.426281  0  2.278252  0  0  -0.449499  0  2.278872  0  0  -0.270097  -0.41099  0  2.279647  0
O  O60  1  0.82918496  0.23008514  0.56296147  1  0  -0.578359  0  2.11338  0  0  -0.541315  0  2.354964  0  0  -0.562483  0  2.350051  0  0  -0.340064  -0.515695  0  2.359796  0
O  O61  1  0.67081479  0.76991543  0.06296318  1  0  -0.578404  0  2.113491  0  0  -0.541301  0  2.355001  0  0  -0.562466  0  2.350089  0  0  -0.340032  -0.515674  0  2.359827  0
O  O62  1  0.17081565  0.76991752  0.43703734  1  0  -0.578296  0  2.113487  0  0  -0.541222  0  2.355026  0  0  -0.562387  0  2.350115  0  0  -0.340001  -0.515599  0  2.359856  0
O  O63  1  0.32918377  0.23008440  0.93703682  1  0  -0.578418  0  2.113525  0  0  -0.541317  0  2.355039  0  0  -0.562483  0  2.35013  0  0  -0.340048  -0.515695  0  2.359865  0
O  O64  1  0.30752763  0.41705837  0.52240959  1  0  -0.623203  0  2.277402  0  0  -0.589631  0  2.542618  0  0  -0.61104  0  2.537101  0  0  -0.401257  -0.558076  0  2.543466  0
O  O65  1  0.19247151  0.58293999  0.02240891  1  0  -0.62324  0  2.277406  0  0  -0.589669  0  2.542616  0  0  -0.611076  0  2.537097  0  0  -0.401268  -0.558115  0  2.54347  0
O  O66  1  0.69247418  0.58294285  0.47758982  1  0  -0.623185  0  2.277442  0  0  -0.589612  0  2.542604  0  0  -0.61102  0  2.537089  0  0  -0.401263  -0.558055  0  2.543451  0
O  O67  1  0.80752762  0.41706268  0.97759109  1  0  -0.62321  0  2.277362  0  0  -0.589647  0  2.542596  0  0  -0.61105  0  2.537076  0  0  -0.401235  -0.558094  0  2.543447  0
O  O68  1  0.25146546  0.33028890  0.68093517  1  0  -0.928925  0  1.906434  0  0  -0.889481  0  2.096284  0  0  -0.907453  0  2.064378  0  0  -0.642539  -0.865969  0  2.125502  0
O  O69  1  0.24853618  0.66970970  0.18093335  1  0  -0.928916  0  1.906422  0  0  -0.889467  0  2.096274  0  0  -0.907451  0  2.064396  0  0  -0.642548  -0.865953  0  2.125494  0
O  O70  1  0.74853162  0.66971094  0.31906364  1  0  -0.928924  0  1.906431  0  0  -0.889464  0  2.096263  0  0  -0.907453  0  2.064393  0  0  -0.642524  -0.865951  0  2.125481  0
O  O71  1  0.75146859  0.33029149  0.81906485  1  0  -0.928947  0  1.906438  0  0  -0.889492  0  2.096257  0  0  -0.907483  0  2.064395  0  0  -0.64256  -0.86598  0  2.125473  0
O  O72  1  0.15692169  0.00593686  0.58817834  1  0  -0.911082  0  1.880121  0  0  -0.872332  0  2.071555  0  0  -0.891059  0  2.040249  0  0  -0.64181  -0.846882  0  2.101572  0
O  O73  1  0.34307695  0.99406448  0.08817785  1  0  -0.911102  0  1.880021  0  0  -0.87237  0  2.071507  0  0  -0.891099  0  2.04021  0  0  -0.641831  -0.846915  0  2.101527  0
O  O74  1  0.84307686  0.99406297  0.41182286  1  0  -0.911173  0  1.880063  0  0  -0.872431  0  2.071477  0  0  -0.891153  0  2.040161  0  0  -0.641857  -0.846976  0  2.101498  0
O  O75  1  0.65692309  0.00593533  0.91182275  1  0  -0.911096  0  1.880007  0  0  -0.872369  0  2.071517  0  0  -0.891096  0  2.04022  0  0  -0.641829  -0.846912  0  2.101536  0
