# generated using pymatgen
data_NaH5C3S(NO2)2
_symmetry_space_group_name_H-M   'P 1'
_cell_length_a   7.07102872
_cell_length_b   10.04262450
_cell_length_c   10.31645707
_cell_angle_alpha   115.80082587
_cell_angle_beta   89.99999055
_cell_angle_gamma   90.00003427
_symmetry_Int_Tables_number   1
_chemical_formula_structural   NaH5C3S(NO2)2
_chemical_formula_sum   'Na4 H20 C12 S4 N8 O16'
_cell_volume   659.55904451
_cell_formula_units_Z   4
loop_
 _symmetry_equiv_pos_site_id
 _symmetry_equiv_pos_as_xyz
  1  'x, y, z'
loop_
 _atom_site_type_symbol
 _atom_site_label
 _atom_site_symmetry_multiplicity
 _atom_site_fract_x
 _atom_site_fract_y
 _atom_site_fract_z
 _atom_site_occupancy
 _atom_site_hle17_bader_spin_density
 _atom_site_hle17_ddec_charge
 _atom_site_hle17_ddec_spin_density
 _atom_site_hle17_ddec_sum_bond_order
 _atom_site_hle17_magmom
 _atom_site_hse06_10hf_bader_spin_density
 _atom_site_hse06_10hf_ddec_charge
 _atom_site_hse06_10hf_ddec_spin_density
 _atom_site_hse06_10hf_ddec_sum_bond_order
 _atom_site_hse06_10hf_magmom
 _atom_site_hse06_bader_spin_density
 _atom_site_hse06_ddec_charge
 _atom_site_hse06_ddec_spin_density
 _atom_site_hse06_ddec_sum_bond_order
 _atom_site_hse06_magmom
 _atom_site_pbe_bader_spin_density
 _atom_site_pbe_cm5_charge
 _atom_site_pbe_ddec_charge
 _atom_site_pbe_ddec_spin_density
 _atom_site_pbe_ddec_sum_bond_order
 _atom_site_pbe_magmom
Na  Na0  1  0.48152829  0.26610060  0.50649983  1  0  0.911895  0  0.370964  0  0  0.875999  0  0.516405  0  0  0.884376  0  0.496239  0  0  0.67544  0.869164  0  0.531995  0
Na  Na1  1  0.98152766  0.23390056  0.49350037  1  0  0.911892  0  0.370967  0  0  0.875994  0  0.516414  0  0  0.884368  0  0.496251  0  0  0.675435  0.86916  0  0.532005  0
Na  Na2  1  0.51847219  0.73389982  0.49349953  1  0  0.911892  0  0.370964  0  0  0.876008  0  0.516405  0  0  0.88438  0  0.496237  0  0  0.675444  0.869168  0  0.531991  0
Na  Na3  1  0.01847141  0.76609987  0.50649997  1  0  0.911896  0  0.370964  0  0  0.875995  0  0.51642  0  0  0.88437  0  0.496254  0  0  0.675441  0.869159  0  0.532009  0
H  H4  1  0.74133909  0.05827125  0.23715947  1  0  0.392276  0  0.922162  0  0  0.354101  0  0.999863  0  0  0.36442  0  0.984762  0  0  0.28359  0.345979  0  1.011711  0
H  H5  1  0.24133839  0.44172759  0.76284074  1  0  0.392274  0  0.922171  0  0  0.354097  0  0.999875  0  0  0.364416  0  0.984774  0  0  0.283586  0.345976  0  1.011722  0
H  H6  1  0.25866140  0.94172696  0.76284089  1  0  0.392298  0  0.922134  0  0  0.354125  0  0.999832  0  0  0.364445  0  0.984729  0  0  0.283619  0.346005  0  1.011678  0
H  H7  1  0.75866210  0.55827062  0.23715963  1  0  0.392258  0  0.922188  0  0  0.354083  0  0.99989  0  0  0.364403  0  0.984787  0  0  0.283586  0.345962  0  1.011737  0
H  H8  1  0.66988311  0.99604078  0.34461393  1  0  0.424442  0  0.860434  0  0  0.398823  0  0.920866  0  0  0.40802  0  0.907181  0  0  0.301202  0.391942  0  0.931229  0
H  H9  1  0.16988489  0.50396008  0.65538702  1  0  0.424436  0  0.860457  0  0  0.398821  0  0.920871  0  0  0.408015  0  0.907191  0  0  0.301201  0.391939  0  0.931233  0
H  H10  1  0.33011455  0.00395964  0.65538737  1  0  0.424426  0  0.86047  0  0  0.39881  0  0.920885  0  0  0.408007  0  0.907202  0  0  0.301198  0.391931  0  0.931245  0
H  H11  1  0.83011701  0.49604034  0.34461331  1  0  0.42444  0  0.86041  0  0  0.398823  0  0.92086  0  0  0.408021  0  0.907173  0  0  0.301201  0.391941  0  0.931223  0
H  H12  1  0.03580245  0.27347918  0.82472049  1  0  0.303707  0  0.925854  0  0  0.284899  0  0.985198  0  0  0.292919  0  0.979211  0  0  0.325734  0.279262  0  0.98945  0
H  H13  1  0.53580330  0.22651956  0.17527874  1  0  0.303733  0  0.925789  0  0  0.28492  0  0.985172  0  0  0.292944  0  0.979175  0  0  0.325729  0.279282  0  0.989425  0
H  H14  1  0.96419662  0.72651903  0.17527891  1  0  0.303738  0  0.925789  0  0  0.28492  0  0.985171  0  0  0.292943  0  0.979175  0  0  0.325724  0.279282  0  0.989426  0
H  H15  1  0.46419860  0.77347865  0.82472066  1  0  0.303731  0  0.925798  0  0  0.284899  0  0.985195  0  0  0.292922  0  0.9792  0  0  0.32571  0.279261  0  0.989449  0
H  H16  1  0.98327710  0.22705868  0.04406940  1  0  0.103393  0  0.996285  0  0  0.113226  0  1.06194  0  0  0.114981  0  1.061358  0  0  0.124563  0.111871  0  1.062531  0
H  H17  1  0.48328046  0.27294249  0.95593274  1  0  0.10334  0  0.996365  0  0  0.113231  0  1.061945  0  0  0.114983  0  1.061364  0  0  0.124562  0.111875  0  1.062536  0
H  H18  1  0.01672055  0.77294286  0.95593237  1  0  0.10336  0  0.996336  0  0  0.11324  0  1.061928  0  0  0.114995  0  1.061346  0  0  0.124563  0.111886  0  1.062518  0
H  H19  1  0.51672285  0.72705905  0.04407001  1  0  0.103392  0  0.996306  0  0  0.113228  0  1.061953  0  0  0.114984  0  1.06137  0  0  0.12457  0.111874  0  1.062543  0
H  H20  1  0.39215250  0.57649157  0.12552521  1  0  0.104344  0  0.963727  0  0  0.110741  0  1.033652  0  0  0.113398  0  1.03113  0  0  0.12344  0.10887  0  1.035488  0
H  H21  1  0.89215194  0.92350939  0.87447479  1  0  0.104326  0  0.963816  0  0  0.110749  0  1.033707  0  0  0.113407  0  1.031183  0  0  0.123427  0.108877  0  1.035542  0
H  H22  1  0.60784657  0.42350996  0.87447559  1  0  0.104385  0  0.963826  0  0  0.110812  0  1.033691  0  0  0.113472  0  1.031164  0  0  0.123456  0.108941  0  1.035526  0
H  H23  1  0.10784854  0.07649103  0.12552458  1  0  0.104274  0  0.963815  0  0  0.110703  0  1.03371  0  0  0.113361  0  1.031182  0  0  0.123413  0.108832  0  1.035545  0
C  C24  1  0.08213810  0.30748085  0.04040443  1  0  0.063755  0  3.671102  0  0  -0.000921  0  3.943592  0  0  0.010031  0  3.957464  0  0  0.028451  -0.007894  0  3.934535  0
C  C25  1  0.58214016  0.19252234  0.95959668  1  0  0.063724  0  3.671134  0  0  -0.000955  0  3.943629  0  0  0.01  0  3.957503  0  0  0.028443  -0.007928  0  3.934574  0
C  C26  1  0.91785955  0.69252179  0.95959781  1  0  0.063711  0  3.671146  0  0  -0.000967  0  3.943622  0  0  0.009987  0  3.957494  0  0  0.02846  -0.007941  0  3.934564  0
C  C27  1  0.41786457  0.80748140  0.04040603  1  0  0.063775  0  3.671047  0  0  -0.000893  0  3.943522  0  0  0.010059  0  3.957394  0  0  0.028454  -0.007866  0  3.934465  0
C  C28  1  0.19943931  0.40820506  0.14577473  1  0  -0.266921  0  3.79373  0  0  -0.239352  0  4.062118  0  0  -0.252732  0  4.082133  0  0  -0.044712  -0.230777  0  4.0488  0
C  C29  1  0.69944130  0.09179707  0.85422495  1  0  -0.26692  0  3.793608  0  0  -0.239409  0  4.062095  0  0  -0.252787  0  4.082097  0  0  -0.044702  -0.230837  0  4.048783  0
C  C30  1  0.80055834  0.59179757  0.85422557  1  0  -0.266908  0  3.793631  0  0  -0.239389  0  4.062105  0  0  -0.252762  0  4.082106  0  0  -0.044728  -0.230814  0  4.048793  0
C  C31  1  0.30056059  0.90820556  0.14577536  1  0  -0.267006  0  3.793734  0  0  -0.23945  0  4.062159  0  0  -0.252832  0  4.082171  0  0  -0.044718  -0.230875  0  4.04884  0
C  C32  1  0.28991275  0.48767996  0.07928021  1  0  0.043026  0  3.713325  0  0  -0.007886  0  3.997734  0  0  0.000628  0  4.010747  0  0  0.022569  -0.013325  0  3.98892  0
C  C33  1  0.78990900  0.01231779  0.92071856  1  0  0.043057  0  3.713446  0  0  -0.007874  0  3.997863  0  0  0.00065  0  4.010857  0  0  0.02259  -0.013316  0  3.989057  0
C  C34  1  0.71009056  0.51231825  0.92071821  1  0  0.042952  0  3.713443  0  0  -0.007987  0  3.997866  0  0  0.000533  0  4.010865  0  0  0.022555  -0.013427  0  3.989055  0
C  C35  1  0.21008582  0.98767932  0.07927940  1  0  0.043169  0  3.713337  0  0  -0.00776  0  3.997712  0  0  0.000757  0  4.010719  0  0  0.022605  -0.013199  0  3.988894  0
S  S36  1  0.22516257  0.42151756  0.31980622  1  0  1.368671  0  5.6943  0  0  1.278303  0  6.202965  0  0  1.32599  0  6.178154  0  0  0.524171  1.244844  0  6.219902  0
S  S37  1  0.72516742  0.07848459  0.68019443  1  0  1.368812  0  5.69408  0  0  1.278451  0  6.202758  0  0  1.326141  0  6.177945  0  0  0.524236  1.244995  0  6.219699  0
S  S38  1  0.77483226  0.57848397  0.68019362  1  0  1.368797  0  5.694101  0  0  1.278431  0  6.202777  0  0  1.32612  0  6.177968  0  0  0.524223  1.244972  0  6.219718  0
S  S39  1  0.27483731  0.92151805  0.31980587  1  0  1.368637  0  5.694302  0  0  1.278269  0  6.202968  0  0  1.325958  0  6.178155  0  0  0.524153  1.244811  0  6.219906  0
N  N40  1  0.23346115  0.43740168  0.94163514  1  0  -0.234905  0  2.977065  0  0  -0.201255  0  3.244711  0  0  -0.210123  0  3.259429  0  0  -0.225626  -0.19462  0  3.23519  0
N  N41  1  0.73346048  0.06259715  0.05836313  1  0  -0.234966  0  2.977176  0  0  -0.201282  0  3.244819  0  0  -0.21015  0  3.25954  0  0  -0.225636  -0.194647  0  3.235296  0
N  N42  1  0.76653933  0.56259763  0.05836376  1  0  -0.234895  0  2.977051  0  0  -0.201218  0  3.244685  0  0  -0.210085  0  3.259406  0  0  -0.225604  -0.194582  0  3.235164  0
N  N43  1  0.26653717  0.93740106  0.94163433  1  0  -0.234957  0  2.977118  0  0  -0.201311  0  3.244769  0  0  -0.210179  0  3.259489  0  0  -0.225633  -0.194675  0  3.235247  0
N  N44  1  0.10824029  0.32777830  0.92122123  1  0  -0.148971  0  3.480665  0  0  -0.081118  0  3.710828  0  0  -0.094191  0  3.729204  0  0  -0.273366  -0.072483  0  3.698581  0
N  N45  1  0.60824112  0.17222269  0.07877991  1  0  -0.148868  0  3.480544  0  0  -0.081073  0  3.710764  0  0  -0.094147  0  3.72914  0  0  -0.273339  -0.072438  0  3.698518  0
N  N46  1  0.89176019  0.67222213  0.07877911  1  0  -0.148899  0  3.480596  0  0  -0.081079  0  3.710786  0  0  -0.094152  0  3.729162  0  0  -0.273352  -0.072444  0  3.69854  0
N  N47  1  0.39176078  0.82777884  0.92122089  1  0  -0.148945  0  3.480589  0  0  -0.081077  0  3.710723  0  0  -0.094151  0  3.729103  0  0  -0.273338  -0.072442  0  3.698476  0
O  O48  1  0.39179599  0.33240718  0.31895518  1  0  -0.720193  0  1.99149  0  0  -0.675504  0  2.245638  0  0  -0.69517  0  2.229273  0  0  -0.38258  -0.66112  0  2.256904  0
O  O49  1  0.89180658  0.16758841  0.68104461  1  0  -0.720226  0  1.991475  0  0  -0.675521  0  2.245559  0  0  -0.695185  0  2.229193  0  0  -0.382559  -0.661142  0  2.256841  0
O  O50  1  0.60819318  0.66758882  0.68104425  1  0  -0.720246  0  1.991461  0  0  -0.675524  0  2.245531  0  0  -0.69519  0  2.229164  0  0  -0.382569  -0.661143  0  2.256807  0
O  O51  1  0.10820381  0.83240759  0.31895482  1  0  -0.720176  0  1.991495  0  0  -0.675479  0  2.24563  0  0  -0.695145  0  2.229265  0  0  -0.382567  -0.661096  0  2.256898  0
O  O52  1  0.25385293  0.57883966  0.41460474  1  0  -0.751089  0  1.985841  0  0  -0.708507  0  2.250279  0  0  -0.727023  0  2.232315  0  0  -0.445284  -0.694832  0  2.262672  0
O  O53  1  0.75385244  0.92116013  0.58539672  1  0  -0.751119  0  1.985684  0  0  -0.708534  0  2.250102  0  0  -0.727053  0  2.232139  0  0  -0.445349  -0.694859  0  2.262498  0
O  O54  1  0.74614614  0.42116076  0.58539656  1  0  -0.751111  0  1.98574  0  0  -0.708518  0  2.250142  0  0  -0.72704  0  2.232183  0  0  -0.445324  -0.694847  0  2.262541  0
O  O55  1  0.24614663  0.07884029  0.41460556  1  0  -0.751097  0  1.985821  0  0  -0.708504  0  2.250239  0  0  -0.727022  0  2.232277  0  0  -0.445289  -0.694832  0  2.262636  0
O  O56  1  0.04815576  0.36030327  0.34609424  1  0  -0.710626  0  1.941197  0  0  -0.659496  0  2.186249  0  0  -0.679727  0  2.171331  0  0  -0.376524  -0.644507  0  2.197074  0
O  O57  1  0.54816067  0.13969769  0.65390593  1  0  -0.710692  0  1.941254  0  0  -0.65952  0  2.186236  0  0  -0.679752  0  2.171314  0  0  -0.376514  -0.644528  0  2.197062  0
O  O58  1  0.95183906  0.63969826  0.65390560  1  0  -0.710698  0  1.941248  0  0  -0.659528  0  2.186233  0  0  -0.67976  0  2.171314  0  0  -0.376523  -0.644537  0  2.197061  0
O  O59  1  0.45184547  0.86030494  0.34609438  1  0  -0.710612  0  1.941203  0  0  -0.659494  0  2.186274  0  0  -0.679723  0  2.171353  0  0  -0.376521  -0.644501  0  2.197097  0
O  O60  1  0.72776256  0.08321999  0.34105221  1  0  -0.882805  0  1.773056  0  0  -0.842079  0  1.946337  0  0  -0.855829  0  1.914061  0  0  -0.661093  -0.832396  0  1.971218  0
O  O61  1  0.22776187  0.41677994  0.65894847  1  0  -0.882793  0  1.773107  0  0  -0.842078  0  1.946376  0  0  -0.855829  0  1.914096  0  0  -0.661087  -0.832395  0  1.971255  0
O  O62  1  0.27223934  0.91677932  0.65894766  1  0  -0.882799  0  1.773076  0  0  -0.842085  0  1.946342  0  0  -0.855839  0  1.914061  0  0  -0.661118  -0.832402  0  1.971219  0
O  O63  1  0.77223862  0.58322048  0.34105186  1  0  -0.882794  0  1.773061  0  0  -0.842074  0  1.946363  0  0  -0.855825  0  1.914083  0  0  -0.66109  -0.83239  0  1.971241  0
