# generated using pymatgen
data_ZnH6(CN2)4
_symmetry_space_group_name_H-M   'P 1'
_cell_length_a   10.34459503
_cell_length_b   10.34450076
_cell_length_c   11.47826119
_cell_angle_alpha   90.00082876
_cell_angle_beta   90.00030681
_cell_angle_gamma   90.00676624
_symmetry_Int_Tables_number   1
_chemical_formula_structural   ZnH6(CN2)4
_chemical_formula_sum   'Zn4 H24 C16 N32'
_cell_volume   1228.28494548
_cell_formula_units_Z   4
loop_
 _symmetry_equiv_pos_site_id
 _symmetry_equiv_pos_as_xyz
  1  'x, y, z'
loop_
 _atom_site_type_symbol
 _atom_site_label
 _atom_site_symmetry_multiplicity
 _atom_site_fract_x
 _atom_site_fract_y
 _atom_site_fract_z
 _atom_site_occupancy
 _atom_site_pbe_bader_charge
 _atom_site_pbe_bader_spin_density
 _atom_site_pbe_cm5_charge
 _atom_site_pbe_ddec_charge
 _atom_site_pbe_ddec_spin_density
 _atom_site_pbe_ddec_sum_bond_order
 _atom_site_pbe_magmom
Zn  Zn0  1  0.68841531  0.68840191  0.49998878  1  1.189217  0  0.734035  0.662484  0  2.558247  0
Zn  Zn1  1  0.31158840  0.31158728  0.00000293  1  1.189134  0  0.733892  0.662387  0  2.558019  0
Zn  Zn2  1  0.81153301  0.18845476  0.75001076  1  1.191382  0  0.733966  0.662727  0  2.558359  0
Zn  Zn3  1  0.18846195  0.81153358  0.25000268  1  1.191199  0  0.734044  0.662654  0  2.558636  0
H  H4  1  0.57552887  0.41290260  0.42859287  1  0.105803  0  0.132887  0.09631  0  0.984356  0
H  H5  1  0.91164949  0.47001939  0.76536955  1  0.462999  0  0.296859  0.301883  0  0.980126  0
H  H6  1  0.85502489  0.61370926  0.70899388  1  0.513076  0  0.281238  0.27626  0  1.067608  0
H  H7  1  0.42449091  0.58709715  0.92860011  1  0.105925  0  0.132829  0.096105  0  0.984305  0
H  H8  1  0.08834787  0.52999167  0.26536371  1  0.463005  0  0.29689  0.301936  0  0.980084  0
H  H9  1  0.14497461  0.38630099  0.20899146  1  0.513205  0  0.281293  0.276329  0  1.067616  0
H  H10  1  0.08708531  0.07522882  0.67861259  1  0.105888  0  0.132926  0.096096  0  0.984569  0
H  H11  1  0.03009472  0.41134953  0.01543689  1  0.46383  0  0.296842  0.301826  0  0.979923  0
H  H12  1  0.88647446  0.35479831  0.95892254  1  0.514379  0  0.281229  0.276029  0  1.067958  0
H  H13  1  0.91291712  0.92476308  0.17859873  1  0.105726  0  0.133004  0.096235  0  0.984525  0
H  H14  1  0.96990270  0.58865561  0.51543494  1  0.463769  0  0.296824  0.301856  0  0.979913  0
H  H15  1  0.11353465  0.64521013  0.45891900  1  0.514337  0  0.281137  0.275945  0  1.067932  0
H  H16  1  0.92473339  0.91292310  0.82140593  1  0.106037  0  0.132922  0.096086  0  0.984511  0
H  H17  1  0.58866463  0.96990173  0.48454913  1  0.46427  0  0.296881  0.301864  0  0.980059  0
H  H18  1  0.64520965  0.11351530  0.54107880  1  0.514563  0  0.281152  0.275918  0  1.067878  0
H  H19  1  0.07524249  0.08707618  0.32139830  1  0.105904  0  0.132975  0.096202  0  0.98459  0
H  H20  1  0.41133463  0.03010655  0.98455801  1  0.464421  0  0.29685  0.301859  0  0.980051  0
H  H21  1  0.35479049  0.88647518  0.04107867  1  0.514455  0  0.281175  0.276028  0  1.067874  0
H  H22  1  0.41291149  0.57551278  0.57138407  1  0.106043  0  0.132876  0.096237  0  0.98438  0
H  H23  1  0.47001545  0.91166499  0.23463238  1  0.462925  0  0.296821  0.30183  0  0.980096  0
H  H24  1  0.61370987  0.85504015  0.29100043  1  0.513089  0  0.281214  0.27626  0  1.067525  0
H  H25  1  0.58710118  0.42446706  0.07140540  1  0.105872  0  0.132878  0.096278  0  0.98449  0
H  H26  1  0.52998290  0.08834510  0.73463948  1  0.463068  0  0.296891  0.301906  0  0.980146  0
H  H27  1  0.38629311  0.14496398  0.79100889  1  0.513135  0  0.281244  0.27627  0  1.06766  0
C  C28  1  0.78685511  0.44899853  0.62924448  1  1.510824  0  0.315705  0.519295  0  4.104285  0
C  C29  1  0.64594566  0.40242185  0.49808369  1  1.015049  0  0.123514  0.122925  0  4.081692  0
C  C30  1  0.21315257  0.55099955  0.12925417  1  1.51069  0  0.315638  0.519258  0  4.10419  0
C  C31  1  0.35406368  0.59758975  0.99809115  1  1.01501  0  0.12371  0.123477  0  4.081097  0
C  C32  1  0.05115043  0.28669976  0.87916247  1  1.513316  0  0.31536  0.51845  0  4.105201  0
C  C33  1  0.09758901  0.14572485  0.74803420  1  1.012226  0  0.123636  0.124041  0  4.079906  0
C  C34  1  0.94884559  0.71332261  0.37916014  1  1.512602  0  0.315305  0.518377  0  4.104654  0
C  C35  1  0.90242039  0.85427986  0.24803004  1  1.012783  0  0.123428  0.123742  0  4.080311  0
C  C36  1  0.71330711  0.94882967  0.62083449  1  1.512568  0  0.315298  0.518324  0  4.105038  0
C  C37  1  0.85426965  0.90240912  0.75196999  1  1.012638  0  0.12361  0.124014  0  4.080097  0
C  C38  1  0.28668485  0.05116138  0.12083843  1  1.512759  0  0.315271  0.518255  0  4.104986  0
C  C39  1  0.14572440  0.09759959  0.25197436  1  1.012554  0  0.12357  0.123815  0  4.08021  0
C  C40  1  0.44900228  0.78686652  0.37075068  1  1.510137  0  0.31566  0.519331  0  4.103528  0
C  C41  1  0.40243012  0.64594283  0.50190239  1  1.015043  0  0.123534  0.123089  0  4.081702  0
C  C42  1  0.55099058  0.21312948  0.87076973  1  1.510086  0  0.315706  0.519606  0  4.104168  0
C  C43  1  0.59757848  0.35404835  0.00191830  1  1.015547  0  0.123557  0.123029  0  4.081916  0
N  N44  1  0.70875496  0.50500368  0.54807687  1  -1.274463  0  -0.385858  -0.42978  0  3.50801  0
N  N45  1  0.77115188  0.31978082  0.62795865  1  -0.835637  0  -0.29383  -0.329951  0  3.481884  0
N  N46  1  0.67995958  0.29052432  0.54323135  1  -0.788422  0  -0.249692  -0.228302  0  3.320747  0
N  N47  1  0.87394180  0.51616416  0.69474330  1  -1.304249  0  -0.587828  -0.659886  0  3.312367  0
N  N48  1  0.29125313  0.49500152  0.04808011  1  -1.273992  0  -0.385928  -0.429993  0  3.507781  0
N  N49  1  0.22884126  0.68022108  0.12795423  1  -0.835684  0  -0.293876  -0.329961  0  3.481941  0
N  N50  1  0.32003870  0.70948653  0.04323601  1  -0.788616  0  -0.249724  -0.228468  0  3.32061  0
N  N51  1  0.12605242  0.48383307  0.19474557  1  -1.304395  0  -0.587859  -0.659925  0  3.312249  0
N  N52  1  0.99504754  0.20855528  0.79808547  1  -1.275041  0  -0.385965  -0.430252  0  3.506992  0
N  N53  1  0.18036023  0.27094204  0.87783898  1  -0.837908  0  -0.293699  -0.3295  0  3.481051  0
N  N54  1  0.20952284  0.17971365  0.79313949  1  -0.78843  0  -0.249435  -0.228526  0  3.321219  0
N  N55  1  0.98399049  0.37368728  0.94474893  1  -1.303532  0  -0.587763  -0.659383  0  3.313299  0
N  N56  1  0.00495276  0.79144327  0.29806188  1  -1.27508  0  -0.385869  -0.430087  0  3.507202  0
N  N57  1  0.81962705  0.72905805  0.37783427  1  -0.837475  0  -0.293764  -0.329547  0  3.481791  0
N  N58  1  0.79049664  0.82027411  0.29314225  1  -0.788926  0  -0.249409  -0.228476  0  3.321987  0
N  N59  1  0.01600465  0.62630525  0.44474076  1  -1.303094  0  -0.587633  -0.659359  0  3.31285  0
N  N60  1  0.79143557  0.00494794  0.70192432  1  -1.274888  0  -0.385961  -0.430232  0  3.507072  0
N  N61  1  0.72906286  0.81961345  0.62215684  1  -0.837682  0  -0.293686  -0.329578  0  3.481424  0
N  N62  1  0.82028242  0.79048241  0.70685973  1  -0.78888  0  -0.249461  -0.228453  0  3.321686  0
N  N63  1  0.62630436  0.01599056  0.55525092  1  -1.30388  0  -0.587761  -0.659293  0  3.313094  0
N  N64  1  0.20855404  0.99505146  0.20192648  1  -1.274755  0  -0.385933  -0.430105  0  3.506711  0
N  N65  1  0.27093108  0.18037571  0.12216544  1  -0.837682  0  -0.293709  -0.329445  0  3.481395  0
N  N66  1  0.17971314  0.20952100  0.20686451  1  -0.789143  0  -0.249461  -0.228489  0  3.321857  0
N  N67  1  0.37368849  0.98400229  0.05525056  1  -1.303858  0  -0.587722  -0.659432  0  3.31307  0
N  N68  1  0.50501405  0.70874319  0.45191235  1  -1.274148  0  -0.385937  -0.429985  0  3.507756  0
N  N69  1  0.31978054  0.77116404  0.37204454  1  -0.835667  0  -0.293897  -0.330087  0  3.481928  0
N  N70  1  0.29053747  0.67997085  0.45676315  1  -0.788191  0  -0.249604  -0.228156  0  3.320857  0
N  N71  1  0.51616795  0.87395871  0.30525247  1  -1.304087  0  -0.587746  -0.6598  0  3.311944  0
N  N72  1  0.49499291  0.29124667  0.95191836  1  -1.274457  0  -0.385906  -0.430023  0  3.508132  0
N  N73  1  0.68020269  0.22883780  0.87205030  1  -0.835335  0  -0.293856  -0.330254  0  3.482042  0
N  N74  1  0.70947737  0.32003075  0.95678157  1  -0.78877  0  -0.249644  -0.228154  0  3.320499  0
N  N75  1  0.48383256  0.12605070  0.80525507  1  -1.304113  0  -0.587858  -0.659943  0  3.312293  0
