# generated using pymatgen
data_ZnH10C12I2(N2O)2
_symmetry_space_group_name_H-M   'P 1'
_cell_length_a   7.09510976
_cell_length_b   13.32635775
_cell_length_c   23.62572853
_cell_angle_alpha   89.99718586
_cell_angle_beta   85.96896458
_cell_angle_gamma   89.99813601
_symmetry_Int_Tables_number   1
_chemical_formula_structural   ZnH10C12I2(N2O)2
_chemical_formula_sum   'Zn4 H40 C48 I8 N16 O8'
_cell_volume   2228.33289303
_cell_formula_units_Z   4
loop_
 _symmetry_equiv_pos_site_id
 _symmetry_equiv_pos_as_xyz
  1  'x, y, z'
loop_
 _atom_site_type_symbol
 _atom_site_label
 _atom_site_symmetry_multiplicity
 _atom_site_fract_x
 _atom_site_fract_y
 _atom_site_fract_z
 _atom_site_occupancy
 _atom_site_pbe_bader_charge
 _atom_site_pbe_bader_spin_density
 _atom_site_pbe_cm5_charge
 _atom_site_pbe_ddec_charge
 _atom_site_pbe_ddec_spin_density
 _atom_site_pbe_ddec_sum_bond_order
 _atom_site_pbe_magmom
Zn  Zn0  1  0.60644992  0.14289097  0.21175562  1  0.893447  0  0.443105  0.457691  0  2.774778  0
Zn  Zn1  1  0.89351963  0.64289102  0.28824572  1  0.893192  0  0.443064  0.457517  0  2.774977  0
Zn  Zn2  1  0.39359256  0.85711466  0.78824686  1  0.893547  0  0.443157  0.457745  0  2.774884  0
Zn  Zn3  1  0.10647185  0.35711386  0.71175062  1  0.893336  0  0.443105  0.457539  0  2.7749  0
H  H4  1  0.95602901  0.29455220  0.02168223  1  0.48265  0  0.33195  0.295936  0  0.913791  0
H  H5  1  0.54396301  0.79455423  0.47831461  1  0.482689  0  0.331947  0.295956  0  0.913785  0
H  H6  1  0.04396263  0.70544442  0.97831326  1  0.482393  0  0.33193  0.295967  0  0.913892  0
H  H7  1  0.45602108  0.20544240  0.52169108  1  0.482422  0  0.331974  0.296031  0  0.913767  0
H  H8  1  0.37668134  0.47532208  0.95383199  1  0.514282  0  0.319992  0.279369  0  0.951925  0
H  H9  1  0.12329029  0.97532438  0.54616768  1  0.513998  0  0.320006  0.279383  0  0.952159  0
H  H10  1  0.62332268  0.52466930  0.04616515  1  0.514172  0  0.320024  0.279324  0  0.951978  0
H  H11  1  0.87668815  0.02466174  0.45383804  1  0.513994  0  0.320071  0.279478  0  0.952069  0
H  H12  1  0.80529680  0.31235152  0.26377813  1  0.115343  0  0.116252  0.095035  0  0.991491  0
H  H13  1  0.69465341  0.81234979  0.23621513  1  0.115476  0  0.11621  0.094854  0  0.991644  0
H  H14  1  0.19474780  0.68768113  0.73622053  1  0.11521  0  0.116122  0.094942  0  0.991456  0
H  H15  1  0.30533946  0.18765284  0.76378883  1  0.115301  0  0.116222  0.094907  0  0.991509  0
H  H16  1  0.03478290  0.44694992  0.23411728  1  0.126213  0  0.1009  0.10893  0  1.030981  0
H  H17  1  0.46516317  0.94694568  0.26587166  1  0.126191  0  0.100919  0.108982  0  1.030888  0
H  H18  1  0.96523794  0.55308648  0.76586536  1  0.126704  0  0.100761  0.108823  0  1.030962  0
H  H19  1  0.53483769  0.05305996  0.73413481  1  0.126097  0  0.100899  0.109046  0  1.030794  0
H  H20  1  0.13772642  0.46656188  0.13087874  1  0.138107  0  0.114118  0.129896  0  1.015826  0
H  H21  1  0.36222924  0.96656199  0.36910975  1  0.137541  0  0.114143  0.129889  0  1.016013  0
H  H22  1  0.86229167  0.53343925  0.86910349  1  0.137834  0  0.114114  0.129983  0  1.01585  0
H  H23  1  0.63775171  0.03343013  0.63089765  1  0.137264  0  0.114178  0.129954  0  1.016003  0
H  H24  1  0.79185266  0.20701935  0.09883021  1  0.125953  0  0.110269  0.095891  0  1.020491  0
H  H25  1  0.70811592  0.70701899  0.40116812  1  0.126034  0  0.110297  0.095895  0  1.020516  0
H  H26  1  0.20814702  0.79298177  0.90117500  1  0.125802  0  0.110266  0.095819  0  1.020593  0
H  H27  1  0.29187319  0.29297238  0.59883331  1  0.126161  0  0.110332  0.095978  0  1.020411  0
H  H28  1  0.54768112  0.55884523  0.88276657  1  0.115021  0  0.110381  0.121567  0  1.019365  0
H  H29  1  0.95233091  0.05887075  0.61723927  1  0.115835  0  0.11038  0.121578  0  1.019338  0
H  H30  1  0.45230581  0.44115590  0.11723148  1  0.114747  0  0.110384  0.121602  0  1.019253  0
H  H31  1  0.04765068  0.94111237  0.38276474  1  0.115157  0  0.110403  0.121734  0  1.019232  0
H  H32  1  0.62160790  0.58684753  0.77812002  1  0.113525  0  0.094876  0.110266  0  1.049127  0
H  H33  1  0.87844537  0.08687551  0.72188549  1  0.112049  0  0.094805  0.110105  0  1.049206  0
H  H34  1  0.37838883  0.41314985  0.22187842  1  0.113427  0  0.094921  0.110327  0  1.049144  0
H  H35  1  0.12156020  0.91312337  0.27811841  1  0.112071  0  0.094833  0.110175  0  1.049189  0
H  H36  1  0.44192763  0.48808525  0.70946404  1  0.083774  0  0.11184  0.092535  0  0.999731  0
H  H37  1  0.05811695  0.98808956  0.79053887  1  0.083778  0  0.11185  0.092572  0  0.999504  0
H  H38  1  0.55804660  0.51192638  0.29053407  1  0.083833  0  0.111893  0.092549  0  0.999705  0
H  H39  1  0.94190837  0.01192133  0.20946495  1  0.083884  0  0.111845  0.092537  0  0.999778  0
H  H40  1  0.12893487  0.34121073  0.83986001  1  0.175364  0  0.107458  0.099333  0  1.061334  0
H  H41  1  0.37107127  0.84121990  0.66014015  1  0.175651  0  0.107471  0.099301  0  1.06133  0
H  H42  1  0.87105795  0.65878814  0.16013674  1  0.175382  0  0.107443  0.099354  0  1.061265  0
H  H43  1  0.62893390  0.15877523  0.33986588  1  0.175765  0  0.107463  0.099379  0  1.061332  0
C  C44  1  0.85641273  0.32106192  0.21942885  1  0.472205  0  0.045638  0.08221  0  3.917071  0
C  C45  1  0.64354528  0.82105750  0.28056378  1  0.473133  0  0.045639  0.082459  0  3.917335  0
C  C46  1  0.14361535  0.67896172  0.78056776  1  0.470352  0  0.045868  0.082573  0  3.916998  0
C  C47  1  0.35645041  0.17894363  0.71944017  1  0.473172  0  0.045729  0.082519  0  3.917095  0
C  C48  1  0.98423123  0.39606323  0.20241739  1  -0.031026  0  -0.077646  -0.091658  0  3.989308  0
C  C49  1  0.51571687  0.89606342  0.29757712  1  -0.031813  0  -0.077741  -0.091927  0  3.988854  0
C  C50  1  0.01579366  0.60395891  0.79757372  1  -0.032027  0  -0.077559  -0.091741  0  3.989309  0
C  C51  1  0.48427991  0.10393921  0.70242852  1  -0.031623  0  -0.077783  -0.092055  0  3.988793  0
C  C52  1  0.04292036  0.40638156  0.14535383  1  -0.008773  0  -0.068999  -0.127161  0  3.894288  0
C  C53  1  0.45703709  0.90638310  0.35463887  1  -0.009244  0  -0.068893  -0.126906  0  3.893752  0
C  C54  1  0.95709888  0.59362633  0.85463730  1  -0.007942  0  -0.068895  -0.127065  0  3.894129  0
C  C55  1  0.54295577  0.09361278  0.64536509  1  -0.008889  0  -0.068971  -0.127102  0  3.894149  0
C  C56  1  0.97519048  0.33765473  0.10656406  1  0.372614  0  0.104877  0.205968  0  4.018294  0
C  C57  1  0.52477909  0.83765681  0.39343411  1  0.373222  0  0.10474  0.205811  0  4.018257  0
C  C58  1  0.02482075  0.66234640  0.89343219  1  0.37267  0  0.10472  0.205698  0  4.018246  0
C  C59  1  0.47521370  0.16233907  0.60657028  1  0.373235  0  0.10491  0.206059  0  4.018408  0
C  C60  1  0.84801571  0.26338713  0.12686557  1  0.498347  0  0.046068  -0.007653  0  3.884451  0
C  C61  1  0.65194372  0.76338720  0.37313206  1  0.498551  0  0.046172  -0.007586  0  3.884471  0
C  C62  1  0.15199888  0.73661625  0.87313533  1  0.498605  0  0.04613  -0.007458  0  3.8843  0
C  C63  1  0.34804782  0.23660868  0.62687149  1  0.498235  0  0.045976  -0.007898  0  3.884705  0
C  C64  1  0.16206477  0.39554517  0.01996625  1  1.408981  0  0.242912  0.382161  0  4.138172  0
C  C65  1  0.33788968  0.89553614  0.48003262  1  1.409019  0  0.243116  0.382469  0  4.137787  0
C  C66  1  0.83792578  0.60445146  0.98002755  1  1.409207  0  0.242751  0.381768  0  4.138719  0
C  C67  1  0.66208908  0.10445674  0.51997140  1  1.409507  0  0.242917  0.382009  0  4.138195  0
C  C68  1  0.16244413  0.37755204  0.95554346  1  1.425412  0  0.239947  0.373868  0  4.152097  0
C  C69  1  0.33754163  0.87755711  0.54445774  1  1.425794  0  0.239905  0.373737  0  4.152244  0
C  C70  1  0.83755472  0.62244233  0.04445115  1  1.425514  0  0.239938  0.373831  0  4.152247  0
C  C71  1  0.66244435  0.12243126  0.45554540  1  1.425472  0  0.239947  0.373995  0  4.151847  0
C  C72  1  0.33773762  0.44603286  0.86915971  1  0.298526  0  0.106588  0.212624  0  4.012394  0
C  C73  1  0.16226889  0.94604470  0.63084084  1  0.298814  0  0.106578  0.21255  0  4.012125  0
C  C74  1  0.66225104  0.55396602  0.13083664  1  0.298429  0  0.106529  0.212504  0  4.012405  0
C  C75  1  0.83772656  0.05394292  0.36916438  1  0.29702  0  0.106602  0.212541  0  4.012012  0
C  C76  1  0.47527804  0.51687250  0.85114985  1  0.037442  0  -0.072485  -0.132454  0  3.917694  0
C  C77  1  0.02473844  0.01689627  0.64885273  1  0.036562  0  -0.072408  -0.132413  0  3.917654  0
C  C78  1  0.52470897  0.48312938  0.14884778  1  0.037569  0  -0.072542  -0.132508  0  3.917734  0
C  C79  1  0.97525302  0.98308910  0.35115124  1  0.038647  0  -0.07238  -0.132577  0  3.917585  0
C  C80  1  0.51746544  0.53143069  0.79360460  1  -0.059475  0  -0.081734  -0.096334  0  3.988999  0
C  C81  1  0.98257364  0.03144735  0.70639788  1  -0.05779  0  -0.081734  -0.096074  0  3.989115  0
C  C82  1  0.48252431  0.46857194  0.20639344  1  -0.05917  0  -0.081705  -0.09637  0  3.989028  0
C  C83  1  0.01742911  0.96854777  0.29360604  1  -0.05829  0  -0.081778  -0.096188  0  3.988938  0
C  C84  1  0.41776044  0.47721128  0.75516084  1  0.510644  0  0.043419  0.082333  0  3.926373  0
C  C85  1  0.08227536  0.97722016  0.74484148  1  0.510717  0  0.043362  0.08222  0  3.92674  0
C  C86  1  0.58222085  0.52279510  0.24483723  1  0.51046  0  0.043339  0.082342  0  3.926262  0
C  C87  1  0.91773874  0.02278548  0.25516197  1  0.510513  0  0.043359  0.082288  0  3.926609  0
C  C88  1  0.24215583  0.39422757  0.82823681  1  0.545348  0  0.040077  -0.010696  0  3.870017  0
C  C89  1  0.25785796  0.89423578  0.67176477  1  0.545481  0  0.04003  -0.010562  0  3.870155  0
C  C90  1  0.75783549  0.60577506  0.17176037  1  0.545319  0  0.040224  -0.010495  0  3.869657  0
C  C91  1  0.74214612  0.10576009  0.32823957  1  0.545435  0  0.039997  -0.010667  0  3.870077  0
I  I92  1  0.31305787  0.21127637  0.26793843  1  -0.512093  0  -0.247146  -0.400939  0  1.33387  0
I  I93  1  0.18692105  0.71126989  0.23206330  1  -0.512077  0  -0.247107  -0.400879  0  1.334007  0
I  I94  1  0.68696073  0.78872176  0.73205610  1  -0.512211  0  -0.24715  -0.400963  0  1.333957  0
I  I95  1  0.81308265  0.28872899  0.76793553  1  -0.512088  0  -0.247114  -0.400896  0  1.334006  0
I  I96  1  0.58662662  0.01142409  0.13412773  1  -0.528552  0  -0.300591  -0.445924  0  1.143501  0
I  I97  1  0.91335730  0.51141884  0.36587499  1  -0.528577  0  -0.300587  -0.445857  0  1.143559  0
I  I98  1  0.41344485  0.98856803  0.86587802  1  -0.528515  0  -0.300614  -0.445909  0  1.143494  0
I  I99  1  0.08663442  0.48858679  0.63412007  1  -0.528641  0  -0.300618  -0.445886  0  1.143487  0
N  N100  1  0.78939165  0.25655368  0.18189319  1  -1.261523  0  -0.327705  -0.171619  0  3.611789  0
N  N101  1  0.71056978  0.75655224  0.31810457  1  -1.261471  0  -0.327777  -0.171665  0  3.61195  0
N  N102  1  0.21063806  0.74345795  0.81810977  1  -1.260027  0  -0.327782  -0.17183  0  3.611851  0
N  N103  1  0.28942184  0.24344589  0.68189855  1  -1.261458  0  -0.327721  -0.171517  0  3.612016  0
N  N104  1  0.02548364  0.34038369  0.04820715  1  -1.247982  0  -0.378079  -0.330742  0  3.609035  0
N  N105  1  0.47448881  0.84038165  0.45178982  1  -1.247748  0  -0.3782  -0.330843  0  3.608739  0
N  N106  1  0.97451106  0.65961294  0.95178706  1  -1.247328  0  -0.378025  -0.330513  0  3.609094  0
N  N107  1  0.52549434  0.15961197  0.54821334  1  -1.247255  0  -0.378146  -0.330779  0  3.609052  0
N  N108  1  0.29769793  0.43433286  0.92750990  1  -1.287451  0  -0.383521  -0.33054  0  3.61633  0
N  N109  1  0.20229000  0.93434071  0.57249012  1  -1.287723  0  -0.383578  -0.330609  0  3.616448  0
N  N110  1  0.70230343  0.56566001  0.07248640  1  -1.287369  0  -0.383549  -0.330446  0  3.616402  0
N  N111  1  0.79769142  0.06564466  0.42751474  1  -1.287226  0  -0.383647  -0.330778  0  3.616465  0
N  N112  1  0.28153806  0.41192382  0.77259831  1  -1.266403  0  -0.331911  -0.186147  0  3.619439  0
N  N113  1  0.21848541  0.91192955  0.72740330  1  -1.266833  0  -0.331763  -0.186253  0  3.61991  0
N  N114  1  0.71844488  0.58808331  0.22739849  1  -1.266198  0  -0.331972  -0.186281  0  3.619277  0
N  N115  1  0.78152846  0.08807308  0.27260142  1  -1.266622  0  -0.331804  -0.186219  0  3.619886  0
O  O116  1  0.27358829  0.45494392  0.04047895  1  -1.143768  0  -0.285442  -0.463773  0  2.161093  0
O  O117  1  0.22633348  0.95491853  0.45951544  1  -1.144174  0  -0.285423  -0.463766  0  2.161061  0
O  O118  1  0.72639819  0.54505645  0.95951401  1  -1.14411  0  -0.285325  -0.463611  0  2.161421  0
O  O119  1  0.77364105  0.04507135  0.54048860  1  -1.144294  0  -0.285444  -0.463713  0  2.161263  0
O  O120  1  0.04891628  0.31995348  0.93519514  1  -1.106204  0  -0.275414  -0.429953  0  2.111471  0
O  O121  1  0.45108955  0.81996666  0.56480928  1  -1.106294  0  -0.275403  -0.429952  0  2.11151  0
O  O122  1  0.95108406  0.68003939  0.06479904  1  -1.106239  0  -0.275397  -0.429915  0  2.111589  0
O  O123  1  0.54889784  0.18002246  0.43519386  1  -1.106269  0  -0.275369  -0.429947  0  2.111364  0
