# generated using pymatgen
data_CoH16C22(NO)4
_symmetry_space_group_name_H-M   'P 1'
_cell_length_a   7.81070644
_cell_length_b   10.95057137
_cell_length_c   13.39699081
_cell_angle_alpha   85.15985879
_cell_angle_beta   76.31627073
_cell_angle_gamma   69.15502231
_symmetry_Int_Tables_number   1
_chemical_formula_structural   CoH16C22(NO)4
_chemical_formula_sum   'Co2 H32 C44 N8 O8'
_cell_volume   1040.47135278
_cell_formula_units_Z   2
loop_
 _symmetry_equiv_pos_site_id
 _symmetry_equiv_pos_as_xyz
  1  'x, y, z'
loop_
 _atom_site_type_symbol
 _atom_site_label
 _atom_site_symmetry_multiplicity
 _atom_site_fract_x
 _atom_site_fract_y
 _atom_site_fract_z
 _atom_site_occupancy
 _atom_site_hle17_ddec_charge
 _atom_site_hle17_ddec_spin_density
 _atom_site_hle17_ddec_sum_bond_order
 _atom_site_hle17_magmom
 _atom_site_hse06_10hf_ddec_charge
 _atom_site_hse06_10hf_ddec_spin_density
 _atom_site_hse06_10hf_ddec_sum_bond_order
 _atom_site_hse06_10hf_magmom
 _atom_site_hse06_ddec_charge
 _atom_site_hse06_ddec_spin_density
 _atom_site_hse06_ddec_sum_bond_order
 _atom_site_hse06_magmom
 _atom_site_pbe_cm5_charge
 _atom_site_pbe_ddec_charge
 _atom_site_pbe_ddec_spin_density
 _atom_site_pbe_ddec_sum_bond_order
 _atom_site_pbe_magmom
Co  Co0  1  0.71058717  0.57924105  0.24993260  1  0.980239  -2.818114  2.074719  -2.523  0.927324  -2.819135  2.534872  -2.573  1.015847  -2.866182  2.449836  -2.665  0.702  0.856055  -2.773311  2.600494  -2.486
Co  Co1  1  0.28941300  0.42076223  0.75006680  1  0.98015  -2.818083  2.074724  -2.523  0.927356  -2.819139  2.534801  -2.573  1.015887  -2.866186  2.449743  -2.665  0.702015  0.856059  -2.773332  2.60044  -2.486
H  H2  1  0.83020010  0.32367373  0.93163075  1  0.31895  -0.000118  0.913685  0.0  0.298514  -0.000114  0.975885  0.0  0.307967  -8e-05  0.968432  0.0  0.30962  0.291762  -0.000152  0.981235  0.0
H  H3  1  0.84568696  0.32378273  0.56834166  1  0.31845  -0.000119  0.915079  0.0  0.297774  -0.000115  0.97765  0.0  0.30725  -8e-05  0.970186  0.0  0.308787  0.290985  -0.000152  0.98305  0.0
H  H4  1  0.16979986  0.67632467  0.06837126  1  0.318909  -0.000118  0.913728  0.0  0.29848  -0.000114  0.975924  0.0  0.307931  -8e-05  0.968473  0.0  0.309599  0.291728  -0.000152  0.981271  0.0
H  H5  1  0.15431715  0.67621273  0.43165326  1  0.318464  -0.000118  0.915038  0.0  0.297779  -0.000115  0.977602  0.0  0.307252  -8e-05  0.970143  0.0  0.308798  0.290995  -0.000152  0.982995  0.0
H  H6  1  0.60295082  0.48792293  0.06273924  1  0.099391  7.9e-05  0.951401  -0.001  0.106216  -0.000111  1.018633  -0.001  0.109306  -7.7e-05  1.014243  0.0  0.137231  0.103741  -0.000131  1.022078  -0.001
H  H7  1  0.90883762  0.48816379  0.43728632  1  0.097915  8.1e-05  0.952522  -0.001  0.104724  -0.000109  1.019957  -0.001  0.107729  -7.6e-05  1.015688  0.0  0.135917  0.102396  -0.000131  1.023239  -0.001
H  H8  1  0.39704685  0.51207742  0.93726144  1  0.099356  7.8e-05  0.95148  -0.001  0.106207  -0.000111  1.018687  -0.001  0.109318  -7.7e-05  1.014272  0.0  0.13724  0.103735  -0.000131  1.022132  -0.001
H  H9  1  0.09116683  0.51183363  0.56270842  1  0.097948  8.1e-05  0.952579  -0.001  0.104758  -0.000109  1.019985  -0.001  0.107765  -7.6e-05  1.015721  0.0  0.135948  0.102431  -0.000131  1.02326  -0.001
H  H10  1  0.15461526  0.43160165  0.21323507  1  0.114075  -0.000216  0.951589  0.0  0.121553  -0.000563  1.018486  0.0  0.124688  -0.000418  1.016788  0.0  0.106379  0.119183  -0.000714  1.019986  0.0
H  H11  1  0.41400921  0.43145287  0.28651336  1  0.113303  -0.000222  0.952132  0.0  0.12098  -0.000567  1.018867  0.0  0.124105  -0.000421  1.017175  0.0  0.106534  0.118666  -0.000715  1.020256  0.0
H  H12  1  0.84537926  0.56839967  0.78676897  1  0.11414  -0.000216  0.951583  0.0  0.121572  -0.000563  1.018508  0.0  0.124708  -0.000418  1.016809  0.0  0.106383  0.119196  -0.000714  1.020006  0.0
H  H13  1  0.58598884  0.56854943  0.71348266  1  0.113332  -0.000214  0.952215  0.0  0.120922  -0.000567  1.019035  0.0  0.124045  -0.000421  1.017347  0.0  0.106515  0.118605  -0.000715  1.020421  0.0
H  H14  1  0.46757247  0.26518413  0.13817173  1  0.083591  5.3e-05  0.958043  0.0  0.09637  8.4e-05  1.015923  0.0  0.098768  6.8e-05  1.015636  0.0  0.096055  0.094596  0.000102  1.016321  0.0
H  H15  1  0.26717796  0.26492235  0.36155202  1  0.084625  5.8e-05  0.959016  0.0  0.09737  8.8e-05  1.016768  0.0  0.09976  7e-05  1.0165  0.0  0.096496  0.09568  0.000102  1.017027  0.0
H  H16  1  0.53242253  0.73481622  0.86183380  1  0.083654  5.3e-05  0.957938  0.0  0.096378  8.4e-05  1.015883  0.0  0.098777  6.8e-05  1.015594  0.0  0.096083  0.094599  0.000102  1.016289  0.0
H  H17  1  0.73282009  0.73507996  0.63844400  1  0.08462  5.6e-05  0.959035  0.0  0.097366  8.8e-05  1.016786  0.0  0.099756  7e-05  1.016518  0.0  0.096491  0.095667  0.000102  1.01705  0.0
H  H18  1  0.50761997  0.12913892  0.99045425  1  0.086025  0.000132  0.95457  0.0  0.099197  3.1e-05  1.01151  0.0  0.10162  2.8e-05  1.011314  0.0  0.098666  0.097442  2.3e-05  1.011686  0.0
H  H19  1  0.36284547  0.12885865  0.50931860  1  0.085721  0.000113  0.953688  0.0  0.099  1.5e-05  1.01053  0.0  0.101398  1.6e-05  1.010403  0.0  0.098132  0.096944  2.3e-05  1.011313  0.0
H  H20  1  0.49237600  0.87085947  0.00955277  1  0.086055  0.000133  0.954572  0.0  0.099266  3.1e-05  1.011463  0.0  0.101697  2.8e-05  1.011265  0.0  0.098661  0.097512  2.3e-05  1.011646  0.0
H  H21  1  0.63715406  0.87114072  0.49067667  1  0.085659  0.000116  0.95376  0.0  0.09896  1.5e-05  1.010581  0.0  0.101358  1.6e-05  1.010451  0.0  0.098109  0.096901  2.3e-05  1.011363  0.0
H  H22  1  0.23913348  0.15453560  0.90983358  1  0.11718  -0.000102  0.95011  0.0  0.127419  -2.3e-05  1.008147  0.0  0.1313  4.5e-05  1.005802  0.0  0.107088  0.124544  -0.000112  1.009932  0.0
H  H23  1  0.60576552  0.15437156  0.59002807  1  0.116174  -0.000108  0.95102  0.0  0.126425  -2.7e-05  1.009113  0.0  0.130311  4.2e-05  1.006771  0.0  0.106833  0.123553  -0.000113  1.010941  0.0
H  H24  1  0.76086167  0.84546182  0.09017213  1  0.117167  -0.000103  0.950116  0.0  0.127451  -2.3e-05  1.008111  0.0  0.131334  4.5e-05  1.005764  0.0  0.107084  0.124572  -0.000112  1.009896  0.0
H  H25  1  0.39423581  0.84562684  0.40996702  1  0.116157  -0.000109  0.95102  0.0  0.126395  -2.7e-05  1.009121  0.0  0.130283  4.2e-05  1.006778  0.0  0.106819  0.123525  -0.000113  1.010947  0.0
H  H26  1  0.69143421  0.96343588  0.30141014  1  0.0951  -1.3e-05  0.944547  0.0  0.107313  -1.1e-05  1.001945  0.0  0.110292  2.2e-05  1.000615  0.0  0.10295  0.105182  -4.5e-05  1.003002  0.0
H  H27  1  0.34613930  0.96366348  0.19833445  1  0.095859  -1.1e-05  0.943053  0.0  0.107986  -3e-06  1.000559  0.0  0.110971  2.8e-05  0.999236  0.0  0.103376  0.105824  -4.5e-05  1.001668  0.0
H  H28  1  0.30857234  0.03656252  0.69859022  1  0.095209  -1.4e-05  0.944379  0.0  0.107384  -1.1e-05  1.001825  0.0  0.110363  2.2e-05  1.000494  0.0  0.102977  0.105259  -4.5e-05  1.002877  0.0
H  H29  1  0.65386577  0.03633785  0.80166816  1  0.095809  -1.3e-05  0.943203  0.0  0.108005  -3e-06  1.000616  0.0  0.110941  2.8e-05  0.999347  0.0  0.103381  0.10584  -4.5e-05  1.001723  0.0
H  H30  1  0.74913528  0.17423024  0.27424190  1  0.081279  7.5e-05  0.99289  0.0  0.090638  8.4e-05  1.057103  0.0  0.092322  7.8e-05  1.05813  0.0  0.092763  0.089542  8e-05  1.056277  0.0
H  H31  1  0.07794697  0.17433069  0.22523949  1  0.080999  8.8e-05  0.99353  0.0  0.089985  9.2e-05  1.058347  0.0  0.091605  8.2e-05  1.059456  0.0  0.092222  0.088922  8e-05  1.057508  0.0
H  H32  1  0.25086682  0.82576913  0.72575974  1  0.081278  7.4e-05  0.992861  0.0  0.090607  8.4e-05  1.057108  0.0  0.092291  7.8e-05  1.058135  0.0  0.092771  0.089512  8e-05  1.056273  0.0
H  H33  1  0.92205416  0.82567064  0.77476216  1  0.080968  8.9e-05  0.993596  0.0  0.089969  9.2e-05  1.058395  0.0  0.091578  8.2e-05  1.059513  0.0  0.092221  0.088908  8e-05  1.057549  0.0
C  C34  1  0.75048962  0.43768148  0.06301453  1  0.262576  0.008854  3.658816  0.005  0.202846  -0.002309  3.939854  -0.004  0.222554  -0.001974  3.949777  -0.003  0.162765  0.189325  -0.002491  3.932783  -0.004
C  C35  1  0.81154800  0.43782111  0.43696126  1  0.265425  0.008782  3.660366  0.005  0.205732  -0.002331  3.941372  -0.004  0.2255  -0.00199  3.951326  -0.003  0.164069  0.19214  -0.0025  3.934179  -0.004
C  C36  1  0.24950721  0.56231789  0.93698782  1  0.262616  0.008869  3.658813  0.005  0.202852  -0.002311  3.939873  -0.004  0.222544  -0.001975  3.949789  -0.003  0.162774  0.189324  -0.002491  3.932803  -0.004
C  C37  1  0.18845597  0.56217729  0.56303348  1  0.265457  0.0088  3.660363  0.005  0.205741  -0.002331  3.941373  -0.004  0.225504  -0.00199  3.951334  -0.003  0.164111  0.192154  -0.002501  3.934167  -0.004
C  C38  1  0.02195634  0.38153869  0.10504436  1  0.139126  0.002817  3.811916  0.002  0.140358  -0.000841  4.059531  -0.002  0.144499  -0.000325  4.083955  -0.001  0.084278  0.137231  -0.001337  4.042845  -0.002
C  C39  1  0.59635327  0.38151008  0.39482959  1  0.137938  0.002781  3.812805  0.002  0.138621  -0.000852  4.06146  -0.002  0.14279  -0.000328  4.085835  -0.001  0.082499  0.135463  -0.001338  4.044706  -0.002
C  C40  1  0.97803784  0.61846068  0.89496060  1  0.139052  0.002834  3.812162  0.002  0.140346  -0.000843  4.059626  -0.002  0.144487  -0.000326  4.084048  -0.001  0.084203  0.137218  -0.001337  4.04293  -0.002
C  C41  1  0.40364526  0.61849125  0.60516718  1  0.137882  0.002838  3.812699  0.002  0.138595  -0.000854  4.061271  -0.002  0.142765  -0.000329  4.085645  -0.001  0.082432  0.135438  -0.001338  4.044512  -0.002
C  C42  1  0.17278205  0.36966813  0.14908739  1  -0.151245  -0.002744  3.745028  -0.004  -0.172588  -0.001791  4.002681  -0.002  -0.175619  -0.001435  4.022528  -0.002  -0.095751  -0.170307  -0.002254  3.989406  -0.002
C  C43  1  0.45756799  0.36950495  0.35068918  1  -0.149434  -0.002725  3.744962  -0.004  -0.170986  -0.001807  4.003517  -0.002  -0.173997  -0.001452  4.02332  -0.002  -0.094633  -0.168526  -0.002259  3.989878  -0.002
C  C44  1  0.82721261  0.63033027  0.85091757  1  -0.151304  -0.002753  3.745124  -0.004  -0.172612  -0.001793  4.002717  -0.002  -0.175643  -0.001435  4.022562  -0.002  -0.095777  -0.170325  -0.002254  3.989431  -0.002
C  C45  1  0.54243152  0.63049443  0.64930759  1  -0.149397  -0.002778  3.745019  -0.004  -0.170884  -0.001805  4.003541  -0.002  -0.173894  -0.00145  4.023344  -0.002  -0.094573  -0.168415  -0.002259  3.989889  -0.002
C  C46  1  0.34641477  0.27768679  0.10604130  1  -0.080796  0.003561  3.791808  0.002  -0.095559  0.001293  4.045279  0.001  -0.097982  0.001282  4.068403  0.001  -0.099316  -0.094037  0.001367  4.029864  0.001
C  C47  1  0.37574758  0.27747188  0.39372806  1  -0.081957  0.003414  3.790897  0.002  -0.096649  0.001198  4.04443  0.001  -0.099087  0.001222  4.067554  0.001  -0.099682  -0.095083  0.001368  4.028621  0.001
C  C48  1  0.65357712  0.72231453  0.89396383  1  -0.080788  0.003572  3.791701  0.002  -0.095514  0.001296  4.045173  0.001  -0.097937  0.001283  4.068299  0.001  -0.099311  -0.093985  0.001367  4.029758  0.001
C  C49  1  0.62425276  0.72252847  0.60626853  1  -0.081964  0.003506  3.790848  0.002  -0.096663  0.001197  4.044376  0.001  -0.099101  0.00122  4.067499  0.001  -0.099683  -0.095087  0.001368  4.028563  0.001
C  C50  1  0.36917827  0.19995671  0.02170884  1  -0.077025  -0.002046  3.791666  -0.003  -0.093938  -0.000982  4.04898  -0.001  -0.096538  -0.000787  4.072528  -0.001  -0.099115  -0.092188  -0.001191  4.03313  -0.001
C  C51  1  0.43053602  0.19974386  0.47808961  1  -0.075648  -0.00194  3.790323  -0.003  -0.092592  -0.000897  4.047447  -0.001  -0.095193  -0.000731  4.071024  -0.001  -0.097908  -0.090709  -0.001192  4.03196  -0.001
C  C52  1  0.63081639  0.80004168  0.97829686  1  -0.077071  -0.002057  3.79172  -0.003  -0.094009  -0.000978  4.049012  -0.001  -0.096624  -0.000786  4.072584  -0.001  -0.099115  -0.092262  -0.001191  4.033166  -0.001
C  C53  1  0.56946302  0.80025649  0.52190492  1  -0.0755  -0.001976  3.79023  -0.003  -0.092463  -0.000898  4.047343  -0.001  -0.095062  -0.000731  4.07092  -0.001  -0.09782  -0.090581  -0.001192  4.031856  -0.001
C  C54  1  0.22044134  0.21203976  0.97656534  1  -0.142762  0.001523  3.743589  0.001  -0.162938  5.4e-05  3.998779  0.0  -0.165435  0.000471  4.017616  0.0  -0.089668  -0.161226  -0.000206  3.986318  0.0
C  C55  1  0.56706917  0.21192417  0.52330676  1  -0.142315  0.001682  3.74517  0.001  -0.162482  0.000146  4.000069  0.0  -0.165004  0.000539  4.018932  0.0  -0.090948  -0.160834  -0.000197  3.987817  0.0
C  C56  1  0.77955562  0.78795668  0.02344018  1  -0.142722  0.001547  3.743569  0.001  -0.162964  4.5e-05  3.998778  0.0  -0.165464  0.000467  4.017615  0.0  -0.089697  -0.161251  -0.000206  3.986317  0.0
C  C57  1  0.43293084  0.78807423  0.47668852  1  -0.142315  0.00176  3.745228  0.001  -0.162495  0.000147  4.000117  0.0  -0.165018  0.000539  4.01898  0.0  -0.090985  -0.16085  -0.000197  3.987873  0.0
C  C58  1  0.04624038  0.30483237  0.01912829  1  0.159431  -0.002858  3.764195  -0.004  0.151186  -0.001644  4.007446  -0.003  0.155334  -0.001222  4.029201  -0.002  0.09693  0.148352  -0.002181  3.992994  -0.003
C  C59  1  0.64856628  0.30480445  0.48079024  1  0.157571  -0.002951  3.764899  -0.005  0.149851  -0.001722  4.007756  -0.003  0.154003  -0.001276  4.029466  -0.002  0.096907  0.146923  -0.002187  3.993473  -0.003
C  C60  1  0.95375560  0.69516603  0.98087723  1  0.15939  -0.002864  3.764232  -0.005  0.151172  -0.001643  4.007434  -0.003  0.155324  -0.001221  4.029181  -0.002  0.097045  0.148338  -0.002181  3.99298  -0.003
C  C61  1  0.35143373  0.69519395  0.51920503  1  0.157433  -0.002976  3.764863  -0.005  0.149741  -0.001722  4.007644  -0.003  0.153893  -0.001276  4.029352  -0.002  0.096867  0.146811  -0.002187  3.993375  -0.003
C  C62  1  0.94889953  0.71969634  0.29022354  1  0.658782  0.006196  3.919716  0.005  0.609031  -0.001795  4.229561  -0.002  0.64671  -0.001426  4.221167  -0.002  0.214198  0.582066  -0.002087  4.234246  -0.002
C  C63  1  0.33212358  0.71980502  0.20982489  1  0.65903  0.006257  3.918078  0.005  0.608673  -0.001779  4.228531  -0.002  0.646332  -0.001425  4.220152  -0.002  0.214031  0.581748  -0.002095  4.233169  -0.002
C  C64  1  0.05110606  0.28030401  0.70977458  1  0.658708  0.006185  3.919845  0.005  0.608922  -0.001794  4.229734  -0.002  0.6466  -0.001425  4.221342  -0.002  0.21417  0.581958  -0.002086  4.234413  -0.002
C  C65  1  0.66787971  0.28019728  0.79017490  1  0.659011  0.006256  3.91805  0.005  0.608639  -0.00178  4.228536  -0.002  0.646298  -0.001424  4.220162  -0.002  0.214048  0.581714  -0.002095  4.233166  -0.002
C  C66  1  0.98524290  0.84565840  0.26560828  1  -0.08067  -0.004948  3.762663  -0.008  -0.066597  -0.002779  3.994575  -0.004  -0.071859  -0.001627  4.014457  -0.003  -0.018688  -0.063009  -0.004142  3.981468  -0.006
C  C67  1  0.17001696  0.84571080  0.23439810  1  -0.08062  -0.004992  3.760703  -0.008  -0.064861  -0.002764  3.991213  -0.004  -0.070071  -0.001627  4.011072  -0.003  -0.017397  -0.061322  -0.004148  3.978141  -0.006
C  C68  1  0.01476186  0.15434098  0.73439002  1  -0.080552  -0.004926  3.762591  -0.007  -0.066454  -0.002779  3.994503  -0.004  -0.071718  -0.001627  4.014396  -0.003  -0.018677  -0.062871  -0.004142  3.981404  -0.006
C  C69  1  0.82998813  0.15429053  0.76560226  1  -0.080601  -0.005015  3.760691  -0.008  -0.064885  -0.002764  3.991281  -0.004  -0.070094  -0.001626  4.01113  -0.003  -0.017387  -0.061337  -0.004148  3.978201  -0.006
C  C70  1  0.83456558  0.96440724  0.27838729  1  -0.084373  -0.000624  3.756896  -0.001  -0.105252  -0.000652  4.003475  -0.001  -0.106441  -0.00037  4.023492  0.0  -0.089297  -0.104406  -0.000984  3.989918  -0.001
C  C71  1  0.20211030  0.96452233  0.22144674  1  -0.084337  -0.000497  3.754673  -0.001  -0.105402  -0.000593  4.000734  -0.001  -0.106618  -0.000321  4.020729  0.0  -0.089665  -0.104549  -0.000978  3.987274  -0.001
C  C72  1  0.16543785  0.03559213  0.72161343  1  -0.084601  -0.000638  3.756746  -0.001  -0.105455  -0.000652  4.003354  -0.001  -0.106645  -0.000371  4.023373  0.0  -0.089361  -0.104611  -0.000984  3.989806  -0.001
C  C73  1  0.79789166  0.03547997  0.77855472  1  -0.084327  -0.000473  3.754761  -0.001  -0.105429  -0.000594  4.000828  -0.001  -0.106602  -0.000322  4.020836  0.0  -0.089684  -0.104579  -0.000978  3.987366  -0.001
C  C74  1  0.86741535  0.08242800  0.26346204  1  -0.063718  -0.000521  3.768663  -0.001  -0.079088  -0.000628  4.018328  -0.001  -0.080679  -0.000374  4.039943  0.0  -0.095174  -0.077764  -0.000942  4.003153  -0.001
C  C75  1  0.05138316  0.08248988  0.23618812  1  -0.063841  -0.000679  3.769361  -0.001  -0.07915  -0.000702  4.019369  -0.001  -0.080722  -0.000432  4.041028  0.0  -0.094989  -0.077786  -0.00095  4.004166  -0.001
C  C76  1  0.13258759  0.91757235  0.73653867  1  -0.063599  -0.000505  3.768571  -0.001  -0.078938  -0.000628  4.018215  -0.001  -0.080528  -0.000374  4.03983  0.0  -0.095149  -0.077613  -0.000942  4.003036  -0.001
C  C77  1  0.94861977  0.91751047  0.76381335  1  -0.063847  -0.000698  3.769375  -0.001  -0.079172  -0.000701  4.019388  -0.001  -0.080729  -0.000431  4.041038  0.0  -0.094976  -0.077807  -0.00095  4.004182  -0.001
N  N78  1  0.83415158  0.46282989  0.13085422  1  -0.457569  -0.044189  3.318823  -0.066  -0.417795  -0.033248  3.645769  -0.038  -0.450678  -0.026191  3.65677  -0.029  -0.373636  -0.393236  -0.039335  3.638097  -0.046
N  N79  1  0.70289619  0.46288857  0.36907030  1  -0.457025  -0.044122  3.320887  -0.066  -0.417464  -0.033216  3.648435  -0.038  -0.450345  -0.02617  3.659398  -0.029  -0.37284  -0.392835  -0.039355  3.640782  -0.046
N  N80  1  0.16584477  0.53717046  0.86914814  1  -0.457492  -0.044195  3.318785  -0.066  -0.417766  -0.033246  3.645753  -0.038  -0.450651  -0.026189  3.656757  -0.029  -0.37362  -0.393197  -0.039335  3.638059  -0.046
N  N81  1  0.29710331  0.53711080  0.63092796  1  -0.457062  -0.044134  3.320598  -0.066  -0.417529  -0.033216  3.648149  -0.038  -0.450412  -0.02617  3.659107  -0.029  -0.372889  -0.392895  -0.039355  3.640482  -0.046
N  N82  1  0.87098919  0.34391091  0.99524423  1  -0.331475  -0.0012  3.362466  -0.003  -0.266375  -0.001746  3.589431  -0.003  -0.284302  -0.001192  3.60037  -0.002  -0.369895  -0.254453  -0.00229  3.582159  -0.004
N  N83  1  0.78462912  0.34402504  0.50474388  1  -0.331697  -0.001092  3.361056  -0.002  -0.266514  -0.001675  3.587746  -0.003  -0.284431  -0.001146  3.598651  -0.002  -0.369112  -0.254476  -0.002295  3.580513  -0.004
N  N84  1  0.12900910  0.65608553  0.00475962  1  -0.33145  -0.001203  3.362438  -0.003  -0.266384  -0.001746  3.589436  -0.003  -0.28431  -0.001192  3.600378  -0.002  -0.36994  -0.254466  -0.00229  3.582168  -0.004
N  N85  1  0.21537318  0.65597140  0.49525122  1  -0.331646  -0.001092  3.361114  -0.002  -0.266425  -0.001675  3.58775  -0.003  -0.284339  -0.001147  3.598654  -0.002  -0.36908  -0.254393  -0.002295  3.580517  -0.004
O  O86  1  0.82744693  0.70713197  0.24559036  1  -0.618245  -0.05446  2.145107  -0.092  -0.580169  -0.041179  2.44534  -0.062  -0.623411  -0.030591  2.431206  -0.045  -0.320831  -0.545642  -0.051781  2.453447  -0.078
O  O87  1  0.46629549  0.70735437  0.25428170  1  -0.619971  -0.054437  2.144408  -0.092  -0.58184  -0.041154  2.44485  -0.062  -0.625053  -0.030569  2.430651  -0.045  -0.321104  -0.547177  -0.051791  2.45286  -0.078
O  O88  1  0.17255194  0.29287131  0.75440698  1  -0.618175  -0.054456  2.145243  -0.092  -0.5801  -0.041178  2.445485  -0.062  -0.623344  -0.03059  2.431344  -0.045  -0.32078  -0.545573  -0.051776  2.453588  -0.078
O  O89  1  0.53371028  0.29265086  0.74571755  1  -0.619932  -0.054435  2.144393  -0.092  -0.581839  -0.04115  2.444888  -0.062  -0.625042  -0.030566  2.430659  -0.045  -0.321133  -0.547174  -0.051788  2.452883  -0.078
O  O90  1  0.03150565  0.63891152  0.35101405  1  -0.617445  -0.000305  1.95587  -0.002  -0.573728  -0.001613  2.186115  -0.003  -0.600029  -0.000837  2.178457  -0.002  -0.30845  -0.554705  -0.0025  2.190703  -0.005
O  O91  1  0.33000830  0.63893923  0.14916475  1  -0.616577  -0.000284  1.954824  -0.002  -0.573131  -0.001605  2.185658  -0.003  -0.599478  -0.000839  2.178206  -0.002  -0.308622  -0.554005  -0.00251  2.190215  -0.005
O  O92  1  0.96849566  0.36108687  0.64898329  1  -0.617498  -0.000304  1.955895  -0.002  -0.573754  -0.001613  2.186117  -0.003  -0.600057  -0.000838  2.178463  -0.002  -0.308481  -0.554724  -0.002501  2.190698  -0.005
O  O93  1  0.66999727  0.36106112  0.85083636  1  -0.61659  -0.000286  1.954817  -0.002  -0.573121  -0.001605  2.185626  -0.003  -0.599472  -0.00084  2.178177  -0.002  -0.308634  -0.553996  -0.00251  2.190185  -0.005
