# generated using pymatgen
data_MnH6C4O7
_symmetry_space_group_name_H-M   'P 1'
_cell_length_a   6.97514840
_cell_length_b   10.37510868
_cell_length_c   11.28718565
_cell_angle_alpha   114.44977396
_cell_angle_beta   89.99908107
_cell_angle_gamma   90.00075745
_symmetry_Int_Tables_number   1
_chemical_formula_structural   MnH6C4O7
_chemical_formula_sum   'Mn4 H24 C16 O28'
_cell_volume   743.58047886
_cell_formula_units_Z   4
loop_
 _symmetry_equiv_pos_site_id
 _symmetry_equiv_pos_as_xyz
  1  'x, y, z'
loop_
 _atom_site_type_symbol
 _atom_site_label
 _atom_site_symmetry_multiplicity
 _atom_site_fract_x
 _atom_site_fract_y
 _atom_site_fract_z
 _atom_site_occupancy
 _atom_site_hle17_ddec_charge
 _atom_site_hle17_ddec_spin_density
 _atom_site_hle17_ddec_sum_bond_order
 _atom_site_hle17_magmom
 _atom_site_hse06_10hf_ddec_charge
 _atom_site_hse06_10hf_ddec_spin_density
 _atom_site_hse06_10hf_ddec_sum_bond_order
 _atom_site_hse06_10hf_magmom
 _atom_site_hse06_ddec_charge
 _atom_site_hse06_ddec_spin_density
 _atom_site_hse06_ddec_sum_bond_order
 _atom_site_hse06_magmom
 _atom_site_pbe_cm5_charge
 _atom_site_pbe_ddec_charge
 _atom_site_pbe_ddec_spin_density
 _atom_site_pbe_ddec_sum_bond_order
 _atom_site_pbe_magmom
Mn  Mn0  1  0.16083296  0.41604159  0.26244856  1  1.233892  4.803264  1.67404  4.687  1.078861  4.736292  2.162868  4.555  1.138336  4.774065  2.088611  4.612  0.598013  1.031782  4.698559  2.217647  4.501
Mn  Mn1  1  0.16082334  0.08395704  0.73754019  1  1.233867  4.803326  1.67398  4.687  1.078889  4.736362  2.162684  4.555  1.138363  4.774132  2.088433  4.612  0.598043  1.031802  4.698632  2.217453  4.501
Mn  Mn2  1  0.83916361  0.58395663  0.73754551  1  1.2339  4.803242  1.67403  4.687  1.078826  4.736273  2.162905  4.555  1.138304  4.774047  2.088645  4.612  0.597976  1.031746  4.698538  2.217684  4.501
Mn  Mn3  1  0.83917752  0.91603919  0.26245847  1  1.23388  4.803334  1.673993  4.687  1.078868  4.736374  2.162761  4.555  1.138353  4.774144  2.088493  4.612  0.59804  1.031783  4.698646  2.217534  4.501
H  H4  1  0.63517305  0.23242536  0.10174892  1  0.0759  2.8e-05  0.907064  0.0  0.082912  0.000412  0.969723  0.0  0.08604  0.000192  0.966353  0.0  0.117316  0.080637  0.000681  0.972352  0.001
H  H5  1  0.63516844  0.26756661  0.89824178  1  0.075893  2.7e-05  0.90717  0.0  0.082911  0.000412  0.969779  0.0  0.086031  0.000193  0.966414  0.0  0.117302  0.080637  0.000681  0.972407  0.001
H  H6  1  0.36482925  0.76757402  0.89825001  1  0.075935  2e-05  0.907026  0.0  0.082958  0.000412  0.969666  0.0  0.086087  0.000192  0.966296  0.0  0.117345  0.080682  0.000681  0.972295  0.001
H  H7  1  0.36483529  0.73242963  0.10175778  1  0.075872  2.9e-05  0.907196  0.0  0.082903  0.000412  0.969824  0.0  0.086024  0.000193  0.966459  0.0  0.117299  0.080629  0.000681  0.972454  0.001
H  H8  1  0.36229566  0.16030287  0.37309580  1  0.087051  -0.000356  0.941576  0.0  0.091121  4.6e-05  1.0073  0.001  0.094547  -0.000202  1.00401  0.0  0.119096  0.088514  0.000358  1.009944  0.001
H  H9  1  0.36228827  0.33970151  0.62690998  1  0.087083  -0.000356  0.94151  0.0  0.091168  4.6e-05  1.007251  0.001  0.094595  -0.000202  1.003958  0.0  0.119121  0.088559  0.000358  1.009897  0.001
H  H10  1  0.63771237  0.83970400  0.62690940  1  0.087107  -0.000358  0.941507  0.0  0.09114  4.6e-05  1.007217  0.001  0.094566  -0.000202  1.003927  0.0  0.119125  0.088532  0.000359  1.009862  0.001
H  H11  1  0.63770686  0.66030320  0.37309266  1  0.087129  -0.000349  0.941507  0.0  0.091195  4.6e-05  1.00724  0.001  0.094622  -0.000201  1.003947  0.0  0.119137  0.088587  0.000359  1.009886  0.001
H  H12  1  0.33748944  0.14250059  0.11493116  1  0.393382  0.000116  0.91296  0.001  0.362067  0.000536  0.989853  0.002  0.373671  0.00031  0.973618  0.001  0.301116  0.353181  0.000763  0.999045  0.002
H  H13  1  0.33747977  0.35749828  0.88506930  1  0.39338  0.000116  0.912939  0.001  0.362068  0.000535  0.989835  0.002  0.373664  0.000309  0.973619  0.001  0.301136  0.353183  0.000762  0.999026  0.002
H  H14  1  0.66251286  0.85749775  0.88506827  1  0.393366  0.000116  0.912973  0.001  0.362062  0.000535  0.989862  0.002  0.373661  0.000309  0.973631  0.001  0.301107  0.353177  0.000763  0.999054  0.002
H  H15  1  0.66252110  0.64250108  0.11492873  1  0.393363  0.000116  0.912971  0.001  0.362048  0.000535  0.989872  0.002  0.37365  0.000309  0.973641  0.001  0.30113  0.353165  0.000762  0.999063  0.002
H  H16  1  0.45785651  0.36896561  0.40606244  1  0.39216  -0.000209  0.809775  0.0  0.38048  0.000544  0.858635  0.001  0.38864  0.000137  0.850243  0.001  0.342788  0.374366  0.000975  0.865099  0.001
H  H17  1  0.45786027  0.13104564  0.59394405  1  0.392224  -0.000208  0.809819  0.0  0.380531  0.000544  0.858688  0.001  0.388693  0.000137  0.850294  0.001  0.342816  0.374413  0.000976  0.865153  0.001
H  H18  1  0.54214005  0.63104552  0.59394519  1  0.392232  -0.000208  0.809783  0.0  0.380539  0.000544  0.858654  0.001  0.3887  0.000137  0.850262  0.001  0.342821  0.374423  0.000976  0.865118  0.001
H  H19  1  0.54214490  0.86896223  0.40605885  1  0.392202  -0.000208  0.809735  0.0  0.380506  0.000544  0.858617  0.001  0.388668  0.000137  0.850224  0.001  0.342812  0.37439  0.000976  0.865079  0.001
H  H20  1  0.89905069  0.44809928  0.09070791  1  0.422941  0.000215  0.883252  0.001  0.391886  0.001062  0.947172  0.002  0.402484  0.000732  0.931998  0.002  0.297898  0.38438  0.001364  0.957899  0.002
H  H21  1  0.89904444  0.05190066  0.90928939  1  0.422864  0.000215  0.883365  0.001  0.391806  0.001062  0.947292  0.002  0.4024  0.000732  0.932125  0.002  0.297857  0.384299  0.001364  0.95802  0.002
H  H22  1  0.10093870  0.55189690  0.90928896  1  0.422924  0.000215  0.883296  0.001  0.3919  0.001062  0.947172  0.002  0.402493  0.000732  0.932006  0.002  0.297916  0.384394  0.001364  0.9579  0.002
H  H23  1  0.10095642  0.94810084  0.09071030  1  0.422854  0.000215  0.883382  0.001  0.391791  0.001062  0.947311  0.002  0.402388  0.000732  0.932142  0.002  0.29784  0.384285  0.001364  0.95804  0.002
H  H24  1  0.06905742  0.55219554  0.12608098  1  0.423748  -0.000512  0.83406  0.001  0.398133  0.000344  0.903723  0.002  0.4077  4.5e-05  0.892888  0.001  0.314551  0.391143  0.000619  0.911655  0.002
H  H25  1  0.06905411  0.94780304  0.87391712  1  0.423712  -0.000512  0.834115  0.001  0.398104  0.000344  0.903766  0.002  0.407671  4.5e-05  0.89293  0.001  0.314527  0.391113  0.000619  0.911704  0.002
H  H26  1  0.93093484  0.44780380  0.87391616  1  0.423671  -0.000512  0.834134  0.001  0.398072  0.000344  0.90377  0.002  0.407636  4.5e-05  0.892941  0.001  0.314546  0.391083  0.000619  0.911699  0.002
H  H27  1  0.93094819  0.05219954  0.12608385  1  0.423759  -0.000512  0.834032  0.001  0.398147  0.000344  0.903695  0.002  0.407716  4.5e-05  0.892857  0.001  0.314539  0.391155  0.000619  0.911633  0.002
C  C28  1  0.53370863  0.43889788  0.13890900  1  0.658412  0.00213  3.82343  0.002  0.601517  0.005575  4.131495  0.005  0.63484  0.003847  4.125125  0.004  0.223821  0.578405  0.007438  4.135313  0.007
C  C29  1  0.53369955  0.06110089  0.86108336  1  0.658532  0.002117  3.823076  0.002  0.601555  0.005574  4.131251  0.005  0.63487  0.003844  4.12488  0.004  0.22379  0.578439  0.007436  4.13507  0.007
C  C30  1  0.46628794  0.56110472  0.86109287  1  0.658361  0.002118  3.823425  0.002  0.601487  0.005574  4.131458  0.005  0.634799  0.003845  4.125091  0.004  0.223765  0.578372  0.007438  4.135277  0.007
C  C31  1  0.46630275  0.93890175  0.13892029  1  0.658692  0.002116  3.823007  0.002  0.601839  0.005573  4.131042  0.005  0.635163  0.003843  4.124666  0.004  0.22394  0.578721  0.007434  4.134865  0.007
C  C32  1  0.50761098  0.27837517  0.07536173  1  0.065989  0.002019  3.655299  0.002  0.037123  0.003663  3.910842  0.003  0.039214  0.002557  3.91774  0.002  -0.000747  0.035327  0.004806  3.90622  0.004
C  C33  1  0.50760906  0.22162859  0.92462649  1  0.06578  0.002025  3.655562  0.002  0.037004  0.003662  3.911081  0.003  0.039099  0.002554  3.917971  0.002  -0.000792  0.035206  0.004805  3.906461  0.004
C  C34  1  0.49238702  0.72162107  0.92463782  1  0.065984  0.002047  3.65531  0.002  0.037142  0.003661  3.910887  0.003  0.03923  0.002558  3.91779  0.002  -0.000744  0.035345  0.004806  3.906267  0.004
C  C35  1  0.49239181  0.77837081  0.07537332  1  0.065802  0.002015  3.655457  0.002  0.036907  0.003662  3.911119  0.003  0.039004  0.002556  3.918007  0.002  -0.000791  0.035108  0.004806  3.906502  0.004
C  C36  1  0.26013302  0.24449781  0.42980830  1  0.059384  0.001945  3.57453  0.002  0.033269  0.003742  3.829084  0.003  0.035063  0.002369  3.83424  0.003  0.000786  0.031873  0.005167  3.825819  0.004
C  C37  1  0.26012981  0.25550150  0.57018508  1  0.05957  0.001946  3.574189  0.002  0.03329  0.003744  3.828881  0.003  0.035091  0.002369  3.834034  0.003  0.000741  0.031887  0.00517  3.825616  0.004
C  C38  1  0.73987788  0.75550568  0.57018680  1  0.059346  0.001967  3.574718  0.002  0.033378  0.00374  3.828915  0.003  0.035177  0.002371  3.834068  0.003  0.000743  0.031975  0.005168  3.825651  0.004
C  C39  1  0.73987679  0.74449798  0.42981832  1  0.059442  0.001911  3.574472  0.002  0.033242  0.003747  3.829005  0.003  0.035043  0.002366  3.834159  0.003  0.000754  0.03184  0.00517  3.825743  0.004
C  C40  1  0.06575624  0.19786920  0.36216534  1  0.665873  0.008858  3.85348  0.009  0.608267  0.016004  4.160701  0.015  0.643587  0.01177  4.15473  0.012  0.22417  0.583171  0.020717  4.16413  0.019
C  C41  1  0.06574496  0.30211449  0.63783660  1  0.665639  0.008855  3.853278  0.009  0.608091  0.016015  4.160437  0.015  0.64341  0.011776  4.154473  0.012  0.224144  0.583007  0.02073  4.163848  0.019
C  C42  1  0.93425179  0.80212705  0.63783421  1  0.665844  0.008848  3.853457  0.009  0.6083  0.016007  4.160499  0.015  0.643617  0.011771  4.15453  0.012  0.224241  0.583214  0.020721  4.163913  0.019
C  C43  1  0.93425304  0.69787966  0.36216308  1  0.665821  0.008872  3.853418  0.009  0.608172  0.016009  4.160688  0.015  0.643488  0.011776  4.154725  0.012  0.224153  0.583088  0.020726  4.1641  0.019
O  O44  1  0.42354989  0.51397398  0.23080622  1  -0.620703  0.029018  1.984291  0.02  -0.561137  0.034698  2.239263  0.023  -0.589431  0.030783  2.224792  0.02  -0.302728  -0.540216  0.038487  2.248647  0.026
O  O45  1  0.42354441  0.98602342  0.76918899  1  -0.620763  0.029019  1.984332  0.02  -0.561148  0.034692  2.239304  0.023  -0.589441  0.030779  2.224839  0.02  -0.302697  -0.540229  0.038482  2.248687  0.026
O  O46  1  0.57644380  0.48602112  0.76918938  1  -0.620711  0.029022  1.984228  0.02  -0.561158  0.034698  2.239207  0.023  -0.589456  0.030784  2.224745  0.02  -0.302734  -0.540236  0.038487  2.24859  0.026
O  O47  1  0.57645646  0.01397492  0.23081044  1  -0.620791  0.029017  1.984381  0.02  -0.561239  0.034694  2.239332  0.023  -0.58953  0.030781  2.22486  0.02  -0.302754  -0.540321  0.038483  2.248717  0.026
O  O48  1  0.67053403  0.48753698  0.09448138  1  -0.634552  0.002369  2.07805  0.003  -0.572395  0.004459  2.306711  0.006  -0.598956  0.003098  2.29659  0.004  -0.307311  -0.553513  0.005863  2.313003  0.007
O  O49  1  0.67053427  0.01245952  0.90551506  1  -0.634515  0.002372  2.077674  0.003  -0.572413  0.004458  2.306444  0.006  -0.59895  0.003098  2.296311  0.004  -0.307284  -0.553526  0.005862  2.312733  0.007
O  O50  1  0.32946397  0.51245924  0.90551728  1  -0.634498  0.002369  2.077998  0.003  -0.572371  0.004459  2.306646  0.006  -0.598893  0.003097  2.296507  0.004  -0.307267  -0.553485  0.005863  2.312935  0.007
O  O51  1  0.32946659  0.98753992  0.09448655  1  -0.634695  0.002374  2.077692  0.003  -0.572582  0.004457  2.306369  0.006  -0.599147  0.003098  2.296246  0.004  -0.307389  -0.553688  0.005862  2.312657  0.007
O  O52  1  0.33907163  0.24510301  0.12563246  1  -0.590507  0.027083  2.246502  0.019  -0.528261  0.034057  2.50761  0.024  -0.550453  0.03046  2.49055  0.02  -0.385139  -0.510874  0.037523  2.516936  0.027
O  O53  1  0.33907027  0.25490014  0.87437132  1  -0.590437  0.027074  2.246575  0.019  -0.528249  0.034051  2.507692  0.024  -0.550446  0.030456  2.49066  0.02  -0.385156  -0.510873  0.037518  2.517028  0.027
O  O54  1  0.66092637  0.75489744  0.87436774  1  -0.590546  0.027078  2.246514  0.019  -0.528295  0.034057  2.507586  0.024  -0.55049  0.030459  2.490537  0.02  -0.385154  -0.510911  0.037522  2.516914  0.027
O  O55  1  0.66093489  0.74509926  0.12562850  1  -0.590405  0.027076  2.246552  0.019  -0.528203  0.034053  2.50772  0.024  -0.550406  0.030457  2.49068  0.02  -0.385143  -0.510824  0.03752  2.517053  0.027
O  O56  1  0.32090009  0.37589823  0.42539399  1  -0.54083  0.021694  2.08785  0.013  -0.494313  0.030624  2.324379  0.019  -0.511019  0.027373  2.30798  0.017  -0.366099  -0.481796  0.033658  2.335966  0.021
O  O57  1  0.32090423  0.12410800  0.57461108  1  -0.541029  0.021696  2.087855  0.013  -0.494467  0.030627  2.32443  0.019  -0.511179  0.027377  2.308027  0.017  -0.36616  -0.481947  0.033662  2.336019  0.021
O  O58  1  0.67909791  0.62410333  0.57460839  1  -0.540986  0.021694  2.087763  0.013  -0.494495  0.030628  2.324232  0.019  -0.511205  0.027376  2.307826  0.017  -0.366169  -0.481975  0.033662  2.335823  0.021
O  O59  1  0.67910237  0.87589883  0.42539233  1  -0.540987  0.021702  2.087682  0.013  -0.494453  0.03063  2.324252  0.019  -0.511168  0.027379  2.307848  0.017  -0.366173  -0.481933  0.033665  2.335841  0.021
O  O60  1  0.00584509  0.24983564  0.28458042  1  -0.641315  0.035433  1.995079  0.024  -0.579105  0.043797  2.253386  0.028  -0.608533  0.038316  2.236623  0.023  -0.30686  -0.557459  0.049396  2.264859  0.033
O  O61  1  0.00583931  0.25016227  0.71541574  1  -0.641075  0.035431  1.995651  0.024  -0.578895  0.043792  2.253924  0.028  -0.608313  0.038312  2.237163  0.023  -0.306775  -0.557258  0.04939  2.265389  0.033
O  O62  1  0.99416294  0.75016376  0.71541940  1  -0.64125  0.035432  1.995004  0.024  -0.579101  0.043792  2.2533  0.028  -0.608525  0.038311  2.236536  0.023  -0.306868  -0.557461  0.049392  2.26477  0.033
O  O63  1  0.99415582  0.74983611  0.28458548  1  -0.641186  0.035431  1.99565  0.024  -0.578906  0.043793  2.253907  0.028  -0.608328  0.038311  2.237147  0.023  -0.306762  -0.557268  0.04939  2.265373  0.033
O  O64  1  0.98364658  0.10122366  0.38458690  1  -0.635097  0.034132  2.031144  0.02  -0.57311  0.042565  2.298839  0.024  -0.60449  0.037126  2.282963  0.019  -0.305514  -0.549552  0.04789  2.309256  0.028
O  O65  1  0.98362775  0.39878417  0.61541247  1  -0.635216  0.034151  2.030351  0.02  -0.573164  0.042569  2.297975  0.024  -0.604557  0.03713  2.282109  0.019  -0.305569  -0.549605  0.047897  2.308382  0.028
O  O66  1  0.01636718  0.89877358  0.61541036  1  -0.635036  0.034138  2.030994  0.02  -0.573111  0.042567  2.298698  0.024  -0.604491  0.037128  2.282821  0.019  -0.305523  -0.549554  0.047891  2.309106  0.028
O  O67  1  0.01636738  0.60121733  0.38458723  1  -0.63518  0.034136  2.03052  0.02  -0.573174  0.042565  2.29822  0.024  -0.604557  0.037127  2.28235  0.019  -0.305555  -0.549616  0.047892  2.308631  0.028
O  O68  1  0.04162654  0.45143684  0.10078027  1  -0.815671  0.032746  1.888147  0.021  -0.757248  0.04155  2.095323  0.026  -0.781173  0.036994  2.06464  0.023  -0.565128  -0.73929  0.0457  2.117  0.03
O  O69  1  0.04162193  0.04856027  0.89921793  1  -0.81558  0.032742  1.888216  0.021  -0.757132  0.041543  2.095354  0.026  -0.781061  0.036986  2.06468  0.023  -0.565074  -0.739178  0.045693  2.117031  0.03
O  O70  1  0.95836429  0.54855828  0.89921622  1  -0.815609  0.032742  1.888299  0.021  -0.757201  0.041546  2.095417  0.026  -0.781127  0.03699  2.064744  0.023  -0.56513  -0.739244  0.045695  2.117093  0.03
O  O71  1  0.95838037  0.95143589  0.10077805  1  -0.815589  0.03274  1.88813  0.021  -0.757145  0.041541  2.095271  0.026  -0.781073  0.036984  2.064595  0.023  -0.565068  -0.739188  0.04569  2.116949  0.03
