# generated using pymatgen
data_Zn2H22C39N4(O4F3)2
_symmetry_space_group_name_H-M   'P 1'
_cell_length_a   13.13479794
_cell_length_b   13.04584786
_cell_length_c   13.04584086
_cell_angle_alpha   85.46701175
_cell_angle_beta   83.75657194
_cell_angle_gamma   83.75659841
_symmetry_Int_Tables_number   1
_chemical_formula_structural   Zn2H22C39N4(O4F3)2
_chemical_formula_sum   'Zn4 H44 C78 N8 O16 F12'
_cell_volume   2203.91065226
_cell_formula_units_Z   2
loop_
 _symmetry_equiv_pos_site_id
 _symmetry_equiv_pos_as_xyz
  1  'x, y, z'
loop_
 _atom_site_type_symbol
 _atom_site_label
 _atom_site_symmetry_multiplicity
 _atom_site_fract_x
 _atom_site_fract_y
 _atom_site_fract_z
 _atom_site_occupancy
 _atom_site_pbe_bader_charge
 _atom_site_pbe_bader_spin_density
 _atom_site_pbe_cm5_charge
 _atom_site_pbe_ddec_charge
 _atom_site_pbe_ddec_spin_density
 _atom_site_pbe_ddec_sum_bond_order
 _atom_site_pbe_magmom
Zn  Zn0  1  0.82917686  0.72620786  0.83852106  1  1.252265  0  0.687894  0.753816  0  2.340943  0
Zn  Zn1  1  0.67082729  0.16148365  0.27379153  1  1.252705  0  0.687933  0.753946  0  2.340949  0
Zn  Zn2  1  0.17082846  0.27378887  0.16148273  1  1.25276  0  0.687925  0.753841  0  2.341066  0
Zn  Zn3  1  0.32917166  0.83851535  0.72620894  1  1.252729  0  0.687875  0.753784  0  2.341015  0
H  H4  1  0.60378280  0.73104633  0.80824788  1  0.149006  0  0.117424  0.102335  0  1.058128  0
H  H5  1  0.89622168  0.19174867  0.26895240  1  0.149025  0  0.117425  0.102381  0  1.058048  0
H  H6  1  0.39622006  0.26895192  0.19174685  1  0.149036  0  0.117442  0.102439  0  1.057994  0
H  H7  1  0.10377804  0.80825034  0.73104875  1  0.148996  0  0.117425  0.102342  0  1.058146  0
H  H8  1  0.45560844  0.63972912  0.87832593  1  0.092064  0  0.110351  0.119573  0  1.012055  0
H  H9  1  0.04439314  0.12166835  0.36027562  1  0.091858  0  0.110367  0.119579  0  1.012008  0
H  H10  1  0.54439046  0.36027761  0.12167162  1  0.091898  0  0.110363  0.119549  0  1.012047  0
H  H11  1  0.95560394  0.87832677  0.63972767  1  0.092097  0  0.110353  0.119578  0  1.012024  0
H  H12  1  0.66215258  0.44036925  0.06473386  1  0.1177  0  0.10519  0.11624  0  1.042884  0
H  H13  1  0.83783759  0.93525969  0.55962817  1  0.117536  0  0.105119  0.116149  0  1.042991  0
H  H14  1  0.33783976  0.55963435  0.93526389  1  0.117561  0  0.105136  0.116186  0  1.042991  0
H  H15  1  0.16215251  0.06473616  0.44037122  1  0.117717  0  0.10519  0.116275  0  1.042893  0
H  H16  1  0.80123927  0.54070500  0.98577072  1  0.117869  0  0.122885  0.104011  0  0.988049  0
H  H17  1  0.69875391  0.01423314  0.45929136  1  0.117841  0  0.122887  0.103995  0  0.988053  0
H  H18  1  0.19875569  0.45929552  0.01423160  1  0.117772  0  0.12286  0.103983  0  0.988025  0
H  H19  1  0.30123843  0.98577046  0.54070793  1  0.117905  0  0.122899  0.103992  0  0.988086  0
H  H20  1  0.02400998  0.58880570  0.78539994  1  0.140838  0  0.129241  0.10623  0  0.982011  0
H  H21  1  0.47599945  0.21459305  0.41119870  1  0.140927  0  0.129258  0.106261  0  0.981932  0
H  H22  1  0.97600865  0.41120270  0.21459455  1  0.139648  0  0.129285  0.106221  0  0.982011  0
H  H23  1  0.52399694  0.78540130  0.58880702  1  0.141028  0  0.129211  0.10618  0  0.982046  0
H  H24  1  0.09972465  0.48036842  0.64453677  1  0.070314  0  0.111064  0.114719  0  0.999423  0
H  H25  1  0.40028178  0.35545505  0.51963806  1  0.070359  0  0.111083  0.114738  0  0.999382  0
H  H26  1  0.90028838  0.51964226  0.35545432  1  0.070439  0  0.111096  0.114766  0  0.999377  0
H  H27  1  0.59971385  0.64453929  0.48036851  1  0.070489  0  0.111057  0.114714  0  0.999554  0
H  H28  1  0.84612511  0.60765673  0.47156995  1  0.092336  0  0.108504  0.110539  0  1.00759  0
H  H29  1  0.65387179  0.52843642  0.39234006  1  0.092272  0  0.108497  0.110497  0  1.007611  0
H  H30  1  0.15387683  0.39234305  0.52842247  1  0.092038  0  0.108532  0.110558  0  1.007642  0
H  H31  1  0.34611853  0.47157179  0.60765449  1  0.091831  0  0.108527  0.110564  0  1.007651  0
H  H32  1  0.78103894  0.71081668  0.62202779  1  0.190456  0  0.119334  0.106226  0  1.043668  0
H  H33  1  0.71895701  0.37797720  0.28917995  1  0.190474  0  0.119357  0.106263  0  1.043696  0
H  H34  1  0.21896716  0.28918005  0.37797208  1  0.190322  0  0.119401  0.10631  0  1.043605  0
H  H35  1  0.28103276  0.62202174  0.71081922  1  0.19034  0  0.119389  0.106323  0  1.043634  0
H  H36  1  0.93425697  0.69776850  0.14195586  1  0.089329  0  0.105503  0.109923  0  0.992219  0
H  H37  1  0.56575117  0.85804968  0.30223995  1  0.089142  0  0.105497  0.109919  0  0.992107  0
H  H38  1  0.06574730  0.30221661  0.85804515  1  0.089334  0  0.105514  0.109911  0  0.992312  0
H  H39  1  0.43425017  0.14194857  0.69776722  1  0.089238  0  0.105495  0.109914  0  0.9922  0
H  H40  1  0.03918914  0.69538780  0.28768197  1  0.051963  0  0.089048  0.093139  0  1.045558  0
H  H41  1  0.46081851  0.71233012  0.30461685  1  0.05199  0  0.089111  0.093226  0  1.045611  0
H  H42  1  0.96081199  0.30459808  0.71232851  1  0.05206  0  0.089121  0.093175  0  1.045718  0
H  H43  1  0.53918596  0.28766736  0.69538236  1  0.052071  0  0.089085  0.093135  0  1.045691  0
H  H44  1  0.29935205  0.76865680  0.07205507  1  0.107341  0  0.108792  0.123407  0  0.988828  0
H  H45  1  0.20065929  0.92794393  0.23134829  1  0.107215  0  0.108723  0.123339  0  0.988729  0
H  H46  1  0.70064805  0.23135304  0.92794363  1  0.107063  0  0.108816  0.123465  0  0.988726  0
H  H47  1  0.79934587  0.07205433  0.76865003  1  0.107111  0  0.108787  0.123422  0  0.9887  0
C  C48  1  0.61397232  0.66478136  0.86370988  1  0.47542  0  0.048466  0.099218  0  3.914273  0
C  C49  1  0.88602376  0.13629841  0.33522584  1  0.474921  0  0.048508  0.099151  0  3.914297  0
C  C50  1  0.38602046  0.33522534  0.13629448  1  0.475053  0  0.048442  0.099012  0  3.914303  0
C  C51  1  0.11396833  0.86370751  0.66477865  1  0.475375  0  0.048482  0.099215  0  3.914223  0
C  C52  1  0.53032430  0.61288368  0.90472861  1  -0.006532  0  -0.077367  -0.152931  0  3.900287  0
C  C53  1  0.96967156  0.09527368  0.38711853  1  -0.006086  0  -0.07735  -0.15287  0  3.900332  0
C  C54  1  0.46966897  0.38711837  0.09527301  1  -0.006043  0  -0.077348  -0.152822  0  3.900348  0
C  C55  1  0.03032214  0.90473147  0.61288431  1  -0.006513  0  -0.077427  -0.153004  0  3.900342  0
C  C56  1  0.54348736  0.52938856  0.97836954  1  0.040283  0  0.011308  0.102458  0  3.965559  0
C  C57  1  0.95650967  0.02162801  0.47061153  1  0.08257  0  0.011316  0.10247  0  3.965647  0
C  C58  1  0.45650957  0.47061506  0.02163078  1  0.082608  0  0.011355  0.102541  0  3.965504  0
C  C59  1  0.04348418  0.97836863  0.52938432  1  0.040201  0  0.01136  0.102516  0  3.965635  0
C  C60  1  0.64338287  0.50356407  0.00809114  1  -0.055328  0  -0.082618  -0.169866  0  3.927149  0
C  C61  1  0.85661403  0.99190312  0.49643265  1  -0.055082  0  -0.082547  -0.169725  0  3.927147  0
C  C62  1  0.35661652  0.49643802  0.99190290  1  -0.055302  0  -0.082632  -0.169845  0  3.927062  0
C  C63  1  0.14337905  0.00809352  0.50356558  1  -0.055322  0  -0.082648  -0.16995  0  3.927043  0
C  C64  1  0.72324950  0.55900171  0.96380401  1  0.434879  0  0.047694  0.098959  0  3.925679  0
C  C65  1  0.77674783  0.03618735  0.44098909  1  0.434461  0  0.047656  0.098878  0  3.925713  0
C  C66  1  0.27674894  0.44099495  0.03618520  1  0.434705  0  0.047713  0.098938  0  3.925441  0
C  C67  1  0.22324662  0.96381084  0.55900734  1  0.43469  0  0.047728  0.099052  0  3.925552  0
C  C68  1  0.98654420  0.58969676  0.71461452  1  0.467821  0  0.062316  0.111033  0  3.902943  0
C  C69  1  0.51346177  0.28538187  0.41030386  1  0.467897  0  0.062215  0.110981  0  3.903014  0
C  C70  1  0.01347129  0.41031239  0.28537872  1  0.469347  0  0.062259  0.111143  0  3.90306  0
C  C71  1  0.48653285  0.71461479  0.58969957  1  0.467153  0  0.062309  0.111104  0  3.90337  0
C  C72  1  0.02854959  0.52941408  0.63426133  1  -0.054167  0  -0.076377  -0.162098  0  3.917373  0
C  C73  1  0.47145436  0.36573448  0.47058853  1  -0.054252  0  -0.076399  -0.162157  0  3.917396  0
C  C74  1  0.97146164  0.47059195  0.36573263  1  -0.054236  0  -0.076493  -0.162342  0  3.917522  0
C  C75  1  0.52853787  0.63426293  0.52941510  1  -0.053799  0  -0.076382  -0.162184  0  3.917749  0
C  C76  1  0.97940227  0.53216743  0.54343003  1  0.018012  0  0.014107  0.10902  0  3.963202  0
C  C77  1  0.52059917  0.45656769  0.46783816  1  0.057504  0  0.014135  0.109087  0  3.963246  0
C  C78  1  0.02060606  0.46783703  0.45656361  1  0.057744  0  0.014141  0.109186  0  3.963191  0
C  C79  1  0.47939221  0.54343049  0.53216704  1  0.018044  0  0.014077  0.109125  0  3.963325  0
C  C80  1  0.88881129  0.59935861  0.53924232  1  -0.058126  0  -0.080165  -0.163385  0  3.939342  0
C  C81  1  0.61118758  0.46076066  0.40064151  1  -0.057982  0  -0.08011  -0.163288  0  3.939492  0
C  C82  1  0.11119635  0.40064507  0.46074838  1  -0.057619  0  -0.080222  -0.163462  0  3.939431  0
C  C83  1  0.38880077  0.53924445  0.59935733  1  -0.057503  0  -0.080181  -0.163501  0  3.939528  0
C  C84  1  0.85070588  0.65696634  0.62252404  1  0.478732  0  0.048336  0.091733  0  3.926904  0
C  C85  1  0.64929377  0.37748071  0.34303375  1  0.47856  0  0.048345  0.091701  0  3.927145  0
C  C86  1  0.14930516  0.34303427  0.37747114  1  0.478718  0  0.048353  0.091736  0  3.92679  0
C  C87  1  0.35069535  0.62252441  0.65696577  1  0.47862  0  0.048342  0.091727  0  3.927127  0
C  C88  1  0.98744731  0.73373232  0.94155891  1  1.567625  0  0.200141  0.567712  0  4.216096  0
C  C89  1  0.51255810  0.05844225  0.26627425  1  1.567596  0  0.200155  0.567837  0  4.216371  0
C  C90  1  0.01255136  0.26625508  0.05844099  1  1.567439  0  0.199939  0.567471  0  4.216114  0
C  C91  1  0.48744069  0.94155832  0.73374221  1  1.567397  0  0.200163  0.567848  0  4.215914  0
C  C92  1  0.05699243  0.72916252  0.02569953  1  0.029698  0  -0.003497  -0.029916  0  3.920998  0
C  C93  1  0.44301665  0.97430580  0.27084125  1  0.029688  0  -0.003592  -0.029963  0  3.921013  0
C  C94  1  0.94300897  0.27082798  0.97430135  1  0.030024  0  -0.003489  -0.029787  0  3.920887  0
C  C95  1  0.55698376  0.02569399  0.72916742  1  0.029743  0  -0.003518  -0.029834  0  3.920868  0
C  C96  1  0.01501492  0.71182199  0.12782945  1  -0.049235  0  -0.083435  -0.079941  0  3.984777  0
C  C97  1  0.48499400  0.87217658  0.28818349  1  -0.049397  0  -0.083532  -0.080021  0  3.984879  0
C  C98  1  0.98498808  0.28816776  0.87217362  1  -0.049546  0  -0.083489  -0.07993  0  3.985074  0
C  C99  1  0.51500878  0.12782244  0.71181579  1  -0.0495  0  -0.083527  -0.080048  0  3.984946  0
C  C100  1  0.07441756  0.71198635  0.20974058  1  -0.0276  0  -0.106482  -0.150632  0  4.023582  0
C  C101  1  0.42558855  0.79026909  0.28802554  1  -0.027607  0  -0.106462  -0.150583  0  4.023814  0
C  C102  1  0.92558454  0.28801190  0.79026727  1  -0.027481  0  -0.106526  -0.150691  0  4.024064  0
C  C103  1  0.57441593  0.20972840  0.71197521  1  -0.02751  0  -0.106417  -0.150472  0  4.023863  0
C  C104  1  0.17746027  0.73264809  0.19098008  1  -0.046911  0  -0.021784  0.080152  0  3.968453  0
C  C105  1  0.32254923  0.80901941  0.26735263  1  -0.046578  0  -0.021863  0.07972  0  3.96889  0
C  C106  1  0.82254320  0.26735170  0.80901523  1  -0.047059  0  -0.02182  0.079971  0  3.96874  0
C  C107  1  0.67745424  0.19098040  0.73265111  1  -0.046987  0  -0.021918  0.079713  0  3.968787  0
C  C108  1  0.21944336  0.75196544  0.08867839  1  -0.042703  0  -0.084323  -0.147302  0  3.911767  0
C  C109  1  0.28056903  0.91131841  0.24804012  1  -0.042564  0  -0.084212  -0.147041  0  3.911498  0
C  C110  1  0.78055934  0.24803434  0.91131317  1  -0.042231  0  -0.084349  -0.147328  0  3.911867  0
C  C111  1  0.71943682  0.08868063  0.75195806  1  -0.042244  0  -0.084279  -0.147135  0  3.91151  0
C  C112  1  0.16102645  0.74782137  0.00597889  1  0.013004  0  0.003325  -0.007404  0  3.900409  0
C  C113  1  0.33898179  0.99402320  0.25218571  1  0.013411  0  0.003338  -0.007383  0  3.900165  0
C  C114  1  0.83897277  0.25218226  0.99401658  1  0.013223  0  0.003313  -0.007368  0  3.900408  0
C  C115  1  0.66102176  0.00597583  0.74781579  1  0.013104  0  0.003332  -0.00742  0  3.900165  0
C  C116  1  0.21427282  0.75122415  0.89765372  1  1.598143  0  0.20607  0.57664  0  4.238759  0
C  C117  1  0.28572808  0.10234415  0.24878603  1  1.597591  0  0.206071  0.576376  0  4.239051  0
C  C118  1  0.78572430  0.24878489  0.10234538  1  1.597393  0  0.205949  0.576322  0  4.239119  0
C  C119  1  0.71427222  0.89764945  0.75122009  1  1.597724  0  0.205985  0.576383  0  4.238892  0
C  C120  1  0.25000449  0.72313012  0.27687327  1  0.064395  0  -0.008639  -0.266401  0  3.866372  0
C  C121  1  0.74999804  0.27687122  0.72312815  1  0.064323  0  -0.008566  -0.266209  0  3.866201  0
C  C122  1  0.19008822  0.72922929  0.38645676  1  1.703114  0  0.303144  0.676655  0  3.959779  0
C  C123  1  0.30992469  0.61354571  0.27077163  1  1.703194  0  0.303129  0.676714  0  3.959541  0
C  C124  1  0.80991620  0.27077593  0.61353954  1  1.703195  0  0.303148  0.676712  0  3.959755  0
C  C125  1  0.69007954  0.38645410  0.72923126  1  1.703313  0  0.303176  0.67688  0  3.959565  0
N  N126  1  0.70924566  0.63836560  0.89234715  1  -1.250371  0  -0.328002  -0.231894  0  3.563106  0
N  N127  1  0.79075011  0.10765203  0.36163124  1  -1.249835  0  -0.328041  -0.231895  0  3.563145  0
N  N128  1  0.29074786  0.36163413  0.10764695  1  -1.250072  0  -0.327977  -0.231833  0  3.563059  0
N  N129  1  0.20924341  0.89234770  0.63836747  1  -1.250172  0  -0.328005  -0.231883  0  3.562906  0
N  N130  1  0.89828259  0.65218883  0.70950926  1  -1.229348  0  -0.317704  -0.220107  0  3.551111  0
N  N131  1  0.60171951  0.29049371  0.34781032  1  -1.229342  0  -0.317721  -0.220192  0  3.551359  0
N  N132  1  0.10172487  0.34780944  0.29048803  1  -1.229518  0  -0.317718  -0.220206  0  3.551408  0
N  N133  1  0.39827308  0.70950757  0.65219219  1  -1.228908  0  -0.31772  -0.220143  0  3.551857  0
O  O134  1  0.00128711  0.79206893  0.86130877  1  -1.170623  0  -0.312235  -0.53843  0  2.173327  0
O  O135  1  0.49870967  0.13869058  0.20793963  1  -1.170547  0  -0.312208  -0.538452  0  2.173365  0
O  O136  1  0.99871983  0.20789838  0.13867650  1  -1.170927  0  -0.312109  -0.538365  0  2.173262  0
O  O137  1  0.50127791  0.86131457  0.79208611  1  -1.170802  0  -0.312184  -0.538465  0  2.173259  0
O  O138  1  0.91055758  0.67790878  0.95841298  1  -1.170941  0  -0.342514  -0.568436  0  2.26337  0
O  O139  1  0.58945026  0.04159246  0.32209628  1  -1.171662  0  -0.342474  -0.568514  0  2.263672  0
O  O140  1  0.08942992  0.32209712  0.04160198  1  -1.171173  0  -0.342471  -0.568327  0  2.263204  0
O  O141  1  0.41056288  0.95840275  0.67789987  1  -1.171189  0  -0.342545  -0.568502  0  2.26316  0
O  O142  1  0.21221883  0.67438815  0.84590327  1  -1.183938  0  -0.331317  -0.576781  0  2.148138  0
O  O143  1  0.28778743  0.15409577  0.32561921  1  -1.183913  0  -0.331256  -0.576632  0  2.148106  0
O  O144  1  0.78781123  0.32560642  0.15410564  1  -1.184142  0  -0.331133  -0.576652  0  2.148279  0
O  O145  1  0.71219185  0.84589383  0.67439183  1  -1.184156  0  -0.331123  -0.576636  0  2.148099  0
O  O146  1  0.26291997  0.83088102  0.86865742  1  -1.15239  0  -0.325465  -0.52091  0  2.282155  0
O  O147  1  0.23708916  0.13134937  0.16912367  1  -1.152105  0  -0.325494  -0.52079  0  2.282363  0
O  O148  1  0.73706315  0.16913721  0.13134324  1  -1.151641  0  -0.325481  -0.52079  0  2.282192  0
O  O149  1  0.76292766  0.86865438  0.83087522  1  -1.151742  0  -0.325512  -0.520796  0  2.282125  0
F  F150  1  0.11599411  0.81040069  0.38886459  1  -0.623014  0  -0.08376  -0.191317  0  1.376282  0
F  F151  1  0.38401221  0.61114433  0.18958944  1  -0.623248  0  -0.08381  -0.191367  0  1.376169  0
F  F152  1  0.88401157  0.18959989  0.61113195  1  -0.623029  0  -0.083791  -0.191385  0  1.376242  0
F  F153  1  0.61598590  0.38885543  0.81040340  1  -0.623178  0  -0.083795  -0.19141  0  1.376244  0
F  F154  1  0.14219016  0.64236663  0.41867368  1  -0.626909  0  -0.102787  -0.225472  0  1.393046  0
F  F155  1  0.35783096  0.58132640  0.35762685  1  -0.627059  0  -0.102732  -0.225395  0  1.392942  0
F  F156  1  0.85781213  0.35763703  0.58132604  1  -0.627044  0  -0.102762  -0.225444  0  1.393078  0
F  F157  1  0.64217694  0.41867498  0.64237475  1  -0.626958  0  -0.102822  -0.2255  0  1.393035  0
F  F158  1  0.25278801  0.74118740  0.46006740  1  -0.623284  0  -0.09599  -0.203668  0  1.380184  0
F  F159  1  0.24722473  0.53993595  0.25880727  1  -0.623176  0  -0.095971  -0.203766  0  1.380209  0
F  F160  1  0.74721624  0.25881936  0.53992650  1  -0.62327  0  -0.095983  -0.203733  0  1.380307  0
F  F161  1  0.75278002  0.46006618  0.74118848  1  -0.623283  0  -0.096017  -0.203846  0  1.380127  0
