# generated using pymatgen
data_CdH14C14(NO)4
_symmetry_space_group_name_H-M   'P 1'
_cell_length_a   9.08031253
_cell_length_b   10.42397554
_cell_length_c   10.42397322
_cell_angle_alpha   82.14249172
_cell_angle_beta   65.16028870
_cell_angle_gamma   65.16035947
_symmetry_Int_Tables_number   1
_chemical_formula_structural   CdH14C14(NO)4
_chemical_formula_sum   'Cd2 H28 C28 N8 O8'
_cell_volume   811.59882368
_cell_formula_units_Z   2
loop_
 _symmetry_equiv_pos_site_id
 _symmetry_equiv_pos_as_xyz
  1  'x, y, z'
loop_
 _atom_site_type_symbol
 _atom_site_label
 _atom_site_symmetry_multiplicity
 _atom_site_fract_x
 _atom_site_fract_y
 _atom_site_fract_z
 _atom_site_occupancy
 _atom_site_hle17_bader_spin_density
 _atom_site_hle17_ddec_charge
 _atom_site_hle17_ddec_spin_density
 _atom_site_hle17_ddec_sum_bond_order
 _atom_site_hle17_magmom
 _atom_site_hse06_10hf_bader_spin_density
 _atom_site_hse06_10hf_ddec_charge
 _atom_site_hse06_10hf_ddec_spin_density
 _atom_site_hse06_10hf_ddec_sum_bond_order
 _atom_site_hse06_10hf_magmom
 _atom_site_hse06_bader_spin_density
 _atom_site_hse06_ddec_charge
 _atom_site_hse06_ddec_spin_density
 _atom_site_hse06_ddec_sum_bond_order
 _atom_site_hse06_magmom
 _atom_site_pbe_bader_spin_density
 _atom_site_pbe_cm5_charge
 _atom_site_pbe_ddec_charge
 _atom_site_pbe_ddec_spin_density
 _atom_site_pbe_ddec_sum_bond_order
 _atom_site_pbe_magmom
Cd  Cd0  1  0.38210869  0.06327420  0.22032955  1  0  1.098799  0  1.745487  0  0  0.903005  0  2.202599  0  0  0.961524  0  2.151132  0  0  0.767898  0.861237  0  2.238335  0
Cd  Cd1  1  0.61789347  0.77966947  0.93672478  1  0  1.098793  0  1.745519  0  0  0.902985  0  2.202626  0  0  0.961503  0  2.15116  0  0  0.767892  0.861219  0  2.238363  0
H  H2  1  0.15152851  0.61354365  0.75518965  1  0  0.28699  0  0.949451  0  0  0.26815  0  1.01637  0  0  0.276172  0  1.010298  0  0  0.306163  0.262432  0  1.020745  0
H  H3  1  0.84847030  0.24480946  0.38645591  1  0  0.287024  0  0.94945  0  0  0.268161  0  1.016356  0  0  0.276185  0  1.01028  0  0  0.306186  0.262444  0  1.02073  0
H  H4  1  0.43059827  0.62657583  0.79692846  1  0  0.296012  0  0.890374  0  0  0.281236  0  0.952266  0  0  0.286965  0  0.947761  0  0  0.325803  0.277266  0  0.955486  0
H  H5  1  0.56940029  0.20307185  0.37342417  1  0  0.296045  0  0.890362  0  0  0.281275  0  0.95224  0  0  0.287003  0  0.947737  0  0  0.325823  0.277305  0  0.95546  0
H  H6  1  0.10040550  0.94531493  0.41078033  1  0  0.074506  0  0.951861  0  0  0.083499  0  1.017572  0  0  0.085865  0  1.015043  0  0  0.109628  0.081669  0  1.01954  0
H  H7  1  0.89959565  0.58921889  0.05468650  1  0  0.074527  0  0.951852  0  0  0.083518  0  1.017562  0  0  0.085887  0  1.01503  0  0  0.109636  0.081679  0  1.019545  0
H  H8  1  0.04425401  0.77940034  0.60204159  1  0  0.119569  0  0.969341  0  0  0.128823  0  1.029228  0  0  0.13225  0  1.029036  0  0  0.105784  0.126371  0  1.029473  0
H  H9  1  0.95574415  0.39795759  0.22060296  1  0  0.119583  0  0.969366  0  0  0.128835  0  1.029252  0  0  0.132261  0  1.029062  0  0  0.105802  0.126378  0  1.029499  0
H  H10  1  0.58437213  0.65183265  0.55888200  1  0  0.121829  0  0.968189  0  0  0.126014  0  1.038351  0  0  0.13057  0  1.036134  0  0  0.107124  0.122675  0  1.040248  0
H  H11  1  0.41562599  0.44111948  0.34816690  1  0  0.121852  0  0.968161  0  0  0.12604  0  1.038318  0  0  0.130595  0  1.036101  0  0  0.107136  0.122703  0  1.040212  0
H  H12  1  0.61692056  0.82082854  0.36743196  1  0  0.072857  0  0.935446  0  0  0.084855  0  0.994072  0  0  0.08668  0  0.992405  0  0  0.113024  0.083434  0  0.99535  0
H  H13  1  0.38308196  0.63256780  0.17916967  1  0  0.072869  0  0.93541  0  0  0.084858  0  0.994047  0  0  0.086684  0  0.99238  0  0  0.113037  0.08344  0  0.995321  0
H  H14  1  0.21817904  0.19918503  0.98385353  1  0  0.07384  0  0.936519  0  0  0.08449  0  0.998087  0  0  0.086696  0  0.995693  0  0  0.113094  0.083017  0  0.999633  0
H  H15  1  0.78182202  0.01614781  0.80081444  1  0  0.073825  0  0.93653  0  0  0.084477  0  0.998098  0  0  0.086681  0  0.995705  0  0  0.113086  0.083001  0  0.999645  0
H  H16  1  0.21144706  0.39010987  0.81281655  1  0  0.112402  0  0.976388  0  0  0.119646  0  1.042359  0  0  0.123505  0  1.041083  0  0  0.104904  0.117016  0  1.043207  0
H  H17  1  0.78855265  0.18718573  0.60988996  1  0  0.112421  0  0.976342  0  0  0.119656  0  1.042323  0  0  0.123514  0  1.041047  0  0  0.104921  0.117028  0  1.043166  0
H  H18  1  0.57614648  0.46491881  0.92833116  1  0  0.124444  0  0.961687  0  0  0.132319  0  1.024433  0  0  0.13588  0  1.023778  0  0  0.107802  0.129741  0  1.025309  0
H  H19  1  0.42385455  0.07166807  0.53508282  1  0  0.124457  0  0.961709  0  0  0.132333  0  1.024452  0  0  0.135893  0  1.023797  0  0  0.107801  0.129754  0  1.025328  0
H  H20  1  0.56304700  0.27200730  0.09726606  1  0  0.073119  0  0.958025  0  0  0.08169  0  1.02268  0  0  0.083895  0  1.02092  0  0  0.107791  0.079889  0  1.024247  0
H  H21  1  0.43695471  0.90273345  0.72799083  1  0  0.073173  0  0.957975  0  0  0.081721  0  1.022653  0  0  0.08392  0  1.020899  0  0  0.107806  0.079922  0  1.02422  0
H  H22  1  0.88547614  0.47464651  0.48319780  1  0  0.102388  0  0.923926  0  0  0.120375  0  0.98025  0  0  0.122394  0  0.979743  0  0  0.101966  0.119022  0  0.980665  0
H  H23  1  0.11452156  0.51680211  0.52535416  1  0  0.102427  0  0.923871  0  0  0.120408  0  0.980193  0  0  0.122425  0  0.979685  0  0  0.101979  0.119057  0  0.980609  0
H  H24  1  0.87129433  0.35586796  0.61789842  1  0  0.101531  0  0.92651  0  0  0.118134  0  0.984554  0  0  0.120539  0  0.983396  0  0  0.100144  0.116409  0  0.985514  0
H  H25  1  0.12870063  0.38210024  0.64413239  1  0  0.101554  0  0.926561  0  0  0.118183  0  0.984565  0  0  0.12059  0  0.983399  0  0  0.100165  0.116459  0  0.985526  0
H  H26  1  0.99108580  0.94603129  0.22194217  1  0  0.107076  0  0.913953  0  0  0.124073  0  0.968616  0  0  0.126779  0  0.967189  0  0  0.102992  0.122161  0  0.96972  0
H  H27  1  0.00891415  0.77805768  0.05396933  1  0  0.107051  0  0.913959  0  0  0.124035  0  0.968642  0  0  0.126741  0  0.967214  0  0  0.102984  0.122123  0  0.969741  0
H  H28  1  0.99613017  0.07133248  0.09322173  1  0  0.103775  0  0.913929  0  0  0.121136  0  0.967824  0  0  0.123656  0  0.966694  0  0  0.101473  0.119377  0  0.968632  0
H  H29  1  0.00387244  0.90677776  0.92866676  1  0  0.103721  0  0.913949  0  0  0.121077  0  0.967858  0  0  0.123597  0  0.96673  0  0  0.101448  0.119315  0  0.968666  0
C  C30  1  0.20509795  0.87598478  0.44486236  1  0  0.131213  0  3.788203  0  0  0.098156  0  4.042614  0  0  0.108633  0  4.061262  0  0  0.027712  0.0913  0  4.029946  0
C  C31  1  0.79490311  0.55513777  0.12401635  1  0  0.131206  0  3.788263  0  0  0.098141  0  4.042662  0  0  0.108618  0  4.061309  0  0  0.027731  0.091288  0  4.030003  0
C  C32  1  0.17389256  0.78396915  0.55096585  1  0  -0.253184  0  3.744216  0  0  -0.267788  0  3.997417  0  0  -0.280407  0  4.017876  0  0  -0.107956  -0.259391  0  3.983651  0
C  C33  1  0.82610658  0.44903507  0.21603163  1  0  -0.253136  0  3.744239  0  0  -0.267753  0  3.997451  0  0  -0.280372  0  4.017911  0  0  -0.10795  -0.259344  0  3.983678  0
C  C34  1  0.31039711  0.69959861  0.59715353  1  0  0.280021  0  3.840772  0  0  0.264022  0  4.096757  0  0  0.281249  0  4.112786  0  0  0.118354  0.252425  0  4.086  0
C  C35  1  0.68959991  0.40284670  0.30040247  1  0  0.279973  0  3.840853  0  0  0.263945  0  4.096809  0  0  0.281171  0  4.112839  0  0  0.118314  0.252346  0  4.086051  0
C  C36  1  0.47423664  0.71334621  0.52834190  1  0  -0.249103  0  3.717665  0  0  -0.265757  0  3.976497  0  0  -0.277831  0  3.995268  0  0  -0.107496  -0.258176  0  3.964184  0
C  C37  1  0.52576295  0.47165866  0.28665357  1  0  -0.249196  0  3.717742  0  0  -0.265863  0  3.97659  0  0  -0.277937  0  3.995361  0  0  -0.107541  -0.258289  0  3.96428  0
C  C38  1  0.49226412  0.80782516  0.42177447  1  0  0.146233  0  3.766178  0  0  0.114114  0  4.022365  0  0  0.125096  0  4.040895  0  0  0.037549  0.107166  0  4.009497  0
C  C39  1  0.50773663  0.57822490  0.19217440  1  0  0.146362  0  3.766123  0  0  0.114236  0  4.022296  0  0  0.125218  0  4.040825  0  0  0.037609  0.107289  0  4.009425  0
C  C40  1  0.29457183  0.26156601  0.96908794  1  0  0.148404  0  3.762961  0  0  0.116201  0  4.02087  0  0  0.127082  0  4.038635  0  0  0.038624  0.108996  0  4.008675  0
C  C41  1  0.70542830  0.03091276  0.73843320  1  0  0.148414  0  3.762975  0  0  0.116209  0  4.020893  0  0  0.127092  0  4.038656  0  0  0.038609  0.109003  0  4.008697  0
C  C42  1  0.29202851  0.36751642  0.87285638  1  0  -0.245364  0  3.718769  0  0  -0.26284  0  3.976406  0  0  -0.274657  0  3.995811  0  0  -0.107036  -0.254845  0  3.963096  0
C  C43  1  0.70797051  0.12714540  0.63248261  1  0  -0.245375  0  3.718803  0  0  -0.262854  0  3.976443  0  0  -0.274671  0  3.995847  0  0  -0.107048  -0.254855  0  3.963128  0
C  C44  1  0.39238983  0.44605028  0.85728770  1  0  0.283466  0  3.828121  0  0  0.267037  0  4.086029  0  0  0.283809  0  4.101513  0  0  0.119071  0.255678  0  4.075288  0
C  C45  1  0.60760917  0.14271307  0.55394999  1  0  0.283403  0  3.828249  0  0  0.267005  0  4.08612  0  0  0.283777  0  4.101606  0  0  0.11903  0.255643  0  4.075386  0
C  C46  1  0.49443396  0.40864603  0.93892756  1  0  -0.236501  0  3.725045  0  0  -0.252567  0  3.97887  0  0  -0.263976  0  3.998307  0  0  -0.100802  -0.245241  0  3.966013  0
C  C47  1  0.50556537  0.06107178  0.59135492  1  0  -0.236526  0  3.725186  0  0  -0.25261  0  3.978992  0  0  -0.26402  0  3.998428  0  0  -0.100808  -0.245285  0  3.966137  0
C  C48  1  0.48745743  0.30171424  0.03183116  1  0  0.128102  0  3.775549  0  0  0.098117  0  4.02568  0  0  0.107787  0  4.044598  0  0  0.02902  0.092032  0  4.012564  0
C  C49  1  0.51254435  0.96816729  0.69828518  1  0  0.128073  0  3.775564  0  0  0.098115  0  4.025691  0  0  0.107791  0  4.044609  0  0  0.029018  0.092031  0  4.012576  0
C  C50  1  0.10848602  0.27609236  0.42843587  1  0  0.678238  0  3.859414  0  0  0.634492  0  4.154211  0  0  0.667141  0  4.149363  0  0  0.194827  0.612479  0  4.156524  0
C  C51  1  0.89151248  0.57156395  0.72390905  1  0  0.678298  0  3.859344  0  0  0.63449  0  4.154206  0  0  0.667136  0  4.149361  0  0  0.194837  0.612471  0  4.15653  0
C  C52  1  0.96479186  0.39573114  0.53622995  1  0  -0.231382  0  3.696848  0  0  -0.270813  0  3.947953  0  0  -0.275533  0  3.955573  0  0  -0.165624  -0.2678  0  3.942798  0
C  C53  1  0.03520462  0.46376937  0.60426919  1  0  -0.231542  0  3.696905  0  0  -0.270949  0  3.947987  0  0  -0.275659  0  3.955598  0  0  -0.165699  -0.267936  0  3.942829  0
C  C54  1  0.24070892  0.88947898  0.04503310  1  0  0.693754  0  3.862069  0  0  0.64729  0  4.159772  0  0  0.680523  0  4.153949  0  0  0.199646  0.624695  0  4.162753  0
C  C55  1  0.75929210  0.95496732  0.11051910  1  0  0.693822  0  3.862051  0  0  0.647288  0  4.159867  0  0  0.680522  0  4.154041  0  0  0.199614  0.624685  0  4.162852  0
C  C56  1  0.04000534  0.95644956  0.10649953  1  0  -0.234245  0  3.712537  0  0  -0.2727  0  3.964156  0  0  -0.277654  0  3.971722  0  0  -0.165727  -0.269323  0  3.958921  0
C  C57  1  0.95999881  0.89350051  0.04355084  1  0  -0.23415  0  3.712461  0  0  -0.272597  0  3.964133  0  0  -0.277551  0  3.971699  0  0  -0.165679  -0.269198  0  3.958881  0
N  N58  1  0.27840233  0.61311799  0.70548215  1  0  -0.258386  0  3.345081  0  0  -0.214535  0  3.591031  0  0  -0.231186  0  3.603725  0  0  -0.315351  -0.20284  0  3.582047  0
N  N59  1  0.72159523  0.29451762  0.38688257  1  0  -0.258451  0  3.345144  0  0  -0.214475  0  3.590986  0  0  -0.231122  0  3.603677  0  0  -0.31535  -0.202782  0  3.582013  0
N  N60  1  0.39612344  0.55548099  0.77015068  1  0  -0.250692  0  3.33997  0  0  -0.208799  0  3.588219  0  0  -0.22347  0  3.60018  0  0  -0.314012  -0.198341  0  3.579428  0
N  N61  1  0.60387594  0.22984924  0.44451845  1  0  -0.250629  0  3.340037  0  0  -0.208799  0  3.588262  0  0  -0.223471  0  3.600222  0  0  -0.313979  -0.198343  0  3.579475  0
N  N62  1  0.36125542  0.89015371  0.37984928  1  0  -0.379104  0  3.280496  0  0  -0.301369  0  3.553429  0  0  -0.325423  0  3.572405  0  0  -0.358367  -0.285157  0  3.540459  0
N  N63  1  0.63874546  0.62014979  0.10984731  1  0  -0.379221  0  3.280545  0  0  -0.301451  0  3.553448  0  0  -0.325508  0  3.572436  0  0  -0.358441  -0.285232  0  3.540472  0
N  N64  1  0.38793841  0.22849817  0.04951314  1  0  -0.374942  0  3.277184  0  0  -0.298399  0  3.547471  0  0  -0.32172  0  3.56641  0  0  -0.357201  -0.282473  0  3.534512  0
N  N65  1  0.61206246  0.95048651  0.77150219  1  0  -0.374942  0  3.277155  0  0  -0.298397  0  3.547423  0  0  -0.321717  0  3.566356  0  0  -0.3572  -0.282475  0  3.534472  0
O  O66  1  0.27017084  0.24970567  0.39537549  1  0  -0.639308  0  1.955661  0  0  -0.580348  0  2.197715  0  0  -0.607562  0  2.189019  0  0  -0.329649  -0.561321  0  2.202988  0
O  O67  1  0.72982732  0.60462514  0.75029532  1  0  -0.639336  0  1.955634  0  0  -0.580339  0  2.19769  0  0  -0.607552  0  2.188996  0  0  -0.329648  -0.561305  0  2.202961  0
O  O68  1  0.06106767  0.20569032  0.37282451  1  0  -0.670337  0  1.980748  0  0  -0.611934  0  2.22232  0  0  -0.639413  0  2.21279  0  0  -0.335978  -0.592705  0  2.228135  0
O  O69  1  0.93893012  0.62717583  0.79430946  1  0  -0.670362  0  1.98076  0  0  -0.611948  0  2.222366  0  0  -0.639427  0  2.21284  0  0  -0.335987  -0.592713  0  2.228177  0
O  O70  1  0.31949980  0.94359400  0.08397239  1  0  -0.690504  0  2.086032  0  0  -0.619314  0  2.365355  0  0  -0.651112  0  2.353721  0  0  -0.345381  -0.596646  0  2.372422  0
O  O71  1  0.68050297  0.91602847  0.05640202  1  0  -0.69051  0  2.086085  0  0  -0.619272  0  2.365411  0  0  -0.651071  0  2.353777  0  0  -0.34534  -0.596603  0  2.372483  0
O  O72  1  0.32622238  0.78348319  0.95801601  1  0  -0.645477  0  1.931529  0  0  -0.589678  0  2.168243  0  0  -0.614716  0  2.158313  0  0  -0.329804  -0.572207  0  2.174779  0
O  O73  1  0.67377830  0.04198631  0.21651487  1  0  -0.645536  0  1.931548  0  0  -0.589718  0  2.168294  0  0  -0.614757  0  2.158366  0  0  -0.329806  -0.572245  0  2.174834  0
