# generated using pymatgen
data_ZnH6(C2N3)4
_symmetry_space_group_name_H-M   'P 1'
_cell_length_a   8.61572877
_cell_length_b   8.61545992
_cell_length_c   10.14547226
_cell_angle_alpha   105.78657864
_cell_angle_beta   105.71321662
_cell_angle_gamma   111.14187175
_symmetry_Int_Tables_number   1
_chemical_formula_structural   ZnH6(C2N3)4
_chemical_formula_sum   'Zn2 H12 C16 N24'
_cell_volume   616.15054122
_cell_formula_units_Z   2
loop_
 _symmetry_equiv_pos_site_id
 _symmetry_equiv_pos_as_xyz
  1  'x, y, z'
loop_
 _atom_site_type_symbol
 _atom_site_label
 _atom_site_symmetry_multiplicity
 _atom_site_fract_x
 _atom_site_fract_y
 _atom_site_fract_z
 _atom_site_occupancy
 _atom_site_hle17_bader_spin_density
 _atom_site_hle17_ddec_charge
 _atom_site_hle17_ddec_spin_density
 _atom_site_hle17_ddec_sum_bond_order
 _atom_site_hle17_magmom
 _atom_site_hse06_10hf_bader_spin_density
 _atom_site_hse06_10hf_ddec_charge
 _atom_site_hse06_10hf_ddec_spin_density
 _atom_site_hse06_10hf_ddec_sum_bond_order
 _atom_site_hse06_10hf_magmom
 _atom_site_hse06_bader_spin_density
 _atom_site_hse06_ddec_charge
 _atom_site_hse06_ddec_spin_density
 _atom_site_hse06_ddec_sum_bond_order
 _atom_site_hse06_magmom
 _atom_site_pbe_bader_spin_density
 _atom_site_pbe_cm5_charge
 _atom_site_pbe_ddec_charge
 _atom_site_pbe_ddec_spin_density
 _atom_site_pbe_ddec_sum_bond_order
 _atom_site_pbe_magmom
Zn  Zn0  1  0.88595810  0.13595796  0.25001187  1  0  0.853805  0  2.050157  0  0  0.641864  0  2.527129  0  0  0.680366  0  2.483902  0  0  0.753216  0.614415  0  2.558032  0
Zn  Zn1  1  0.11404291  0.86404365  0.74998975  1  0  0.853787  0  2.050217  0  0  0.641867  0  2.527154  0  0  0.680374  0  2.483924  0  0  0.7532  0.61442  0  2.558049  0
H  H2  1  0.79510750  0.07182737  0.89319433  1  0  0.080863  0  0.982465  0  0  0.079367  0  1.067769  0  0  0.082682  0  1.063635  0  0  0.119377  0.077108  0  1.070478  0
H  H3  1  0.17843968  0.40162128  0.60681046  1  0  0.080981  0  0.982256  0  0  0.079575  0  1.067437  0  0  0.082869  0  1.063315  0  0  0.119432  0.077195  0  1.070353  0
H  H4  1  0.20489287  0.92817288  0.10680782  1  0  0.080876  0  0.982487  0  0  0.079366  0  1.067794  0  0  0.082681  0  1.063659  0  0  0.11938  0.077106  0  1.070505  0
H  H5  1  0.82156310  0.59837898  0.39318928  1  0  0.081007  0  0.982174  0  0  0.079584  0  1.067384  0  0  0.082878  0  1.063259  0  0  0.119437  0.077203  0  1.070302  0
H  H6  1  0.57388150  0.51101865  0.81347056  1  0  0.116479  0  0.98727  0  0  0.114066  0  1.063389  0  0  0.119161  0  1.057868  0  0  0.133607  0.110194  0  1.067713  0
H  H7  1  0.69742198  0.26047247  0.68643466  1  0  0.116093  0  0.988557  0  0  0.114766  0  1.063251  0  0  0.119536  0  1.058081  0  0  0.133682  0.110102  0  1.06819  0
H  H8  1  0.42612007  0.48898161  0.18652890  1  0  0.116579  0  0.987131  0  0  0.114104  0  1.063326  0  0  0.119201  0  1.057801  0  0  0.133622  0.110227  0  1.067654  0
H  H9  1  0.30257527  0.73952367  0.31356287  1  0  0.116071  0  0.988565  0  0  0.114766  0  1.063225  0  0  0.119533  0  1.058057  0  0  0.133688  0.110109  0  1.068152  0
H  H10  1  0.95368914  0.78950377  0.27236493  1  0  0.119975  0  0.947424  0  0  0.119665  0  1.026216  0  0  0.123676  0  1.021215  0  0  0.146462  0.116635  0  1.030046  0
H  H11  1  0.51725955  0.18147124  0.22758563  1  0  0.120432  0  0.946874  0  0  0.120193  0  1.02545  0  0  0.124226  0  1.02048  0  0  0.146412  0.117072  0  1.029422  0
H  H12  1  0.04631065  0.21049784  0.72763444  1  0  0.119994  0  0.947403  0  0  0.119683  0  1.0262  0  0  0.123696  0  1.021197  0  0  0.146472  0.116654  0  1.03003  0
H  H13  1  0.48273898  0.81852763  0.77241479  1  0  0.120448  0  0.946881  0  0  0.120195  0  1.025461  0  0  0.124227  0  1.020494  0  0  0.146417  0.117075  0  1.029434  0
C  C14  1  0.78749969  0.44027725  0.03736921  1  0  0.414735  0  3.842063  0  0  0.371453  0  4.133348  0  0  0.387386  0  4.148177  0  0  0.304912  0.361179  0  4.122739  0
C  C15  1  0.40287711  0.25016325  0.46256658  1  0  0.414286  0  3.84575  0  0  0.371256  0  4.136692  0  0  0.387216  0  4.151538  0  0  0.305127  0.360853  0  4.126258  0
C  C16  1  0.21250131  0.55972436  0.96263143  1  0  0.414749  0  3.842113  0  0  0.371468  0  4.133399  0  0  0.387403  0  4.148226  0  0  0.304938  0.361195  0  4.122791  0
C  C17  1  0.59712079  0.74983426  0.53743437  1  0  0.414229  0  3.845857  0  0  0.371198  0  4.136794  0  0  0.387158  0  4.151639  0  0  0.305075  0.360796  0  4.126359  0
C  C18  1  0.79915049  0.19596831  0.96195364  1  0  0.191619  0  3.743648  0  0  0.141134  0  4.018151  0  0  0.152656  0  4.032413  0  0  0.1249  0.133671  0  4.007843  0
C  C19  1  0.23390181  0.33697835  0.53807874  1  0  0.192248  0  3.741842  0  0  0.141684  0  4.016297  0  0  0.153233  0  4.030619  0  0  0.124318  0.134289  0  4.006297  0
C  C20  1  0.20085051  0.80403330  0.03804700  1  0  0.191598  0  3.743641  0  0  0.141132  0  4.018137  0  0  0.152654  0  4.032396  0  0  0.124895  0.133668  0  4.007829  0
C  C21  1  0.76609977  0.66302191  0.46192171  1  0  0.19225  0  3.741728  0  0  0.141698  0  4.016172  0  0  0.15325  0  4.030492  0  0  0.124335  0.134304  0  4.006173  0
C  C22  1  0.65866627  0.61704572  0.92811192  1  0  0.171233  0  3.588511  0  0  0.113208  0  3.865925  0  0  0.124887  0  3.875291  0  0  0.157532  0.105629  0  3.859723  0
C  C23  1  0.68888413  0.23062941  0.57184031  1  0  0.17194  0  3.585867  0  0  0.113037  0  3.863707  0  0  0.124902  0  3.873175  0  0  0.157413  0.106037  0  3.857369  0
C  C24  1  0.34133472  0.38295590  0.07188772  1  0  0.17113  0  3.588379  0  0  0.113154  0  3.865793  0  0  0.124832  0  3.875161  0  0  0.157515  0.105579  0  3.859594  0
C  C25  1  0.31111312  0.76936674  0.42815722  1  0  0.17194  0  3.585824  0  0  0.113029  0  3.863673  0  0  0.124896  0  3.873139  0  0  0.157397  0.106025  0  3.857332  0
C  C26  1  0.85367073  0.75936580  0.16427207  1  0  0.191554  0  3.589985  0  0  0.125459  0  3.853727  0  0  0.140122  0  3.863587  0  0  0.173046  0.115798  0  3.847189  0
C  C27  1  0.59517224  0.18956263  0.33569991  1  0  0.190383  0  3.589304  0  0  0.124341  0  3.852636  0  0  0.138884  0  3.86256  0  0  0.173059  0.114772  0  3.846334  0
C  C28  1  0.14633027  0.24063581  0.83572857  1  0  0.191494  0  3.59003  0  0  0.125391  0  3.853777  0  0  0.140049  0  3.863646  0  0  0.173004  0.115728  0  3.84724  0
C  C29  1  0.40482565  0.81043488  0.66429907  1  0  0.190396  0  3.589387  0  0  0.124384  0  3.85268  0  0  0.13893  0  3.862605  0  0  0.17307  0.114814  0  3.84638  0
N  N30  1  0.83897139  0.24929231  0.10986947  1  0  -0.283377  0  3.311647  0  0  -0.198056  0  3.615455  0  0  -0.215449  0  3.629361  0  0  -0.274345  -0.185965  0  3.606364  0
N  N31  1  0.13933222  0.22894842  0.39014327  1  0  -0.283812  0  3.313474  0  0  -0.198657  0  3.617778  0  0  -0.216053  0  3.631599  0  0  -0.274419  -0.186708  0  3.608018  0
N  N32  1  0.16102897  0.75070793  0.89013070  1  0  -0.283367  0  3.311623  0  0  -0.198052  0  3.615428  0  0  -0.215448  0  3.629335  0  0  -0.274337  -0.185961  0  3.606337  0
N  N33  1  0.86066631  0.77105045  0.60985716  1  0  -0.283778  0  3.313438  0  0  -0.198628  0  3.617733  0  0  -0.216027  0  3.631554  0  0  -0.274399  -0.186679  0  3.607971  0
N  N34  1  0.83069309  0.40950115  0.16042155  1  0  -0.343897  0  2.916477  0  0  -0.327742  0  3.193922  0  0  -0.338618  0  3.209909  0  0  -0.24685  -0.320493  0  3.183481  0
N  N35  1  0.24902836  0.17025638  0.33953655  1  0  -0.3438  0  2.920287  0  0  -0.32766  0  3.197559  0  0  -0.33855  0  3.213486  0  0  -0.246981  -0.320459  0  3.186795  0
N  N36  1  0.16930543  0.59049773  0.83957789  1  0  -0.34388  0  2.916498  0  0  -0.327728  0  3.19394  0  0  -0.338604  0  3.209927  0  0  -0.246843  -0.32048  0  3.1835  0
N  N37  1  0.75097079  0.82974386  0.66046236  1  0  -0.343789  0  2.920272  0  0  -0.327665  0  3.197577  0  0  -0.338554  0  3.213504  0  0  -0.246975  -0.320464  0  3.186814  0
N  N38  1  0.76544143  0.31446149  0.91078042  1  0  -0.460068  0  2.978626  0  0  -0.420588  0  3.2449  0  0  -0.437276  0  3.256994  0  0  -0.342709  -0.408203  0  3.236277  0
N  N39  1  0.40363319  0.35463007  0.58916800  1  0  -0.460562  0  2.97929  0  0  -0.420458  0  3.245401  0  0  -0.437404  0  3.257572  0  0  -0.342289  -0.408916  0  3.237014  0
N  N40  1  0.23455773  0.68553875  0.08921948  1  0  -0.460061  0  2.978598  0  0  -0.420599  0  3.244872  0  0  -0.437284  0  3.256963  0  0  -0.342726  -0.408221  0  3.236263  0
N  N41  1  0.59636781  0.64537154  0.41083263  1  0  -0.460605  0  2.979331  0  0  -0.420483  0  3.24543  0  0  -0.437429  0  3.257599  0  0  -0.342303  -0.408939  0  3.23704  0
N  N42  1  0.79682076  0.87071377  0.12614363  1  0  -0.25552  0  3.249547  0  0  -0.177471  0  3.555839  0  0  -0.192083  0  3.565261  0  0  -0.248339  -0.167502  0  3.549391  0
N  N43  1  0.74466874  0.17088938  0.37388900  1  0  -0.255314  0  3.250336  0  0  -0.177366  0  3.556744  0  0  -0.191984  0  3.566244  0  0  -0.248729  -0.167556  0  3.55121  0
N  N44  1  0.20318145  0.12928785  0.87385728  1  0  -0.255511  0  3.249605  0  0  -0.177455  0  3.555892  0  0  -0.192068  0  3.565314  0  0  -0.248304  -0.167485  0  3.549442  0
N  N45  1  0.25532915  0.82910813  0.62610998  1  0  -0.255379  0  3.25045  0  0  -0.177435  0  3.556843  0  0  -0.192054  0  3.566344  0  0  -0.248733  -0.167626  0  3.551313  0
N  N46  1  0.67376954  0.78217497  0.97726674  1  0  -0.226751  0  2.914627  0  0  -0.208676  0  3.195883  0  0  -0.216874  0  3.209555  0  0  -0.221989  -0.203106  0  3.186637  0
N  N47  1  0.80494895  0.19667416  0.52275692  1  0  -0.227309  0  2.910332  0  0  -0.209083  0  3.191917  0  0  -0.217271  0  3.205472  0  0  -0.221534  -0.203751  0  3.182769  0
N  N48  1  0.32623388  0.21782665  0.02273445  1  0  -0.226758  0  2.91458  0  0  -0.208689  0  3.195819  0  0  -0.216883  0  3.209486  0  0  -0.222019  -0.203118  0  3.186571  0
N  N49  1  0.19505326  0.80332746  0.47724301  1  0  -0.227253  0  2.910366  0  0  -0.209032  0  3.19196  0  0  -0.217223  0  3.205516  0  0  -0.22151  -0.203703  0  3.182814  0
N  N50  1  0.76844960  0.59701455  0.04216947  1  0  -0.144124  0  3.564076  0  0  -0.053534  0  3.782096  0  0  -0.071026  0  3.803155  0  0  -0.202059  -0.04208  0  3.767496  0
N  N51  1  0.55486404  0.22641253  0.45777083  1  0  -0.142099  0  3.561241  0  0  -0.051779  0  3.779758  0  0  -0.06922  0  3.800742  0  0  -0.202248  -0.04021  0  3.764878  0
N  N52  1  0.23155077  0.40298570  0.95783071  1  0  -0.144067  0  3.564089  0  0  -0.053474  0  3.782087  0  0  -0.070967  0  3.803148  0  0  -0.202041  -0.042019  0  3.767486  0
N  N53  1  0.44513575  0.77358908  0.54222854  1  0  -0.142089  0  3.561239  0  0  -0.051779  0  3.779753  0  0  -0.069218  0  3.800734  0  0  -0.202254  -0.04021  0  3.764875  0
