# generated using pymatgen
data_Co2H26C28N4O9
_symmetry_space_group_name_H-M   'P 1'
_cell_length_a   11.05836740
_cell_length_b   11.05836910
_cell_length_c   14.75692747
_cell_angle_alpha   110.34227904
_cell_angle_beta   110.34279421
_cell_angle_gamma   93.38511999
_symmetry_Int_Tables_number   1
_chemical_formula_structural   Co2H26C28N4O9
_chemical_formula_sum   'Co4 H52 C56 N8 O18'
_cell_volume   1552.93799334
_cell_formula_units_Z   2
loop_
 _symmetry_equiv_pos_site_id
 _symmetry_equiv_pos_as_xyz
  1  'x, y, z'
loop_
 _atom_site_type_symbol
 _atom_site_label
 _atom_site_symmetry_multiplicity
 _atom_site_fract_x
 _atom_site_fract_y
 _atom_site_fract_z
 _atom_site_occupancy
 _atom_site_pbe_bader_charge
 _atom_site_pbe_bader_spin_density
 _atom_site_pbe_cm5_charge
 _atom_site_pbe_ddec_charge
 _atom_site_pbe_ddec_spin_density
 _atom_site_pbe_ddec_sum_bond_order
 _atom_site_pbe_magmom
Co  Co0  1  0.78490459  0.02877226  0.79154274  1  1.295979  2.608431  0.667425  0.912214  2.827516  2.403978  2.591
Co  Co1  1  0.97121979  0.21506744  0.70846402  1  1.295887  2.608368  0.667341  0.912109  2.827391  2.403366  2.59
Co  Co2  1  0.21508136  0.97119509  0.20847330  1  1.296141  2.608264  0.667452  0.912133  2.827345  2.405114  2.59
Co  Co3  1  0.02879908  0.78492999  0.29153097  1  1.296629  2.608237  0.667594  0.912265  2.82739  2.405727  2.59
H  H4  1  0.81018834  0.26896465  0.81642632  1  0.641022  0.000331  0.286896  0.370827  0.000369  0.990612  0.001
H  H5  1  0.73102190  0.18979751  0.68358395  1  0.641604  0.000332  0.286874  0.370797  0.00037  0.990681  0.001
H  H6  1  0.18977434  0.73104005  0.18358453  1  0.641437  0.000333  0.286871  0.37075  0.000371  0.99076  0.001
H  H7  1  0.26894776  0.81019902  0.31642050  1  0.6416  0.000332  0.286912  0.370939  0.000369  0.990496  0.001
H  H8  1  0.55424180  0.92440010  0.58373543  1  0.146081  0.001757  0.117679  0.093674  0.000638  1.052321  0.001
H  H9  1  0.07558411  0.44577532  0.91627271  1  0.145771  0.001756  0.117685  0.093628  0.000638  1.052408  0.001
H  H10  1  0.44575156  0.07559480  0.41627200  1  0.14608  0.001756  0.117667  0.093679  0.000638  1.052344  0.001
H  H11  1  0.92441933  0.55427086  0.08373290  1  0.145735  0.001757  0.117639  0.093543  0.000638  1.052506  0.001
H  H12  1  0.57961304  0.06231902  0.88982871  1  0.091402  0.001293  0.115216  0.093169  0.000172  1.009955  0.001
H  H13  1  0.93769382  0.42036862  0.61017904  1  0.091544  0.001291  0.115181  0.093098  0.000172  1.01002  0.001
H  H14  1  0.42037917  0.93768816  0.11018022  1  0.091489  0.001292  0.115163  0.093027  0.000171  1.010074  0.001
H  H15  1  0.06231974  0.57966145  0.38982909  1  0.088086  0.001287  0.115255  0.093108  0.000172  1.009866  0.001
H  H16  1  0.19631811  0.89122569  0.63506784  1  0.07194  9.6e-05  0.110451  0.119451  -0.000126  1.006049  0.0
H  H17  1  0.10879018  0.80368102  0.86491638  1  0.071431  9.6e-05  0.11043  0.119414  -0.000126  1.006128  0.0
H  H18  1  0.80367713  0.10876955  0.36492728  1  0.071937  9.6e-05  0.110415  0.119409  -0.000126  1.006049  0.0
H  H19  1  0.89121729  0.19635733  0.13508486  1  0.071745  9.5e-05  0.110367  0.119199  -0.000127  1.006267  0.0
H  H20  1  0.31994408  0.93118638  0.88415772  1  0.047912  8.4e-05  0.09384  0.132464  -9e-06  0.995634  0.0
H  H21  1  0.06883284  0.68001283  0.61581879  1  0.047606  8.4e-05  0.093724  0.132368  -9e-06  0.995577  0.0
H  H22  1  0.68004726  0.06880512  0.11583612  1  0.047996  8.4e-05  0.093819  0.132437  -9e-06  0.995652  0.0
H  H23  1  0.93117020  0.31998501  0.38416953  1  0.047711  8.4e-05  0.093773  0.132461  -9e-06  0.995624  0.0
H  H24  1  0.21045613  0.00919183  0.81405024  1  0.077319  0.000323  0.098486  0.14893  3.9e-05  1.002553  0.0
H  H25  1  0.99081358  0.78950955  0.68592272  1  0.076803  0.000324  0.098488  0.148859  3.9e-05  1.002479  0.0
H  H26  1  0.78954414  0.99079970  0.18594996  1  0.076904  0.000324  0.098548  0.148958  3.9e-05  1.002514  0.0
H  H27  1  0.00918625  0.21050882  0.31407208  1  0.076968  0.000324  0.098501  0.148819  3.9e-05  1.00255  0.0
H  H28  1  0.36320169  0.10250321  0.91793882  1  0.059484  5.1e-05  0.093089  0.130397  6e-06  0.995694  0.0
H  H29  1  0.89750599  0.63675033  0.58203991  1  0.059942  5.1e-05  0.093069  0.130442  6e-06  0.995765  0.0
H  H30  1  0.63678677  0.89748285  0.08205422  1  0.05937  5.1e-05  0.093052  0.130321  6e-06  0.995724  0.0
H  H31  1  0.10249813  0.36324879  0.41796256  1  0.059947  5.1e-05  0.093041  0.130373  6e-06  0.995766  0.0
H  H32  1  0.99967761  0.88158013  0.49347411  1  0.134288  0.001891  0.117976  0.092163  0.000596  1.042588  0.001
H  H33  1  0.11843307  0.00033474  0.00651837  1  0.134369  0.001891  0.117963  0.092236  0.000596  1.0424  0.001
H  H34  1  0.00033433  0.11841771  0.50651649  1  0.136328  0.001891  0.117948  0.092215  0.000597  1.042426  0.001
H  H35  1  0.88156612  0.99966234  0.99348163  1  0.136481  0.001892  0.117981  0.092233  0.000597  1.042392  0.001
H  H36  1  0.73136705  0.68808306  0.18679564  1  0.091423  0.001507  0.1181  0.097619  0.000258  0.995564  0.001
H  H37  1  0.31190607  0.26864814  0.31320808  1  0.091394  0.001505  0.118101  0.097651  0.000258  0.995375  0.001
H  H38  1  0.26864181  0.31191791  0.81318549  1  0.091426  0.001506  0.118071  0.097662  0.000258  0.995417  0.001
H  H39  1  0.68808422  0.73135185  0.68679376  1  0.091514  0.001507  0.118119  0.097709  0.000258  0.995298  0.001
H  H40  1  0.58635526  0.80316369  0.43487834  1  0.137772  3.5e-05  0.109746  0.124493  -0.000223  1.018479  0.0
H  H41  1  0.19683119  0.41364764  0.06511409  1  0.137534  3.5e-05  0.109805  0.124552  -0.000223  1.01856  0.0
H  H42  1  0.41365663  0.19683411  0.56510750  1  0.137032  3.4e-05  0.109775  0.124493  -0.000223  1.018476  0.0
H  H43  1  0.80317488  0.58635578  0.93489474  1  0.136965  3.4e-05  0.109789  0.124478  -0.000223  1.018544  0.0
H  H44  1  0.49075160  0.71393675  0.15146657  1  0.026491  7.6e-05  0.092509  0.129184  -2.3e-05  1.003472  0.0
H  H45  1  0.28605100  0.50925182  0.34851600  1  0.02647  7.6e-05  0.092546  0.129257  -2.3e-05  1.003583  0.0
H  H46  1  0.50923056  0.28607199  0.84851985  1  0.026576  7.7e-05  0.092506  0.129138  -2.2e-05  1.003469  0.0
H  H47  1  0.71393818  0.49075757  0.65148730  1  0.026702  7.7e-05  0.092538  0.129225  -2.2e-05  1.003438  0.0
H  H48  1  0.43006594  0.72400020  0.24976274  1  0.075029  0.000517  0.098234  0.14448  0.00018  1.015908  0.0
H  H49  1  0.27598364  0.56993232  0.25022541  1  0.074307  0.000517  0.098358  0.144617  0.000179  1.0162  0.0
H  H50  1  0.56994000  0.27600894  0.75023940  1  0.075001  0.000516  0.09831  0.144523  0.000179  1.015982  0.0
H  H51  1  0.72400351  0.43008340  0.74978306  1  0.0745  0.000516  0.098305  0.144534  0.000179  1.016239  0.0
H  H52  1  0.47542009  0.57721248  0.18543385  1  0.037145  0.000149  0.094975  0.135466  3.7e-05  0.992511  0.0
H  H53  1  0.42277544  0.52458636  0.31456415  1  0.03712  0.000149  0.094937  0.135493  3.7e-05  0.992686  0.0
H  H54  1  0.52457302  0.42279970  0.81457322  1  0.037019  0.000149  0.094962  0.135435  3.7e-05  0.99249  0.0
H  H55  1  0.57721471  0.47542615  0.68544359  1  0.037074  0.000149  0.094961  0.135461  3.8e-05  0.992531  0.0
C  C56  1  0.36612790  0.89633514  0.59528544  1  0.045074  0.009421  -0.018236  -0.078674  0.004857  4.003493  0.008
C  C57  1  0.10365762  0.63386263  0.90469722  1  0.045354  0.009418  -0.018123  -0.078237  0.004856  4.00324  0.008
C  C58  1  0.63383179  0.10364257  0.40466755  1  0.045521  0.009416  -0.01819  -0.078326  0.004854  4.003248  0.008
C  C59  1  0.89634420  0.36616009  0.09530870  1  0.045701  0.009415  -0.018211  -0.078718  0.004853  4.00343  0.008
C  C60  1  0.50265130  0.93753927  0.63593634  1  0.41418  -0.005019  0.049408  0.073502  -0.005802  3.910212  -0.003
C  C61  1  0.06243932  0.49733995  0.86405534  1  0.41452  -0.005009  0.049263  0.073219  -0.005791  3.910532  -0.003
C  C62  1  0.49731373  0.06242434  0.36404353  1  0.413954  -0.005018  0.04916  0.073004  -0.005798  3.910012  -0.003
C  C63  1  0.93756446  0.50267928  0.13594138  1  0.414626  -0.005021  0.049275  0.073427  -0.005803  3.910079  -0.003
C  C64  1  0.51515822  0.01450294  0.80654110  1  0.470567  -0.009058  0.0448  0.023572  -0.010178  3.900823  -0.006
C  C65  1  0.98550124  0.48483322  0.69346215  1  0.470185  -0.009048  0.044846  0.023866  -0.010168  3.900275  -0.006
C  C66  1  0.48483238  0.98547592  0.19346013  1  0.47001  -0.009068  0.044901  0.024006  -0.010189  3.899915  -0.006
C  C67  1  0.01453001  0.51519872  0.30654289  1  0.473587  -0.009056  0.044867  0.024014  -0.010183  3.900432  -0.006
C  C68  1  0.37839385  0.97963144  0.77348309  1  0.051148  0.005359  -0.0043  0.128159  0.002544  3.980844  0.005
C  C69  1  0.02037314  0.62159411  0.72650783  1  0.051156  0.005355  -0.004267  0.128001  0.002542  3.981114  0.005
C  C70  1  0.62160454  0.02034905  0.22650836  1  0.050897  0.005361  -0.004424  0.127867  0.002544  3.981296  0.005
C  C71  1  0.97963434  0.37844426  0.27349545  1  0.050584  0.005357  -0.004311  0.127907  0.002543  3.981187  0.005
C  C72  1  0.30339538  0.91864379  0.66519450  1  -0.00879  -0.011838  -0.067278  -0.117794  -0.012833  3.900115  -0.007
C  C73  1  0.08136445  0.69660479  0.83479437  1  -0.008533  -0.01183  -0.067176  -0.117752  -0.012825  3.90024  -0.007
C  C74  1  0.69659593  0.08134086  0.33478197  1  -0.009178  -0.011843  -0.067265  -0.117837  -0.012838  3.900646  -0.007
C  C75  1  0.91865010  0.30342550  0.16521476  1  -0.00857  -0.011846  -0.067204  -0.117362  -0.012841  3.899912  -0.007
C  C76  1  0.29278788  0.83583784  0.47802171  1  1.576345  0.001373  0.212874  0.577489  0.000396  4.191552  0.001
C  C77  1  0.16416038  0.70718354  0.02197330  1  1.576785  0.001374  0.212725  0.57709  0.000397  4.192043  0.001
C  C78  1  0.70718505  0.16417544  0.52192623  1  1.576713  0.001376  0.213052  0.577548  0.000402  4.192089  0.001
C  C79  1  0.83581720  0.29282253  0.97805462  1  1.576317  0.001375  0.21292  0.577491  0.000399  4.19215  0.001
C  C80  1  0.31472378  0.00730845  0.85149627  1  -0.093884  0.000539  -0.236781  -0.415187  0.000262  3.954751  0.0
C  C81  1  0.99270865  0.68523944  0.64848075  1  -0.093379  0.000538  -0.236644  -0.415022  0.000262  3.954747  0.0
C  C82  1  0.68527052  0.99268272  0.14849688  1  -0.093528  0.000538  -0.236722  -0.415002  0.000261  3.954837  0.0
C  C83  1  0.00729603  0.31478286  0.35151157  1  -0.093769  0.000539  -0.23674  -0.415141  0.000262  3.955016  0.0
C  C84  1  0.79762784  0.84933426  0.47940912  1  0.035191  0.014497  -0.015378  -0.073957  0.007557  3.977771  0.011
C  C85  1  0.15064595  0.20238264  0.02059690  1  0.035872  0.014493  -0.015347  -0.073956  0.007554  3.978268  0.011
C  C86  1  0.20237482  0.15061429  0.52056301  1  0.03564  0.014497  -0.015326  -0.073695  0.007558  3.977084  0.011
C  C87  1  0.84936915  0.79762678  0.97944494  1  0.034433  0.014503  -0.015388  -0.073478  0.00756  3.977115  0.011
C  C88  1  0.89698742  0.83987679  0.44085640  1  0.438139  -0.006321  0.047931  0.068867  -0.006863  3.912562  -0.004
C  C89  1  0.16013525  0.10302188  0.05915311  1  0.438196  -0.006321  0.047958  0.069003  -0.006863  3.912316  -0.004
C  C90  1  0.10302455  0.16011913  0.55913508  1  0.437109  -0.006315  0.047848  0.068701  -0.006855  3.912199  -0.004
C  C91  1  0.83987111  0.89697210  0.94087640  1  0.437135  -0.006321  0.047884  0.068795  -0.006863  3.912098  -0.004
C  C92  1  0.74629745  0.73107861  0.26958575  1  0.494445  -0.008844  0.045833  0.026902  -0.009873  3.897103  -0.006
C  C93  1  0.26891658  0.25372758  0.23041859  1  0.493682  -0.00884  0.045766  0.027037  -0.009868  3.896674  -0.005
C  C94  1  0.25372518  0.26892631  0.73039994  1  0.494259  -0.008837  0.045787  0.026859  -0.009865  3.897004  -0.005
C  C95  1  0.73107865  0.74627640  0.76959097  1  0.493887  -0.008846  0.045723  0.026713  -0.009876  3.897006  -0.006
C  C96  1  0.63962690  0.73692543  0.30005855  1  0.05425  0.005937  -0.006097  0.126043  0.002866  3.985083  0.005
C  C97  1  0.26307536  0.36039886  0.19994707  1  0.054285  0.005937  -0.006106  0.126054  0.002866  3.985169  0.005
C  C98  1  0.36039360  0.26309255  0.69993131  1  0.05533  0.005937  -0.005974  0.126121  0.002867  3.984948  0.005
C  C99  1  0.73692375  0.63961177  0.80006724  1  0.055057  0.005939  -0.006001  0.126338  0.002867  3.98496  0.005
C  C100  1  0.66689030  0.79515593  0.40781737  1  -0.143412  -0.011742  -0.068967  -0.125235  -0.012799  3.881663  -0.007
C  C101  1  0.20484669  0.33311107  0.09217828  1  -0.143435  -0.011737  -0.069045  -0.125413  -0.012794  3.881985  -0.007
C  C102  1  0.33310767  0.20484654  0.59216202  1  -0.144124  -0.011732  -0.069076  -0.125437  -0.012791  3.881452  -0.007
C  C103  1  0.79516528  0.66689654  0.90783585  1  -0.143798  -0.01174  -0.069046  -0.125561  -0.012799  3.881611  -0.007
C  C104  1  0.83673834  0.92744847  0.59505904  1  1.589048  0.01011  0.21977  0.590827  0.007073  4.170054  0.007
C  C105  1  0.07255178  0.16329198  0.90496222  1  1.58835  0.0101  0.219794  0.590895  0.007064  4.170191  0.007
C  C106  1  0.16328164  0.07247212  0.40493068  1  1.588102  0.010128  0.219878  0.591034  0.007082  4.170237  0.007
C  C107  1  0.92750792  0.83670587  0.09508541  1  1.588925  0.010113  0.219575  0.59028  0.007078  4.170497  0.007
C  C108  1  0.50175282  0.68539396  0.21767129  1  -0.045345  0.000835  -0.238903  -0.416463  0.000463  3.96397  0.001
C  C109  1  0.31460489  0.49826902  0.28232579  1  -0.044641  0.000835  -0.239033  -0.416708  0.000463  3.96471  0.001
C  C110  1  0.49825694  0.31462274  0.78233039  1  -0.046062  0.000836  -0.238904  -0.416275  0.000464  3.96403  0.001
C  C111  1  0.68539213  0.50174497  0.71768140  1  -0.045423  0.000836  -0.238983  -0.416579  0.000464  3.964317  0.001
N  N112  1  0.57659064  0.99438896  0.73959015  1  -1.270065  0.063889  -0.325002  -0.249521  0.034154  3.60297  0.054
N  N113  1  0.00558403  0.42338966  0.76041020  1  -1.270206  0.063886  -0.325012  -0.249549  0.034147  3.602441  0.054
N  N114  1  0.42337075  0.00555559  0.26039268  1  -1.26954  0.063871  -0.324905  -0.249375  0.034144  3.602255  0.054
N  N115  1  0.99443652  0.57663031  0.23958968  1  -1.270246  0.063894  -0.32496  -0.249578  0.034153  3.602507  0.054
N  N116  1  0.87220243  0.78046875  0.33815799  1  -1.237293  0.060969  -0.330757  -0.24055  0.032282  3.636113  0.053
N  N117  1  0.21955503  0.12780318  0.16185098  1  -1.236584  0.060966  -0.330645  -0.240829  0.032279  3.636155  0.053
N  N118  1  0.12780922  0.21955023  0.66183595  1  -1.236389  0.060965  -0.330593  -0.240553  0.032278  3.636067  0.053
N  N119  1  0.78045734  0.87218244  0.83817454  1  -1.235977  0.06097  -0.330577  -0.240537  0.032282  3.636027  0.053
O  O120  1  0.36132819  0.82705565  0.42311594  1  -1.157294  0.00437  -0.311478  -0.528682  0.001755  2.193513  0.004
O  O121  1  0.17292829  0.63866768  0.07689616  1  -1.157472  0.004375  -0.31143  -0.528495  0.001758  2.194137  0.004
O  O122  1  0.63867151  0.17295675  0.57685019  1  -1.157041  0.004382  -0.31169  -0.528783  0.001761  2.193959  0.004
O  O123  1  0.82704718  0.36135438  0.92314482  1  -1.156482  0.004373  -0.311575  -0.528644  0.001756  2.193792  0.004
O  O124  1  0.16772538  0.80012181  0.44204613  1  -1.199131  0.06066  -0.312545  -0.573322  0.031543  2.338257  0.052
O  O125  1  0.19991485  0.83225167  0.05794031  1  -1.199235  0.060665  -0.312502  -0.573271  0.031546  2.337953  0.052
O  O126  1  0.83224503  0.19992167  0.55788997  1  -1.199651  0.060625  -0.312569  -0.573481  0.031523  2.337801  0.052
O  O127  1  0.80006656  0.16776100  0.94208555  1  -1.199483  0.060642  -0.312583  -0.573454  0.031534  2.337942  0.052
O  O128  1  0.76172231  0.90379824  0.63844957  1  -1.156546  0.080336  -0.302047  -0.54853  0.041443  2.333396  0.068
O  O129  1  0.09622952  0.23827861  0.86157241  1  -1.156742  0.080296  -0.302035  -0.548529  0.041427  2.333458  0.068
O  O130  1  0.23827377  0.09613646  0.36153763  1  -1.156137  0.080368  -0.302083  -0.548766  0.041464  2.334093  0.068
O  O131  1  0.90384618  0.76170342  0.13847459  1  -1.156536  0.08037  -0.301848  -0.548382  0.041465  2.334464  0.068
O  O132  1  0.94359282  0.01309881  0.64068425  1  -1.160422  0.069322  -0.312968  -0.562584  0.035196  2.389867  0.056
O  O133  1  0.98686856  0.05645626  0.85933789  1  -1.159847  0.069332  -0.313141  -0.562679  0.035208  2.389636  0.056
O  O134  1  0.05644312  0.98680592  0.35929872  1  -1.160341  0.069423  -0.313064  -0.562459  0.035251  2.390919  0.056
O  O135  1  0.01316922  0.94355418  0.14070531  1  -1.160387  0.069357  -0.312953  -0.562218  0.035222  2.390527  0.056
O  O136  1  0.80730908  0.19263195  0.74999937  1  -1.260464  0.097408  -0.568905  -0.818802  0.053175  2.435976  0.081
O  O137  1  0.19262055  0.80733670  0.25000317  1  -1.260639  0.097525  -0.568984  -0.818827  0.053237  2.436568  0.082
