# generated using pymatgen
data_Cu2H21C21(NO3)3
_symmetry_space_group_name_H-M   'P 1'
_cell_length_a   8.57789118
_cell_length_b   11.84402473
_cell_length_c   13.13758798
_cell_angle_alpha   102.12394643
_cell_angle_beta   91.29580090
_cell_angle_gamma   108.70751765
_symmetry_Int_Tables_number   1
_chemical_formula_structural   Cu2H21C21(NO3)3
_chemical_formula_sum   'Cu4 H42 C42 N6 O18'
_cell_volume   1230.17371878
_cell_formula_units_Z   2
loop_
 _symmetry_equiv_pos_site_id
 _symmetry_equiv_pos_as_xyz
  1  'x, y, z'
loop_
 _atom_site_type_symbol
 _atom_site_label
 _atom_site_symmetry_multiplicity
 _atom_site_fract_x
 _atom_site_fract_y
 _atom_site_fract_z
 _atom_site_occupancy
 _atom_site_pbe_bader_charge
 _atom_site_pbe_bader_spin_density
 _atom_site_pbe_cm5_charge
 _atom_site_pbe_ddec_charge
 _atom_site_pbe_ddec_spin_density
 _atom_site_pbe_ddec_sum_bond_order
 _atom_site_pbe_magmom
Cu  Cu0  1  0.50841373  0.40297979  0.02701885  1  1.05754  -0.534562  0.673985  0.744105  -0.71646  2.39368  -0.532
Cu  Cu1  1  0.49158358  0.59702737  0.97298221  1  1.057778  0.534931  0.674001  0.743998  0.686897  2.393631  0.532
Cu  Cu2  1  0.00601003  0.40443547  0.43620608  1  1.067595  0.572536  0.678592  0.748251  0.73876  2.38854  0.574
Cu  Cu3  1  0.99398206  0.59556262  0.56379068  1  1.067147  0.572506  0.678567  0.748298  0.738748  2.38843  0.574
H  H4  1  0.78169929  0.95479612  0.98107166  1  0.453995  1e-05  0.321975  0.276748  5e-06  0.94004  0.0
H  H5  1  0.21829738  0.04519637  0.01892773  1  0.454027  -2e-05  0.321952  0.276836  -1.3e-05  0.940024  0.0
H  H6  1  0.57286682  0.64023914  0.55482336  1  0.105836  0.00015  0.104643  0.131067  7.9e-05  0.993902  0.0
H  H7  1  0.42714452  0.35976808  0.44517783  1  0.105516  -0.000541  0.104666  0.131035  -0.000299  0.993956  0.0
H  H8  1  0.52726621  0.76432301  0.52121214  1  0.061378  0.002023  0.096573  0.112664  0.001022  0.973175  0.001
H  H9  1  0.47272943  0.23567748  0.47879507  1  0.061244  0.002238  0.096607  0.11271  0.001157  0.973101  0.001
H  H10  1  0.53313890  0.52743506  0.37095021  1  0.035006  -0.000206  0.092355  0.090011  -0.000182  1.004511  0.0
H  H11  1  0.46688726  0.47257400  0.62905302  1  0.035192  0.000518  0.092366  0.090078  0.000379  1.004664  0.0
H  H12  1  0.68641966  0.67268081  0.38968485  1  0.032191  0.001023  0.0904  0.088923  0.00053  1.000851  0.001
H  H13  1  0.31358288  0.32733565  0.61031447  1  0.032082  0.001127  0.090424  0.088957  0.000582  1.000897  0.001
H  H14  1  0.32287110  0.61330341  0.30962991  1  0.068159  0.000395  0.106293  0.128807  0.000158  0.98849  0.0
H  H15  1  0.67712725  0.38667428  0.69037161  1  0.068226  -0.000421  0.106287  0.128787  -0.000248  0.988497  0.0
H  H16  1  0.48346990  0.75214853  0.31101156  1  0.020573  -0.001467  0.10074  0.121679  -0.000729  0.961856  -0.001
H  H17  1  0.51649527  0.24784634  0.68899418  1  0.020495  0.00149  0.100717  0.12168  0.00068  0.961953  0.001
H  H18  1  0.93374655  0.36488984  0.99905485  1  0.085536  0.000126  0.10597  0.132847  -1e-06  0.991311  0.0
H  H19  1  0.06623650  0.63510358  0.00094235  1  0.085427  0.000871  0.106023  0.132879  0.000463  0.99129  0.0
H  H20  1  0.97071020  0.23694229  0.91968505  1  0.008045  0.00197  0.090388  0.104531  0.000882  1.014784  0.001
H  H21  1  0.02929159  0.76305354  0.08032425  1  0.008065  -0.001777  0.09044  0.104626  -0.000841  1.014733  -0.001
H  H22  1  0.97039246  0.47266027  0.85605010  1  0.029263  0.000457  0.091055  0.08792  0.000367  1.006745  0.0
H  H23  1  0.02963873  0.52734676  0.14395882  1  0.029364  9.6e-05  0.091084  0.087965  8e-05  1.006765  0.0
H  H24  1  0.81473843  0.32687739  0.81736378  1  0.093684  -0.000765  0.093973  0.096333  -0.000495  1.002271  -0.001
H  H25  1  0.18526999  0.67314156  0.18264374  1  0.092565  0.000885  0.093924  0.096271  0.000442  1.002316  0.001
H  H26  1  0.17594007  0.37803355  0.76808439  1  0.021206  -6.2e-05  0.105411  0.128503  -0.000136  0.986139  0.0
H  H27  1  0.82405704  0.62198418  0.23190450  1  0.021135  0.000128  0.105369  0.128549  -2e-05  0.986195  0.0
H  H28  1  0.00723707  0.24326081  0.71356991  1  0.020798  0.002002  0.096342  0.111906  0.001016  0.985364  0.001
H  H29  1  0.99277686  0.75673909  0.28643047  1  0.021025  0.002004  0.096377  0.11192  0.001015  0.985439  0.001
H  H30  1  0.59688871  0.18223169  0.92026879  1  0.173136  5.8e-05  0.118668  0.11208  1.2e-05  1.043767  0.0
H  H31  1  0.40311501  0.81776356  0.07973126  1  0.173108  -5.5e-05  0.118657  0.112061  -1.8e-05  1.043827  0.0
H  H32  1  0.76240991  0.02818155  0.15540085  1  0.100354  -8e-06  0.110843  0.117227  -5e-06  0.979517  0.0
H  H33  1  0.23759076  0.97181729  0.84460148  1  0.100396  1e-05  0.110876  0.117257  2e-06  0.979527  0.0
H  H34  1  0.67781954  0.17641295  0.29082337  1  0.136023  9.5e-05  0.111544  0.127675  0.000124  1.012835  0.0
H  H35  1  0.32218505  0.82358691  0.70917692  1  0.136021  5.2e-05  0.111539  0.127686  0.000108  1.012845  0.0
H  H36  1  0.55643891  0.32030618  0.23173167  1  0.11256  1.1e-05  0.117046  0.09565  -8e-06  0.997088  0.0
H  H37  1  0.44356684  0.67969371  0.76826788  1  0.112595  -1.2e-05  0.117053  0.095696  1e-06  0.997096  0.0
H  H38  1  0.86981339  0.00852874  0.66252944  1  0.134755  1.9e-05  0.113415  0.122064  1.2e-05  1.003331  0.0
H  H39  1  0.13017825  0.99146555  0.33747031  1  0.134718  1.7e-05  0.113387  0.122022  1.4e-05  1.003385  0.0
H  H40  1  0.98509982  0.85214661  0.55968789  1  0.121859  -4.4e-05  0.119944  0.096866  0.0  0.985096  0.0
H  H41  1  0.01489775  0.14785327  0.44031083  1  0.121794  -4.5e-05  0.119951  0.096897  -1e-06  0.985123  0.0
H  H42  1  0.90082171  0.65295796  0.78805890  1  0.125958  -3.2e-05  0.123204  0.102138  -2e-06  0.98287  0.0
H  H43  1  0.09918983  0.34703916  0.21194162  1  0.126039  -1.6e-05  0.123199  0.102141  1e-05  0.983009  0.0
H  H44  1  0.78695938  0.79538487  0.89953002  1  0.152613  1.8e-05  0.107509  0.118532  3.7e-05  1.063517  0.0
H  H45  1  0.21305292  0.20461120  0.10047408  1  0.152519  -5.4e-05  0.107488  0.118504  -5.5e-05  1.063616  0.0
C  C46  1  0.31828950  0.60191943  0.50601083  1  1.530941  -0.001019  0.213924  0.62506  0.000627  4.112861  -0.004
C  C47  1  0.68170650  0.39807961  0.49398541  1  1.530875  -0.001074  0.213877  0.624991  0.000577  4.112907  -0.004
C  C48  1  0.50093512  0.66479778  0.49769444  1  -0.06863  0.019212  -0.161213  -0.291474  0.013818  3.894306  0.015
C  C49  1  0.49906916  0.33520667  0.50230609  1  -0.0681  0.017472  -0.161268  -0.291471  0.012634  3.894372  0.014
C  C50  1  0.55293900  0.62599593  0.38870512  1  0.020019  0.003863  -0.166637  -0.099673  0.002606  3.930591  0.003
C  C51  1  0.44706609  0.37401027  0.61129808  1  0.019786  0.001086  -0.166696  -0.099835  0.00086  3.930951  0.0
C  C52  1  0.45637051  0.65338338  0.30329172  1  -0.006334  0.001245  -0.160637  -0.287046  0.000834  3.892099  0.001
C  C53  1  0.54362311  0.34661274  0.69670844  1  -0.006182  -0.001138  -0.160587  -0.287023  -0.001007  3.892201  -0.001
C  C54  1  0.47948330  0.59715069  0.19198750  1  1.543676  -4.2e-05  0.215831  0.624763  -4e-05  4.118057  0.0
C  C55  1  0.52051803  0.40286291  0.80801423  1  1.544752  4.3e-05  0.215956  0.624874  -0.000204  4.117928  0.0
C  C56  1  0.18474254  0.39595689  0.96634824  1  1.518695  0.000652  0.214161  0.627315  0.000491  4.112798  0.001
C  C57  1  0.81525427  0.60404362  0.03365822  1  1.519073  -0.000497  0.214222  0.627257  -0.000618  4.112932  -0.001
C  C58  1  0.00085040  0.33643680  0.93341761  1  0.001307  0.00108  -0.164294  -0.28992  0.00065  3.893841  0.0
C  C59  1  0.99915081  0.66355871  0.06658703  1  0.001455  0.001108  -0.164425  -0.289969  0.00071  3.893955  0.001
C  C60  1  0.94811215  0.37376984  0.83716946  1  0.00044  0.000748  -0.165562  -0.101703  0.000648  3.923535  0.0
C  C61  1  0.05190066  0.62623279  0.16283150  1  0.001298  0.004308  -0.16551  -0.101718  0.00291  3.923705  0.003
C  C62  1  0.04193626  0.34269467  0.74372451  1  0.034482  0.017328  -0.1629  -0.287728  0.012589  3.891888  0.014
C  C63  1  0.95806055  0.65730615  0.25627365  1  0.034287  0.017476  -0.162973  -0.287959  0.012669  3.892031  0.014
C  C64  1  0.02239969  0.40022375  0.65360896  1  1.535105  -0.001197  0.2187  0.633134  0.000662  4.100697  -0.004
C  C65  1  0.97757518  0.59976974  0.34638514  1  1.535789  -0.001171  0.218724  0.633314  0.000701  4.09982  -0.004
C  C66  1  0.61642177  0.17731336  0.00099305  1  0.528025  0.000588  0.036791  -0.011037  0.000421  3.900586  0.0
C  C67  1  0.38357957  0.82267917  0.99900562  1  0.528091  -0.000654  0.036829  -0.011085  -0.000486  3.900851  0.0
C  C68  1  0.68967253  0.09542554  0.02702158  1  0.300935  -1e-05  0.099152  0.195983  -1.3e-05  4.04211  0.0
C  C69  1  0.31033155  0.90456795  0.97297657  1  0.300932  7e-05  0.099093  0.195978  4.5e-05  4.042167  0.0
C  C70  1  0.70903523  0.09257543  0.13264998  1  -0.036509  0.00056  -0.076523  -0.14392  0.000356  3.953366  0.0
C  C71  1  0.29096737  0.90742270  0.86734687  1  -0.036462  -0.00065  -0.076581  -0.143929  -0.000435  3.953345  0.0
C  C72  1  0.66078292  0.17291678  0.20779665  1  -0.022722  4.5e-05  -0.081048  -0.098449  2.4e-05  3.979104  0.0
C  C73  1  0.33922126  0.82708222  0.79220193  1  -0.022741  0.000306  -0.081053  -0.09853  0.000207  3.979175  0.0
C  C74  1  0.59276275  0.25345045  0.17577862  1  0.491645  0.000517  0.040635  0.082749  0.000346  3.933718  0.0
C  C75  1  0.40723981  0.74654477  0.82422217  1  0.491596  -0.000576  0.040689  0.082739  -0.00039  3.933844  0.0
C  C76  1  0.87837864  0.93169824  0.69290673  1  -0.052192  0.000465  -0.077578  -0.149798  0.000309  3.959868  0.0
C  C77  1  0.12161452  0.06829437  0.30708885  1  -0.05224  0.000397  -0.077581  -0.149735  0.000267  3.959918  0.0
C  C78  1  0.82240098  0.91754994  0.79032515  1  -0.016126  -0.000802  -0.002751  -0.001259  -0.000546  3.998098  -0.001
C  C79  1  0.17760280  0.08244817  0.20967247  1  -0.016164  -0.000906  -0.002725  -0.0013  -0.000602  3.998197  -0.001
C  C80  1  0.94158021  0.84588904  0.63639213  1  0.447491  -0.000642  0.048302  0.093479  -0.000452  3.943794  0.0
C  C81  1  0.05841605  0.15410258  0.36360555  1  0.44756  -0.000696  0.048297  0.09333  -0.000486  3.944068  0.0
C  C82  1  0.89483105  0.73421370  0.76381730  1  0.515696  -0.000706  0.055333  0.11746  -0.000476  3.907934  0.0
C  C83  1  0.10517155  0.26578423  0.23618485  1  0.515687  -0.000739  0.055326  0.117405  -0.000512  3.908235  0.0
C  C84  1  0.83154405  0.81647506  0.82632379  1  -0.107339  0.000417  -0.084686  -0.170666  0.000283  3.954229  0.0
C  C85  1  0.16845738  0.18352296  0.17367608  1  -0.107241  0.000279  -0.084684  -0.170676  0.000158  3.954376  0.0
C  C86  1  0.75117032  0.01068522  0.84739263  1  1.405492  -2.6e-05  0.240959  0.458125  1.4e-05  4.13973  0.0
C  C87  1  0.24883625  0.98931672  0.15260128  1  1.405476  -5.7e-05  0.241081  0.458344  -6.7e-05  4.139274  0.0
N  N88  1  0.56890953  0.25366795  0.07440047  1  -1.229641  0.001547  -0.339264  -0.239688  0.000712  3.550947  0.0
N  N89  1  0.43109303  0.74632739  0.92559730  1  -1.229864  -0.001373  -0.339263  -0.23952  -0.000625  3.551157  0.0
N  N90  1  0.74335357  0.01595316  0.95268728  1  -1.256463  -3e-05  -0.394209  -0.375665  -1.9e-05  3.614193  0.0
N  N91  1  0.25665016  0.98404221  0.04730974  1  -1.256435  -0.00013  -0.394174  -0.375823  -9.2e-05  3.614218  0.0
N  N92  1  0.94972340  0.74847166  0.67086385  1  -1.210102  -0.00082  -0.327247  -0.233047  3.8e-05  3.491841  0.001
N  N93  1  0.05028114  0.25152535  0.32913887  1  -1.209955  -0.000904  -0.327229  -0.23285  -1.6e-05  3.49213  0.001
O  O94  1  0.25323693  0.49193801  0.45351330  1  -1.123721  0.092352  -0.309405  -0.52242  0.059543  2.363916  0.084
O  O95  1  0.74675836  0.50806469  0.54648373  1  -1.123709  0.092403  -0.30937  -0.522379  0.05957  2.363756  0.084
O  O96  1  0.01107678  0.50725572  0.67539873  1  -1.116777  0.093181  -0.311568  -0.523369  0.060423  2.351436  0.085
O  O97  1  0.98888951  0.49273672  0.32459812  1  -1.117258  0.093258  -0.311512  -0.523324  0.060494  2.351095  0.085
O  O98  1  0.48977762  0.48979307  0.17307658  1  -1.128076  -0.07942  -0.314181  -0.527741  -0.054099  2.340921  -0.072
O  O99  1  0.51021462  0.51021354  0.82691366  1  -1.128526  0.079442  -0.314225  -0.527756  0.05176  2.340963  0.072
O  O100  1  0.24228154  0.66350508  0.56377781  1  -1.124191  0.095873  -0.316063  -0.536301  0.061847  2.34576  0.087
O  O101  1  0.75771335  0.33649684  0.43621524  1  -1.124242  0.095815  -0.316111  -0.536297  0.061813  2.34581  0.087
O  O102  1  0.24920100  0.50572512  0.95742716  1  -1.120937  0.077312  -0.309004  -0.514704  0.050296  2.387492  0.07
O  O103  1  0.75078956  0.49427456  0.04257603  1  -1.120909  -0.077192  -0.309061  -0.514722  -0.052527  2.387478  -0.07
O  O104  1  0.26133422  0.33168426  0.99841731  1  -1.126365  -0.080793  -0.323073  -0.539931  -0.055206  2.359938  -0.074
O  O105  1  0.73867315  0.66831915  0.00158682  1  -1.126531  0.08093  -0.323052  -0.539848  0.052916  2.360003  0.074
O  O106  1  0.48135668  0.66144442  0.12513001  1  -1.102859  0.091399  -0.314084  -0.523855  0.05953  2.367288  0.083
O  O107  1  0.51865058  0.33857472  0.87487221  1  -1.103419  -0.091279  -0.314122  -0.523916  -0.062106  2.367335  -0.083
O  O108  1  0.02371838  0.33792175  0.56180427  1  -1.117003  0.102135  -0.317808  -0.536156  0.065872  2.362261  0.093
O  O109  1  0.97625223  0.66207256  0.43819226  1  -1.117095  0.102119  -0.317753  -0.536163  0.065864  2.361576  0.093
O  O110  1  0.70758537  0.07803803  0.80135540  1  -1.126056  0.000117  -0.274958  -0.449088  5.1e-05  2.122642  0.0
O  O111  1  0.29242318  0.92196555  0.19864421  1  -1.126034  -0.000285  -0.275055  -0.449216  -0.000192  2.122361  0.0
