# generated using pymatgen
data_Cu2H7C9N3Cl2
_symmetry_space_group_name_H-M   'P 1'
_cell_length_a   8.32263537
_cell_length_b   8.22010382
_cell_length_c   8.36724766
_cell_angle_alpha   76.40304802
_cell_angle_beta   73.24468460
_cell_angle_gamma   75.99113716
_symmetry_Int_Tables_number   1
_chemical_formula_structural   Cu2H7C9N3Cl2
_chemical_formula_sum   'Cu4 H14 C18 N6 Cl4'
_cell_volume   523.33726650
_cell_formula_units_Z   2
loop_
 _symmetry_equiv_pos_site_id
 _symmetry_equiv_pos_as_xyz
  1  'x, y, z'
loop_
 _atom_site_type_symbol
 _atom_site_label
 _atom_site_symmetry_multiplicity
 _atom_site_fract_x
 _atom_site_fract_y
 _atom_site_fract_z
 _atom_site_occupancy
 _atom_site_pbe_bader_spin_density
 _atom_site_pbe_cm5_charge
 _atom_site_pbe_ddec_charge
 _atom_site_pbe_ddec_spin_density
 _atom_site_pbe_ddec_sum_bond_order
 _atom_site_pbe_magmom
Cu  Cu0  1  0.86077815  0.27647119  0.28183839  1  0  0.434526  0.357438  0  2.515726  0
Cu  Cu1  1  0.13921136  0.72354422  0.71818461  1  0  0.43439  0.35731  0  2.515383  0
Cu  Cu2  1  0.87318538  0.07747057  0.92379308  1  0  0.3534  0.319614  0  2.503522  0
Cu  Cu3  1  0.12681436  0.92253029  0.07621303  1  0  0.353456  0.319688  0  2.503566  0
H  H4  1  0.63249492  0.04481941  0.55956544  1  0  0.10746  0.079942  0  1.015335  0
H  H5  1  0.36749969  0.95519336  0.44040999  1  0  0.107424  0.079938  0  1.015356  0
H  H6  1  0.42568465  0.08011341  0.83639235  1  0  0.090298  0.112929  0  1.048813  0
H  H7  1  0.57431293  0.91987209  0.16359794  1  0  0.090305  0.112993  0  1.048805  0
H  H8  1  0.38402046  0.35069560  0.94682337  1  0  0.097399  0.105463  0  1.009914  0
H  H9  1  0.61597841  0.64929514  0.05318479  1  0  0.09744  0.105532  0  1.01002  0
H  H10  1  0.54768240  0.57523956  0.77249257  1  0  0.096686  0.118702  0  1.041709  0
H  H11  1  0.45232021  0.42475089  0.22751823  1  0  0.096691  0.118686  0  1.041739  0
H  H12  1  0.04035691  0.59345020  0.08271556  1  0  0.117596  0.062826  0  1.024158  0
H  H13  1  0.95965241  0.40655479  0.91727648  1  0  0.117587  0.062858  0  1.024217  0
H  H14  1  0.91690936  0.92018495  0.42832800  1  0  0.108726  0.072777  0  1.041532  0
H  H15  1  0.08308545  0.07980915  0.57166747  1  0  0.108721  0.072787  0  1.041456  0
H  H16  1  0.73915627  0.72430333  0.64251886  1  0  0.104701  0.133392  0  1.025569  0
H  H17  1  0.26085175  0.27569403  0.35747609  1  0  0.104679  0.133405  0  1.025502  0
C  C18  1  0.61332420  0.15953586  0.61181792  1  0  0.038197  0.095151  0  3.949301  0
C  C19  1  0.38666617  0.84046197  0.38818167  1  0  0.038256  0.095265  0  3.949393  0
C  C20  1  0.49715909  0.18036279  0.76625925  1  0  -0.086957  -0.112612  0  3.93474  0
C  C21  1  0.50284138  0.81962737  0.23373542  1  0  -0.087028  -0.112875  0  3.93474  0
C  C22  1  0.47515905  0.33038889  0.82720872  1  0  -0.07511  -0.02429  0  3.966414  0
C  C23  1  0.52484665  0.66959973  0.17278722  1  0  -0.075097  -0.024228  0  3.966298  0
C  C24  1  0.56874044  0.45433780  0.73074565  1  0  -0.08308  -0.147143  0  3.927409  0
C  C25  1  0.43125829  0.54565454  0.26925627  1  0  -0.083079  -0.147124  0  3.927144  0
C  C26  1  0.68468096  0.42387749  0.57762892  1  0  0.100419  0.147838  0  3.984112  0
C  C27  1  0.31532340  0.57612577  0.42237552  1  0  0.100357  0.147803  0  3.984014  0
C  C28  1  0.78634378  0.54866191  0.46775068  1  0  0.119656  0.198956  0  3.948951  0
C  C29  1  0.21365216  0.45133898  0.53225764  1  0  0.119825  0.199125  0  3.949009  0
C  C30  1  0.96885014  0.62311654  0.20713620  1  0  0.173462  0.245359  0  3.928629  0
C  C31  1  0.03114551  0.37689501  0.79286071  1  0  0.173479  0.245387  0  3.929148  0
C  C32  1  0.90098322  0.80307068  0.39981309  1  0  0.048416  0.119552  0  3.92897  0
C  C33  1  0.09901494  0.19693328  0.60018331  1  0  0.048368  0.119517  0  3.928967  0
C  C34  1  0.80098084  0.69502088  0.51630794  1  0  -0.081785  -0.195034  0  3.920819  0
C  C35  1  0.19903408  0.30497990  0.48368813  1  0  -0.081754  -0.195078  0  3.920751  0
N  N36  1  0.70888580  0.27582544  0.51961107  1  0  -0.356248  -0.260157  0  3.621591  0
N  N37  1  0.29112378  0.72416875  0.48039480  1  0  -0.356199  -0.260125  0  3.621604  0
N  N38  1  0.87141255  0.51423388  0.30974166  1  0  -0.349046  -0.291781  0  3.575343  0
N  N39  1  0.12857706  0.48576190  0.69025012  1  0  -0.349036  -0.291798  0  3.575846  0
N  N40  1  0.98584685  0.76757375  0.24378853  1  0  -0.365638  -0.24734  0  3.657009  0
N  N41  1  0.01414989  0.23243924  0.75620424  1  0  -0.365524  -0.247324  0  3.657195  0
Cl  Cl42  1  0.70095158  0.17953338  0.15178349  1  0  -0.298978  -0.446183  0  1.789562  0
Cl  Cl43  1  0.29906590  0.82047268  0.84822890  1  0  -0.298981  -0.44619  0  1.789629  0
Cl  Cl44  1  0.13560600  0.16008448  0.15974146  1  0  -0.294197  -0.445514  0  1.806933  0
Cl  Cl45  1  0.86437567  0.83992686  0.84027001  1  0  -0.294183  -0.445436  0  1.806911  0
