# generated using pymatgen
data_Zn3H16C32(NO3)4
_symmetry_space_group_name_H-M   'P 1'
_cell_length_a   23.70420553
_cell_length_b   23.70416758
_cell_length_c   25.53224700
_cell_angle_alpha   117.66150080
_cell_angle_beta   117.66022383
_cell_angle_gamma   90.00136416
_symmetry_Int_Tables_number   1
_chemical_formula_structural   Zn3H16C32(NO3)4
_chemical_formula_sum   'Zn6 H32 C64 N8 O24'
_cell_volume   10821.29059459
_cell_formula_units_Z   2
loop_
 _symmetry_equiv_pos_site_id
 _symmetry_equiv_pos_as_xyz
  1  'x, y, z'
loop_
 _atom_site_type_symbol
 _atom_site_label
 _atom_site_symmetry_multiplicity
 _atom_site_fract_x
 _atom_site_fract_y
 _atom_site_fract_z
 _atom_site_occupancy
 _atom_site_pbe_bader_charge
 _atom_site_pbe_bader_spin_density
 _atom_site_pbe_cm5_charge
 _atom_site_pbe_ddec_charge
 _atom_site_pbe_ddec_spin_density
 _atom_site_pbe_ddec_sum_bond_order
 _atom_site_pbe_magmom
Zn  Zn0  1  0.50002110  0.05449568  0.00001652  1  1.297818  0  0.742702  0.973608  0  2.061489  0
Zn  Zn1  1  0.03383927  0.03384424  0.06768155  1  1.314088  0  0.749757  0.985988  0  2.0451  0
Zn  Zn2  1  0.96615594  0.96615900  0.93231854  1  1.295775  0  0.749735  0.985974  0  2.04519  0
Zn  Zn3  1  0.94550602  0.49997948  0.99998628  1  1.297793  0  0.742679  0.973547  0  2.061533  0
Zn  Zn4  1  0.49997291  0.94548526  0.99997046  1  1.29638  0  0.742495  0.973224  0  2.062324  0
Zn  Zn5  1  0.05451384  0.50002535  0.00002666  1  1.296286  0  0.742504  0.973261  0  2.062322  0
H  H6  1  0.24790744  0.77884031  0.65105555  1  0.123127  0  0.104914  0.107357  0  1.023454  0
H  H7  1  0.87221660  0.24792103  0.65106251  1  0.109809  0  0.104906  0.107379  0  1.02336  0
H  H8  1  0.40312108  0.87220877  0.65103856  1  0.077097  0  0.104782  0.107105  0  1.024377  0
H  H9  1  0.77886143  0.40313888  0.65105313  1  0.093846  0  0.10504  0.107129  0  1.024029  0
H  H10  1  0.75207397  0.12778296  0.34893540  1  0.109261  0  0.104904  0.107385  0  1.023441  0
H  H11  1  0.12782528  0.59685556  0.34895740  1  0.077481  0  0.104826  0.107171  0  1.024217  0
H  H12  1  0.59685898  0.22114061  0.34895055  1  0.093964  0  0.105013  0.107169  0  1.023994  0
H  H13  1  0.22112542  0.75211447  0.34894478  1  0.122516  0  0.10502  0.107416  0  1.023598  0
H  H14  1  0.25182421  0.80770437  0.75354805  1  0.035575  0  0.096138  0.134451  0  0.989446  0
H  H15  1  0.33206711  0.81963569  0.82108325  1  0.061487  0  0.095928  0.14177  0  0.991276  0
H  H16  1  0.30026853  0.88821833  0.82700485  1  0.040502  0  0.092776  0.132158  0  0.991438  0
H  H17  1  0.94583900  0.25183465  0.75357110  1  0.038609  0  0.095913  0.133949  0  0.989685  0
H  H18  1  0.00145878  0.33206862  0.82113074  1  0.058375  0  0.096026  0.141926  0  0.991158  0
H  H19  1  0.93874273  0.30028303  0.82698942  1  0.03152  0  0.092801  0.131756  0  0.99147  0
H  H20  1  0.50175994  0.94586766  0.75357166  1  0.029978  0  0.096114  0.134107  0  0.989926  0
H  H21  1  0.48904671  0.00145380  0.82110459  1  0.086091  0  0.095997  0.141803  0  0.991099  0
H  H22  1  0.52674164  0.93877526  0.82699877  1  0.038995  0  0.092936  0.132121  0  0.991688  0
H  H23  1  0.80771682  0.50175648  0.75356146  1  0.041833  0  0.09595  0.13387  0  0.989656  0
H  H24  1  0.81965389  0.48904835  0.82109712  1  0.072207  0  0.095915  0.141811  0  0.990877  0
H  H25  1  0.88823779  0.52676166  0.82700886  1  0.041495  0  0.092704  0.131787  0  0.991588  0
H  H26  1  0.74816359  0.05416436  0.24642563  1  0.038795  0  0.095859  0.133886  0  0.989591  0
H  H27  1  0.66793060  0.99854356  0.17886739  1  0.058369  0  0.095957  0.14179  0  0.99122  0
H  H28  1  0.69971364  0.06126028  0.17300805  1  0.031202  0  0.092793  0.131695  0  0.991436  0
H  H29  1  0.05418223  0.49820657  0.24642035  1  0.030872  0  0.096141  0.1342  0  0.989975  0
H  H30  1  0.99858280  0.51090912  0.17888636  1  0.085755  0  0.095882  0.141835  0  0.99127  0
H  H31  1  0.06127898  0.47324056  0.17299626  1  0.039471  0  0.09299  0.132315  0  0.991709  0
H  H32  1  0.49824503  0.19228973  0.24644382  1  0.041751  0  0.095928  0.133878  0  0.989676  0
H  H33  1  0.51095050  0.18034800  0.17890532  1  0.072285  0  0.09593  0.141871  0  0.990871  0
H  H34  1  0.47323845  0.11176651  0.17299747  1  0.041722  0  0.0927  0.131765  0  0.99163  0
H  H35  1  0.19224452  0.74820630  0.24645130  1  0.03593  0  0.096167  0.134397  0  0.989388  0
H  H36  1  0.18032983  0.66796768  0.17891056  1  0.061383  0  0.095944  0.141842  0  0.991359  0
H  H37  1  0.11173593  0.69974176  0.17299879  1  0.040097  0  0.092854  0.132196  0  0.991324  0
C  C38  1  0.39013491  0.99999574  0.99995861  1  1.694263  0  0.224364  0.647045  0  4.274764  0
C  C39  1  0.89417865  0.39418550  0.78829704  1  -0.03165  0  -0.012346  -0.144388  0  3.86336  0
C  C40  1  0.81366642  0.38387018  0.68015349  1  0.0338  0  -0.088012  -0.182401  0  3.937551  0
C  C41  1  0.70366642  0.13343987  0.31984697  1  0.042617  0  -0.087801  -0.182733  0  3.937617  0
C  C42  1  0.13349022  0.61614381  0.31985153  1  0.067263  0  -0.088286  -0.183609  0  3.938573  0
C  C43  1  0.61612763  0.18633584  0.31984875  1  0.034056  0  -0.088025  -0.182559  0  3.937507  0
C  C44  1  0.18633351  0.70373257  0.31985652  1  -0.132371  0  -0.087791  -0.18309  0  3.937085  0
C  C45  1  0.32176345  0.82178230  0.64353884  1  0.021994  0  -0.007823  0.029162  0  4.041905  0
C  C46  1  0.82182219  0.32180661  0.64354205  1  -0.014608  0  -0.008053  0.028011  0  4.043649  0
C  C47  1  0.67819016  0.17817934  0.35645919  1  -0.014866  0  -0.007993  0.028091  0  4.04371  0
C  C48  1  0.17821587  0.67823578  0.35645939  1  0.021885  0  -0.007884  0.029139  0  4.041929  0
C  C49  1  0.60581348  0.10582438  0.21170374  1  -0.031303  0  -0.01236  -0.144444  0  3.863425  0
C  C50  1  0.30239177  0.84065884  0.79045630  1  -0.05131  0  -0.237723  -0.412265  0  3.961782  0
C  C51  1  0.94979851  0.30240969  0.79047354  1  -0.051725  0  -0.237525  -0.411425  0  3.961517  0
C  C52  1  0.48808513  0.94980207  0.79046323  1  -0.080495  0  -0.237839  -0.411842  0  3.962946  0
C  C53  1  0.84067252  0.48809610  0.79046751  1  -0.065069  0  -0.237355  -0.41106  0  3.961045  0
C  C54  1  0.69758922  0.05020458  0.20952467  1  -0.051661  0  -0.23733  -0.411111  0  3.96129  0
C  C55  1  0.05023773  0.51188388  0.20952904  1  -0.081575  0  -0.237911  -0.412346  0  3.963395  0
C  C56  1  0.51190404  0.15933193  0.20953764  1  -0.065354  0  -0.237317  -0.411108  0  3.96115  0
C  C57  1  0.10585655  0.60584032  0.21171740  1  -0.004846  0  -0.012534  -0.141036  0  3.858373  0
C  C58  1  0.15930594  0.69762872  0.20954207  1  -0.05168  0  -0.237803  -0.412279  0  3.961758  0
C  C59  1  0.39415851  0.89414432  0.78828097  1  -0.004393  0  -0.012601  -0.141164  0  3.858696  0
C  C60  1  0.21637629  0.71637791  0.43276719  1  0.916343  0  0.24074  0.253752  0  3.967966  0
C  C61  1  0.71635445  0.21634520  0.43276889  1  0.903986  0  0.241314  0.255143  0  3.969391  0
C  C62  1  0.78365308  0.28364067  0.56723247  1  0.903661  0  0.241278  0.255054  0  3.969074  0
C  C63  1  0.00000561  0.39013734  0.99996572  1  1.694546  0  0.224512  0.646101  0  4.275714  0
C  C64  1  0.28362188  0.78362236  0.56723161  1  0.915925  0  0.240806  0.253779  0  3.967798  0
C  C65  1  0.99997370  0.89093085  0.99994040  1  1.678486  0  0.228604  0.658569  0  4.245817  0
C  C66  1  0.10906981  0.00002718  0.00006177  1  1.678417  0  0.228596  0.65857  0  4.245851  0
C  C67  1  0.00001611  0.10906774  0.00005477  1  1.678668  0  0.228534  0.658608  0  4.245504  0
C  C68  1  0.89093190  0.99998410  0.99994634  1  1.676437  0  0.228614  0.658687  0  4.245461  0
C  C69  1  0.60986193  0.99999270  0.00003379  1  1.694466  0  0.224466  0.645997  0  4.275777  0
C  C70  1  0.43298998  0.93294809  0.86595432  1  1.48167  0  0.23068  0.626528  0  4.133393  0
C  C71  1  0.93298515  0.43300128  0.86597210  1  1.486972  0  0.230661  0.628147  0  4.13224  0
C  C72  1  0.56699859  0.06701848  0.13402870  1  1.486963  0  0.230637  0.62808  0  4.132424  0
C  C73  1  0.06705176  0.56701027  0.13404406  1  1.481833  0  0.230653  0.626407  0  4.133365  0
C  C74  1  0.00000317  0.60986434  0.00004183  1  1.694288  0  0.224341  0.646908  0  4.274964  0
C  C75  1  0.32955310  0.99997697  0.99994680  1  0.150592  0  -0.001996  -0.126279  0  3.851876  0
C  C76  1  0.99997367  0.32955267  0.99994677  1  0.149436  0  -0.001983  -0.125837  0  3.852104  0
C  C77  1  0.67044598  0.00002465  0.00005122  1  0.149477  0  -0.001966  -0.125793  0  3.852029  0
C  C78  1  0.00002248  0.67044663  0.00005377  1  0.150217  0  -0.002052  -0.12627  0  3.851949  0
C  C79  1  0.27792813  0.99995269  0.99999661  1  -0.30775  0  -0.002424  0.030932  0  4.225688  0
C  C80  1  0.99995413  0.27792849  0.99999572  1  -0.307403  0  -0.002422  0.030606  0  4.225537  0
C  C81  1  0.72207062  0.00004492  0.00000208  1  -0.30738  0  -0.002425  0.030595  0  4.225681  0
C  C82  1  0.00004794  0.72207083  0.00000382  1  -0.307374  0  -0.002348  0.03096  0  4.225626  0
C  C83  1  0.22123882  0.99999654  0.00006934  1  -0.156477  0  0.001406  0.038105  0  4.225126  0
C  C84  1  0.99999961  0.22123469  0.00006363  1  -0.15633  0  0.001471  0.038448  0  4.225147  0
C  C85  1  0.77876312  0.99999981  0.99993614  1  -0.156464  0  0.00143  0.038403  0  4.225251  0
C  C86  1  0.00000366  0.77876117  0.99992966  1  -0.156594  0  0.001413  0.038103  0  4.22518  0
C  C87  1  0.16958943  0.00003703  0.00006970  1  0.101391  0  -0.002962  -0.127084  0  3.844096  0
C  C88  1  0.00003249  0.16958192  0.00005135  1  0.101432  0  -0.003052  -0.12738  0  3.844368  0
C  C89  1  0.83041894  0.99996837  0.99994956  1  0.103591  0  -0.00304  -0.127388  0  3.844342  0
C  C90  1  0.99996293  0.83040948  0.99993009  1  0.101502  0  -0.002995  -0.127095  0  3.8442  0
C  C91  1  0.33173977  0.84942680  0.75260619  1  0.096767  0  0.001808  0.166104  0  3.956465  0
C  C92  1  0.90323520  0.33177959  0.75261532  1  0.007462  0  0.001657  0.166974  0  3.957487  0
C  C93  1  0.42087927  0.90320524  0.75260212  1  -0.036523  0  0.002091  0.166614  0  3.957203  0
C  C94  1  0.84944113  0.42090136  0.75261191  1  -0.035874  0  0.001458  0.166664  0  3.956841  0
C  C95  1  0.66821863  0.09676738  0.24738431  1  0.007276  0  0.001571  0.166948  0  3.957556  0
C  C96  1  0.09681531  0.57910462  0.24739392  1  -0.036228  0  0.00208  0.166721  0  3.956879  0
C  C97  1  0.57909771  0.15056247  0.24739003  1  -0.036276  0  0.001452  0.166765  0  3.9569  0
C  C98  1  0.15055478  0.66827188  0.24739308  1  0.096911  0  0.001677  0.166002  0  3.956517  0
C  C99  1  0.29628050  0.81364649  0.68014342  1  -0.133308  0  -0.087836  -0.1831  0  3.936755  0
C  C100  1  0.86656102  0.29633001  0.68015251  1  0.041849  0  -0.087809  -0.182705  0  3.937404  0
C  C101  1  0.38384376  0.86652516  0.68014472  1  0.067428  0  -0.088291  -0.183533  0  3.938796  0
N  N102  1  0.30261169  0.80296236  0.53415721  1  -0.62632  0  -0.158002  -0.152141  0  3.218571  0
N  N103  1  0.73122329  0.30261869  0.53416022  1  -0.581243  0  -0.157729  -0.151573  0  3.217256  0
N  N104  1  0.23156458  0.73118856  0.53415663  1  -0.492019  0  -0.157137  -0.150269  0  3.216268  0
N  N105  1  0.80296776  0.23154904  0.53415566  1  -0.585587  0  -0.157661  -0.151579  0  3.219118  0
N  N106  1  0.69737757  0.26877448  0.46584493  1  -0.515447  0  -0.157673  -0.151459  0  3.217402  0
N  N107  1  0.26878697  0.76845843  0.46584216  1  -0.49084  0  -0.157014  -0.150212  0  3.216526  0
N  N108  1  0.76844247  0.19702509  0.46584088  1  -0.526044  0  -0.157658  -0.15173  0  3.219273  0
N  N109  1  0.19705999  0.69736445  0.46584179  1  -0.625298  0  -0.157868  -0.152029  0  3.218573  0
O  O110  1  0.41445057  0.04881365  0.00095194  1  -1.123179  0  -0.305595  -0.535881  0  2.221366  0
O  O111  1  0.95214055  0.41441229  0.00090675  1  -1.128252  0  -0.30577  -0.535478  0  2.220838  0
O  O112  1  0.58650314  0.95211091  0.00092649  1  -1.122963  0  -0.305601  -0.535328  0  2.221304  0
O  O113  1  0.04881961  0.58654915  0.00099454  1  -1.129171  0  -0.305694  -0.535853  0  2.2215  0
O  O114  1  0.58558691  0.04785855  0.99909276  1  -1.128006  0  -0.305799  -0.535475  0  2.220734  0
O  O115  1  0.04788828  0.41349647  0.99907312  1  -1.122818  0  -0.305658  -0.535405  0  2.221159  0
O  O116  1  0.41344925  0.95117931  0.99900314  1  -1.129132  0  -0.305689  -0.535835  0  2.221433  0
O  O117  1  0.95118748  0.58554997  0.99905162  1  -1.123233  0  -0.30557  -0.535753  0  2.221451  0
O  O118  1  0.44730795  0.99609518  0.89639176  1  -1.119425  0  -0.306221  -0.543448  0  2.280826  0
O  O119  1  0.90023021  0.44729425  0.89635379  1  -1.151425  0  -0.306275  -0.543696  0  2.281724  0
O  O120  1  0.44906250  0.90020450  0.89635176  1  -1.148592  0  -0.30571  -0.542998  0  2.282623  0
O  O121  1  0.99613616  0.44909679  0.89641601  1  -1.122434  0  -0.305734  -0.543281  0  2.280297  0
O  O122  1  0.55270718  0.09977566  0.10364847  1  -1.151474  0  -0.30632  -0.543736  0  2.28166  0
O  O123  1  0.09979297  0.55093830  0.10364410  1  -1.148652  0  -0.305683  -0.542936  0  2.282583  0
O  O124  1  0.55090076  0.00386856  0.10358324  1  -1.122383  0  -0.305666  -0.543167  0  2.280503  0
O  O125  1  0.00390637  0.55269256  0.10361127  1  -1.119383  0  -0.306208  -0.54338  0  2.28075  0
O  O126  1  0.97062728  0.88517218  0.94047112  1  -1.118984  0  -0.304587  -0.534148  0  2.220486  0
O  O127  1  0.05537110  0.97067018  0.94057394  1  -1.124287  0  -0.304483  -0.534297  0  2.220366  0
O  O128  1  0.96987061  0.05535758  0.94057363  1  -1.126951  0  -0.304355  -0.534325  0  2.220364  0
O  O129  1  0.88514855  0.96984874  0.94046773  1  -1.116466  0  -0.304607  -0.534066  0  2.220527  0
O  O130  1  0.02932945  0.94462878  0.05942606  1  -1.124272  0  -0.304463  -0.534258  0  2.220473  0
O  O131  1  0.94463920  0.03012944  0.05942395  1  -1.126832  0  -0.304421  -0.534362  0  2.220495  0
O  O132  1  0.03014925  0.11485006  0.05953039  1  -1.116482  0  -0.304603  -0.53406  0  2.220742  0
O  O133  1  0.11482698  0.02937352  0.05952898  1  -1.118923  0  -0.304569  -0.534125  0  2.220563  0
