# generated using pymatgen
data_ZnH14C15S2(NO2)2
_symmetry_space_group_name_H-M   'P 1'
_cell_length_a   9.50440532
_cell_length_b   11.25433803
_cell_length_c   19.68518574
_cell_angle_alpha   90.00006283
_cell_angle_beta   89.99969909
_cell_angle_gamma   90.00058936
_symmetry_Int_Tables_number   1
_chemical_formula_structural   ZnH14C15S2(NO2)2
_chemical_formula_sum   'Zn4 H56 C60 S8 N8 O16'
_cell_volume   2105.64144852
_cell_formula_units_Z   4
loop_
 _symmetry_equiv_pos_site_id
 _symmetry_equiv_pos_as_xyz
  1  'x, y, z'
loop_
 _atom_site_type_symbol
 _atom_site_label
 _atom_site_symmetry_multiplicity
 _atom_site_fract_x
 _atom_site_fract_y
 _atom_site_fract_z
 _atom_site_occupancy
 _atom_site_pbe_bader_charge
 _atom_site_pbe_bader_spin_density
 _atom_site_pbe_cm5_charge
 _atom_site_pbe_ddec_charge
 _atom_site_pbe_ddec_spin_density
 _atom_site_pbe_ddec_sum_bond_order
 _atom_site_pbe_magmom
Zn  Zn0  1  0.32542310  0.02186213  0.73022233  1  1.245976  0  0.68207  0.753341  0  2.363568  0
Zn  Zn1  1  0.67457415  0.52186240  0.26977681  1  1.245998  0  0.682053  0.753346  0  2.363676  0
Zn  Zn2  1  0.67457132  0.02186760  0.23022000  1  1.245827  0  0.682117  0.753485  0  2.363522  0
Zn  Zn3  1  0.32542593  0.52185959  0.76977761  1  1.245825  0  0.682125  0.753454  0  2.363548  0
H  H4  1  0.58896627  0.99517232  0.64087694  1  0.11231  0  0.119498  0.08845  0  1.003417  0
H  H5  1  0.41103149  0.49516230  0.35911792  1  0.112423  0  0.119538  0.088515  0  1.003397  0
H  H6  1  0.41104206  0.99516662  0.14087680  1  0.112373  0  0.119456  0.088373  0  1.003489  0
H  H7  1  0.58896202  0.49516800  0.85912517  1  0.112337  0  0.119521  0.088487  0  1.00341  0
H  H8  1  0.69291440  0.84153061  0.56441876  1  0.098187  0  0.103383  0.114132  0  1.025286  0
H  H9  1  0.30708886  0.34152339  0.43557854  1  0.097974  0  0.103421  0.114098  0  1.02532  0
H  H10  1  0.30710238  0.84152490  0.06441990  1  0.098128  0  0.103428  0.114145  0  1.025374  0
H  H11  1  0.69290298  0.34152910  0.93558300  1  0.098316  0  0.103418  0.1141  0  1.025388  0
H  H12  1  0.31976593  0.62890524  0.60181276  1  0.103358  0  0.112926  0.131494  0  0.989534  0
H  H13  1  0.68024841  0.12891273  0.39819254  1  0.103435  0  0.112908  0.131467  0  0.989544  0
H  H14  1  0.68024679  0.62890720  0.10181195  1  0.103402  0  0.112972  0.131558  0  0.989469  0
H  H15  1  0.31975493  0.12890455  0.89818979  1  0.103365  0  0.112945  0.131531  0  0.989576  0
H  H16  1  0.23444605  0.78794228  0.67644467  1  0.183887  0  0.123596  0.111724  0  1.01756  0
H  H17  1  0.76556076  0.28794860  0.32355564  1  0.183983  0  0.123572  0.111742  0  1.017421  0
H  H18  1  0.76556357  0.78794499  0.17644670  1  0.183925  0  0.123666  0.111857  0  1.017318  0
H  H19  1  0.23443587  0.28794233  0.82355819  1  0.183999  0  0.123613  0.111815  0  1.017392  0
H  H20  1  0.94797970  0.75375295  0.39036926  1  0.102931  0  0.112815  0.126381  0  0.993834  0
H  H21  1  0.05202143  0.25374741  0.60962342  1  0.102924  0  0.112866  0.126515  0  0.993782  0
H  H22  1  0.05202294  0.75374066  0.89037785  1  0.102898  0  0.112836  0.126519  0  0.993671  0
H  H23  1  0.94798030  0.25375614  0.10962194  1  0.103113  0  0.112838  0.126438  0  0.993768  0
H  H24  1  0.90868984  0.89630216  0.29564990  1  0.10912  0  0.12268  0.09142  0  1.010169  0
H  H25  1  0.09130357  0.39629004  0.70434490  1  0.109222  0  0.122745  0.091567  0  1.010036  0
H  H26  1  0.09130296  0.89628666  0.79565839  1  0.109085  0  0.122738  0.091625  0  1.010027  0
H  H27  1  0.90869571  0.39630110  0.20434098  1  0.109028  0  0.122719  0.09151  0  1.010212  0
H  H28  1  0.48814904  0.93617301  0.34396596  1  0.190389  0  0.116971  0.096301  0  1.052152  0
H  H29  1  0.51184064  0.43616089  0.65603496  1  0.190526  0  0.116959  0.09632  0  1.052382  0
H  H30  1  0.51184582  0.93616027  0.84396476  1  0.190459  0  0.116979  0.096328  0  1.05232  0
H  H31  1  0.48815649  0.43616030  0.15603514  1  0.190453  0  0.116985  0.096337  0  1.052291  0
H  H32  1  0.50713251  0.79288622  0.44131168  1  0.094823  0  0.09942  0.104997  0  1.041029  0
H  H33  1  0.49286489  0.29287996  0.55868508  1  0.094816  0  0.099403  0.104919  0  1.041062  0
H  H34  1  0.49286899  0.79287953  0.94131511  1  0.094768  0  0.099466  0.104993  0  1.041012  0
H  H35  1  0.50713472  0.29287954  0.05868623  1  0.094811  0  0.09941  0.104937  0  1.04113  0
H  H36  1  0.64098694  0.32377554  0.74707937  1  0.073319  0  0.097552  0.120215  0  1.00824  0
H  H37  1  0.35900874  0.82377126  0.25292402  1  0.073106  0  0.09759  0.120268  0  1.008116  0
H  H38  1  0.35900046  0.32377206  0.24707784  1  0.073016  0  0.097584  0.120259  0  1.008081  0
H  H39  1  0.64099943  0.82377563  0.75292352  1  0.072938  0  0.097583  0.120221  0  1.008167  0
H  H40  1  0.67865787  0.25208327  0.67090222  1  0.006134  0  0.09281  0.10657  0  0.979931  0
H  H41  1  0.32134324  0.75208148  0.32910315  1  0.005977  0  0.092834  0.106575  0  0.979821  0
H  H42  1  0.32133475  0.25208569  0.17089723  1  0.005992  0  0.092812  0.106532  0  0.979863  0
H  H43  1  0.67866216  0.75208262  0.82910155  1  0.006067  0  0.092816  0.106524  0  0.979826  0
H  H44  1  0.83442458  0.20021785  0.80517913  1  0.035163  0  0.088683  0.087786  0  0.988487  0
H  H45  1  0.16557484  0.70020202  0.19482723  1  0.035261  0  0.08867  0.087789  0  0.988514  0
H  H46  1  0.16556908  0.20019670  0.30517452  1  0.035181  0  0.088638  0.087694  0  0.988563  0
H  H47  1  0.83443350  0.70021339  0.69482472  1  0.035216  0  0.088667  0.087749  0  0.988477  0
H  H48  1  0.89382852  0.30113736  0.74332089  1  0.01427  0  0.085283  0.076221  0  0.995441  0
H  H49  1  0.10616793  0.80112823  0.25668197  1  0.014361  0  0.085271  0.076164  0  0.995311  0
H  H50  1  0.10616074  0.30112280  0.24332050  1  0.014398  0  0.085242  0.076167  0  0.995352  0
H  H51  1  0.89383886  0.80113302  0.75668237  1  0.014213  0  0.08526  0.076109  0  0.995493  0
H  H52  1  0.84951280  0.03305297  0.72421919  1  0.068797  0  0.100385  0.124364  0  0.98434  0
H  H53  1  0.15047932  0.53304249  0.27578910  1  0.068729  0  0.10037  0.124299  0  0.984392  0
H  H54  1  0.15047866  0.03303613  0.22421208  1  0.068611  0  0.100374  0.124337  0  0.984389  0
H  H55  1  0.84951557  0.53304333  0.77578452  1  0.068691  0  0.100372  0.124322  0  0.984415  0
H  H56  1  0.89845842  0.12803427  0.65749944  1  -0.00564  0  0.087262  0.092188  0  0.999303  0
H  H57  1  0.10154118  0.62802971  0.34250484  1  -0.005749  0  0.087238  0.092183  0  0.999383  0
H  H58  1  0.10154440  0.12802589  0.15749449  1  -0.005711  0  0.087274  0.092227  0  0.99937  0
H  H59  1  0.89846150  0.62803009  0.84250370  1  -0.005693  0  0.087238  0.092163  0  0.999397  0
C  C60  1  0.53309384  0.91260390  0.63049964  1  0.474892  0  0.050235  0.104488  0  3.964123  0
C  C61  1  0.46690818  0.41259795  0.36949873  1  0.474606  0  0.050109  0.104227  0  3.964157  0
C  C62  1  0.46691360  0.91260136  0.13050037  1  0.474813  0  0.050164  0.104468  0  3.963925  0
C  C63  1  0.53309052  0.41260049  0.86950154  1  0.474705  0  0.050121  0.104291  0  3.963761  0
C  C64  1  0.59047326  0.82719349  0.58785884  1  -0.032312  0  -0.092314  -0.185164  0  3.98141  0
C  C65  1  0.40953087  0.32718978  0.41213997  1  -0.031992  0  -0.092267  -0.184872  0  3.981375  0
C  C66  1  0.40953992  0.82718601  0.08785972  1  -0.032464  0  -0.092258  -0.185024  0  3.981562  0
C  C67  1  0.59046632  0.32718394  0.91214316  1  -0.03272  0  -0.092214  -0.184901  0  3.981418  0
C  C68  1  0.51440375  0.72257127  0.57643610  1  -0.105954  0  0.007578  0.102366  0  4.023026  0
C  C69  1  0.48560647  0.22257002  0.42356417  1  -0.105729  0  0.007564  0.10224  0  4.023098  0
C  C70  1  0.48560933  0.72257155  0.07643425  1  -0.10543  0  0.007502  0.102211  0  4.023155  0
C  C71  1  0.51439142  0.22257152  0.92357009  1  -0.106196  0  0.007409  0.102148  0  4.02345  0
C  C72  1  0.38345158  0.70860901  0.60811948  1  -0.029982  0  -0.08444  -0.168677  0  3.922479  0
C  C73  1  0.61655741  0.20861150  0.39187977  1  -0.030273  0  -0.084477  -0.168696  0  3.922612  0
C  C74  1  0.61655677  0.70860420  0.10812035  1  -0.030178  0  -0.084451  -0.168676  0  3.922256  0
C  C75  1  0.38344170  0.20860386  0.89188551  1  -0.029571  0  -0.084405  -0.168663  0  3.922379  0
C  C76  1  0.33469240  0.79853594  0.65027513  1  0.473349  0  0.058693  0.121737  0  3.89667  0
C  C77  1  0.66531348  0.29853788  0.34972418  1  0.473048  0  0.058764  0.121832  0  3.896477  0
C  C78  1  0.66531132  0.79853422  0.15028045  1  0.472974  0  0.058604  0.121659  0  3.896611  0
C  C79  1  0.33468930  0.29853338  0.84972343  1  0.473264  0  0.058712  0.121711  0  3.896433  0
C  C80  1  0.72939881  0.76050321  0.42326991  1  -0.192698  0  0.008847  0.104216  0  4.014855  0
C  C81  1  0.27060135  0.26049950  0.57672125  1  -0.192757  0  0.008716  0.104214  0  4.014896  0
C  C82  1  0.27060775  0.76049637  0.92327745  1  -0.192903  0  0.008823  0.104333  0  4.014716  0
C  C83  1  0.72940188  0.26050367  0.07672336  1  -0.192651  0  0.00877  0.104246  0  4.014914  0
C  C84  1  0.84436697  0.79249666  0.38247260  1  0.025009  0  -0.084386  -0.162673  0  3.933603  0
C  C85  1  0.15562832  0.29248404  0.61752722  1  0.024738  0  -0.084421  -0.162889  0  3.933502  0
C  C86  1  0.15562991  0.79247905  0.88247433  1  0.024716  0  -0.084391  -0.162842  0  3.933202  0
C  C87  1  0.84436749  0.29249188  0.11752498  1  0.024656  0  -0.084371  -0.162761  0  3.933595  0
C  C88  1  0.82317547  0.87193344  0.32971572  1  0.469408  0  0.055995  0.117685  0  3.916583  0
C  C89  1  0.17682816  0.37192200  0.67027958  1  0.470362  0  0.055923  0.117439  0  3.916964  0
C  C90  1  0.17682717  0.87191957  0.82972451  1  0.47088  0  0.055865  0.11729  0  3.916877  0
C  C91  1  0.82317751  0.37193231  0.17027739  1  0.469698  0  0.055935  0.117548  0  3.916882  0
C  C92  1  0.58738795  0.89296167  0.35694512  1  0.457917  0  0.050537  0.103753  0  3.936862  0
C  C93  1  0.41261173  0.39294866  0.64305221  1  0.458918  0  0.050498  0.103625  0  3.936967  0
C  C94  1  0.41261466  0.89294718  0.85694875  1  0.458912  0  0.050441  0.103574  0  3.936956  0
C  C95  1  0.58738923  0.39295338  0.14305062  1  0.458903  0  0.050451  0.103657  0  3.936983  0
C  C96  1  0.59948261  0.81412462  0.41093390  1  0.003346  0  -0.093671  -0.184978  0  3.997366  0
C  C97  1  0.40050768  0.31411673  0.58905983  1  0.003094  0  -0.093672  -0.184898  0  3.997451  0
C  C98  1  0.40051317  0.81411535  0.91093858  1  0.003164  0  -0.093757  -0.185022  0  3.997524  0
C  C99  1  0.59948765  0.31411978  0.08906074  1  0.003062  0  -0.093662  -0.184909  0  3.997471  0
C  C100  1  0.57875154  0.14152554  0.74431894  1  1.537721  0  0.194767  0.608465  0  4.175863  0
C  C101  1  0.42124927  0.64152359  0.25568484  1  1.537723  0  0.194778  0.608372  0  4.176028  0
C  C102  1  0.42124418  0.14152527  0.24431217  1  1.537731  0  0.194847  0.608493  0  4.175998  0
C  C103  1  0.57875243  0.64152742  0.75568247  1  1.537749  0  0.194857  0.60859  0  4.17564  0
C  C104  1  0.68249045  0.23995291  0.72648005  1  -0.024054  0  -0.17023  -0.297732  0  3.929362  0
C  C105  1  0.31750736  0.73994654  0.27352430  1  -0.023665  0  -0.170327  -0.297776  0  3.929276  0
C  C106  1  0.31749930  0.23994907  0.22647608  1  -0.023764  0  -0.17034  -0.29774  0  3.929224  0
C  C107  1  0.68249745  0.73995126  0.77352218  1  -0.023702  0  -0.170339  -0.297738  0  3.929083  0
C  C108  1  0.83297725  0.21884883  0.75039276  1  0.012922  0  -0.169626  -0.099324  0  3.971363  0
C  C109  1  0.16702241  0.71883844  0.24961310  1  0.01298  0  -0.16968  -0.099317  0  3.971559  0
C  C110  1  0.16701514  0.21883392  0.25038917  1  0.013221  0  -0.169559  -0.099198  0  3.971486  0
C  C111  1  0.83298557  0.71884537  0.74961162  1  0.013141  0  -0.169615  -0.099141  0  3.971306  0
C  C112  1  0.90513179  0.11679691  0.71305796  1  -0.005026  0  -0.170437  -0.294224  0  3.945267  0
C  C113  1  0.09486662  0.61678863  0.28694733  1  -0.005162  0  -0.170393  -0.294252  0  3.945423  0
C  C114  1  0.09486607  0.11678136  0.21305201  1  -0.005223  0  -0.170432  -0.294361  0  3.945477  0
C  C115  1  0.90513444  0.61678818  0.78694515  1  -0.005161  0  -0.170392  -0.294263  0  3.945384  0
C  C116  1  0.05847156  0.09925868  0.73223333  1  1.517674  0  0.188203  0.602001  0  4.198476  0
C  C117  1  0.94152348  0.59925771  0.26776839  1  1.517932  0  0.188394  0.602508  0  4.197791  0
C  C118  1  0.94152167  0.09925048  0.23222628  1  1.517863  0  0.188385  0.602625  0  4.197487  0
C  C119  1  0.05847652  0.59925170  0.76776935  1  1.517945  0  0.188369  0.602413  0  4.197859  0
S  S120  1  0.56925896  0.60669081  0.52194528  1  0.082731  0  0.06068  0.02547  0  2.787148  0
S  S121  1  0.43074038  0.10668830  0.47805290  1  0.082672  0  0.0607  0.025431  0  2.787161  0
S  S122  1  0.43074489  0.60668528  0.02194763  1  0.082832  0  0.060695  0.025461  0  2.787166  0
S  S123  1  0.56926181  0.10668760  0.97805410  1  0.082622  0  0.060682  0.025436  0  2.787279  0
S  S124  1  0.76232255  0.65504807  0.48783260  1  0.115576  0  0.063273  0.036731  0  2.7164  0
S  S125  1  0.23767002  0.15504396  0.51215900  1  0.11549  0  0.063391  0.036873  0  2.716492  0
S  S126  1  0.23768097  0.65503651  0.98783869  1  0.1153  0  0.063314  0.036748  0  2.716512  0
S  S127  1  0.76232843  0.15504842  0.01216205  1  0.11547  0  0.063342  0.036812  0  2.716528  0
N  N128  1  0.40785166  0.89917124  0.66144997  1  -1.247223  0  -0.329317  -0.238936  0  3.553311  0
N  N129  1  0.59215019  0.39917164  0.33854788  1  -1.246862  0  -0.329295  -0.238897  0  3.553081  0
N  N130  1  0.59215633  0.89916978  0.16145141  1  -1.246865  0  -0.329246  -0.23893  0  3.553227  0
N  N131  1  0.40784448  0.39916954  0.83855101  1  -1.246707  0  -0.329297  -0.238899  0  3.553058  0
N  N132  1  0.69666083  0.92097886  0.31651916  1  -1.239258  0  -0.330595  -0.234932  0  3.57204  0
N  N133  1  0.30333498  0.42096587  0.68348022  1  -1.24087  0  -0.330524  -0.234692  0  3.572112  0
N  N134  1  0.30333099  0.92096609  0.81652205  1  -1.241054  0  -0.330434  -0.234574  0  3.571931  0
N  N135  1  0.69666482  0.42097509  0.18347632  1  -1.240157  0  -0.330503  -0.234818  0  3.571953  0
O  O136  1  0.45247980  0.15717760  0.72001047  1  -1.176888  0  -0.34444  -0.566556  0  2.33604  0
O  O137  1  0.54752226  0.65717768  0.27999180  1  -1.176979  0  -0.344389  -0.566492  0  2.336138  0
O  O138  1  0.54751322  0.15717664  0.21999881  1  -1.17702  0  -0.344494  -0.566597  0  2.336109  0
O  O139  1  0.45248147  0.65717597  0.77999177  1  -1.176905  0  -0.344451  -0.566582  0  2.336029  0
O  O140  1  0.61527703  0.05344148  0.77877981  1  -1.189331  0  -0.325695  -0.561634  0  2.154065  0
O  O141  1  0.38471744  0.55344003  0.22122087  1  -1.189297  0  -0.325718  -0.561623  0  2.154082  0
O  O142  1  0.38472565  0.05344444  0.27877923  1  -1.189172  0  -0.325692  -0.561627  0  2.154063  0
O  O143  1  0.61527935  0.55344773  0.72121383  1  -1.189278  0  -0.325733  -0.561737  0  2.153828  0
O  O144  1  0.10833158  0.14427626  0.78524625  1  -1.187841  0  -0.330835  -0.569368  0  2.145031  0
O  O145  1  0.89166085  0.64428363  0.21477024  1  -1.187876  0  -0.330873  -0.569495  0  2.145282  0
O  O146  1  0.89165741  0.14426940  0.28522814  1  -1.187634  0  -0.330928  -0.569643  0  2.145135  0
O  O147  1  0.10834028  0.64427273  0.71476193  1  -1.187802  0  -0.330902  -0.569487  0  2.144995  0
O  O148  1  0.13223823  0.03334305  0.69114141  1  -1.172892  0  -0.358178  -0.588399  0  2.268424  0
O  O149  1  0.86775706  0.53333440  0.30886231  1  -1.173069  0  -0.358261  -0.588641  0  2.268017  0
O  O150  1  0.86775570  0.03333687  0.19112895  1  -1.173159  0  -0.358231  -0.588663  0  2.268012  0
O  O151  1  0.13224063  0.53333614  0.80886308  1  -1.173065  0  -0.358236  -0.588605  0  2.26818  0
