# generated using pymatgen
data_BiH9C9S2Br3
_symmetry_space_group_name_H-M   'P 1'
_cell_length_a   5.78651340
_cell_length_b   9.25970290
_cell_length_c   14.18926030
_cell_angle_alpha   78.96824674
_cell_angle_beta   83.71051496
_cell_angle_gamma   106.27588345
_symmetry_Int_Tables_number   1
_chemical_formula_structural   BiH9C9S2Br3
_chemical_formula_sum   'Bi2 H18 C18 S4 Br6'
_cell_volume   705.49957886
_cell_formula_units_Z   2
loop_
 _symmetry_equiv_pos_site_id
 _symmetry_equiv_pos_as_xyz
  1  'x, y, z'
loop_
 _atom_site_type_symbol
 _atom_site_label
 _atom_site_symmetry_multiplicity
 _atom_site_fract_x
 _atom_site_fract_y
 _atom_site_fract_z
 _atom_site_occupancy
 _atom_site_hle17_bader_spin_density
 _atom_site_hle17_ddec_charge
 _atom_site_hle17_ddec_spin_density
 _atom_site_hle17_ddec_sum_bond_order
 _atom_site_hle17_magmom
 _atom_site_hse06_10hf_bader_spin_density
 _atom_site_hse06_10hf_ddec_charge
 _atom_site_hse06_10hf_ddec_spin_density
 _atom_site_hse06_10hf_ddec_sum_bond_order
 _atom_site_hse06_10hf_magmom
 _atom_site_hse06_bader_spin_density
 _atom_site_hse06_ddec_charge
 _atom_site_hse06_ddec_spin_density
 _atom_site_hse06_ddec_sum_bond_order
 _atom_site_hse06_magmom
 _atom_site_pbe_bader_spin_density
 _atom_site_pbe_cm5_charge
 _atom_site_pbe_ddec_charge
 _atom_site_pbe_ddec_spin_density
 _atom_site_pbe_ddec_sum_bond_order
 _atom_site_pbe_magmom
Bi  Bi0  1  0.96754383  0.54425978  0.14734726  1  0  1.07295  0  2.547599  0  0  0.92407  0  3.035503  0  0  0.98552  0  3.005537  0  0  0.474777  0.876386  0  3.065104  0
Bi  Bi1  1  0.03251183  0.45574950  0.85265921  1  0  1.072921  0  2.547746  0  0  0.924022  0  3.035673  0  0  0.985475  0  3.005709  0  0  0.47476  0.87634  0  3.065273  0
H  H2  1  0.82443242  0.80679705  0.56382695  1  0  0.108589  0  0.934517  0  0  0.118542  0  0.994  0  0  0.121758  0  0.992303  0  0  0.10447  0.116241  0  0.995237  0
H  H3  1  0.17551866  0.19320878  0.43616636  1  0  0.108595  0  0.934348  0  0  0.118494  0  0.993908  0  0  0.121717  0  0.992202  0  0  0.104459  0.116188  0  0.995141  0
H  H4  1  0.12046528  0.70410070  0.48426320  1  0  0.09787  0  0.985109  0  0  0.108519  0  1.050435  0  0  0.111568  0  1.04879  0  0  0.094978  0.106195  0  1.052039  0
H  H5  1  0.87947837  0.29589135  0.51574171  1  0  0.097845  0  0.984986  0  0  0.108471  0  1.050344  0  0  0.111534  0  1.048689  0  0  0.094965  0.106149  0  1.051935  0
H  H6  1  0.69133592  0.00930893  0.28238568  1  0  0.11445  0  0.952673  0  0  0.11911  0  1.024115  0  0  0.123012  0  1.020815  0  0  0.097797  0.116242  0  1.026632  0
H  H7  1  0.30867891  0.99069859  0.71759922  1  0  0.114323  0  0.95267  0  0  0.11899  0  1.024138  0  0  0.122897  0  1.020834  0  0  0.097729  0.116121  0  1.026662  0
H  H8  1  0.16123674  0.50110958  0.41414992  1  0  0.123746  0  0.98058  0  0  0.139915  0  1.047781  0  0  0.1413  0  1.047652  0  0  0.087094  0.138977  0  1.047783  0
H  H9  1  0.83875633  0.49888097  0.58585532  1  0  0.123782  0  0.980536  0  0  0.139889  0  1.047822  0  0  0.141272  0  1.047698  0  0  0.087091  0.13895  0  1.047823  0
H  H10  1  0.44706629  0.64316340  0.41693026  1  0  0.132354  0  0.9541  0  0  0.151179  0  1.012935  0  0  0.151704  0  1.014784  0  0  0.094348  0.150551  0  1.012169  0
H  H11  1  0.55289854  0.35683436  0.58308656  1  0  0.132347  0  0.954094  0  0  0.151167  0  1.0129  0  0  0.151726  0  1.014712  0  0  0.094343  0.150537  0  1.012128  0
H  H12  1  0.43376253  0.51905016  0.33385624  1  0  0.130501  0  0.982154  0  0  0.143773  0  1.054663  0  0  0.145935  0  1.05348  0  0  0.081504  0.142296  0  1.055328  0
H  H13  1  0.56624747  0.48095279  0.66615544  1  0  0.130487  0  0.9824  0  0  0.143765  0  1.054882  0  0  0.145928  0  1.053701  0  0  0.081498  0.142286  0  1.055546  0
H  H14  1  0.41192855  0.97541002  0.12698213  1  0  0.119441  0  0.978883  0  0  0.131869  0  1.052464  0  0  0.133609  0  1.052029  0  0  0.081514  0.13063  0  1.052779  0
H  H15  1  0.58810107  0.02457313  0.87302377  1  0  0.119488  0  0.979026  0  0  0.131918  0  1.052598  0  0  0.13366  0  1.052155  0  0  0.081524  0.130666  0  1.052926  0
H  H16  1  0.28342534  0.13220094  0.12570688  1  0  0.143623  0  0.940197  0  0  0.160099  0  1.00178  0  0  0.162149  0  1.000598  0  0  0.089511  0.158553  0  1.002763  0
H  H17  1  0.71662952  0.86778928  0.87429939  1  0  0.143681  0  0.940081  0  0  0.160166  0  1.001636  0  0  0.162215  0  1.000457  0  0  0.089562  0.158623  0  1.002619  0
H  H18  1  0.28281096  0.04339841  0.02467586  1  0  0.134113  0  0.946461  0  0  0.15296  0  1.009434  0  0  0.154437  0  1.009137  0  0  0.089697  0.151819  0  1.009807  0
H  H19  1  0.71724539  0.95659882  0.97532925  1  0  0.134205  0  0.946482  0  0  0.153045  0  1.009445  0  0  0.154521  0  1.009148  0  0  0.089749  0.151909  0  1.009812  0
C  C20  1  0.85771604  0.82651826  0.48464139  1  0  -0.080053  0  3.685832  0  0  -0.100528  0  3.93146  0  0  -0.100705  0  3.949552  0  0  -0.076675  -0.100109  0  3.91909  0
C  C21  1  0.14223534  0.17347263  0.51535361  1  0  -0.079695  0  3.68544  0  0  -0.100136  0  3.931041  0  0  -0.100316  0  3.949133  0  0  -0.076443  -0.099714  0  3.918658  0
C  C22  1  0.02243447  0.76670502  0.43952800  1  0  -0.099439  0  3.763416  0  0  -0.119921  0  4.015034  0  0  -0.124053  0  4.036996  0  0  -0.093843  -0.117273  0  4.000231  0
C  C23  1  0.97753048  0.23329647  0.56047640  1  0  -0.099662  0  3.763258  0  0  -0.120133  0  4.014921  0  0  -0.124286  0  4.036887  0  0  -0.09399  -0.117478  0  4.000109  0
C  C24  1  0.06502590  0.78875785  0.33792970  1  0  0.003815  0  3.768528  0  0  0.015933  0  4.020844  0  0  0.018454  0  4.045099  0  0  -0.011112  0.014412  0  4.004056  0
C  C25  1  0.93495443  0.21123667  0.66207164  1  0  0.003862  0  3.76869  0  0  0.015971  0  4.021018  0  0  0.018486  0  4.04527  0  0  -0.011093  0.014438  0  4.00424  0
C  C26  1  0.94114522  0.87529786  0.28118776  1  0  -0.009468  0  3.754186  0  0  0.011316  0  4.002947  0  0  0.009419  0  4.027753  0  0  -0.018313  0.012248  0  3.986173  0
C  C27  1  0.05885806  0.12470439  0.71880531  1  0  -0.009329  0  3.754002  0  0  0.011447  0  4.00282  0  0  0.009572  0  4.027597  0  0  -0.018269  0.012385  0  3.986047  0
C  C28  1  0.78154516  0.93975321  0.32649265  1  0  -0.12853  0  3.694659  0  0  -0.159154  0  3.943896  0  0  -0.15916  0  3.960797  0  0  -0.084614  -0.15903  0  3.932603  0
C  C29  1  0.21844621  0.06024992  0.67349529  1  0  -0.128487  0  3.695115  0  0  -0.159162  0  3.944385  0  0  -0.159179  0  3.961289  0  0  -0.084631  -0.159032  0  3.933092  0
C  C30  1  0.73516763  0.91494552  0.42911150  1  0  0.10631  0  3.895937  0  0  0.122825  0  4.124991  0  0  0.124369  0  4.145873  0  0  -0.006989  0.121731  0  4.110809  0
C  C31  1  0.26480922  0.08506504  0.57087732  1  0  0.106093  0  3.896593  0  0  0.122676  0  4.12558  0  0  0.124213  0  4.146482  0  0  -0.007097  0.121575  0  4.111399  0
C  C32  1  0.57007522  0.97566524  0.47696169  1  0  -0.081651  0  3.836231  0  0  -0.082131  0  4.090949  0  0  -0.085315  0  4.120489  0  0  -0.040881  -0.079974  0  4.070993  0
C  C33  1  0.42988683  0.02433136  0.52302295  1  0  -0.081404  0  3.836183  0  0  -0.081895  0  4.090827  0  0  -0.085078  0  4.12037  0  0  -0.040681  -0.07974  0  4.070875  0
C  C34  1  0.33299833  0.58213589  0.37119850  1  0  -0.326306  0  3.620318  0  0  -0.398144  0  3.864666  0  0  -0.398579  0  3.872355  0  0  -0.237046  -0.3976  0  3.859245  0
C  C35  1  0.66697708  0.41786037  0.62881561  1  0  -0.326291  0  3.62052  0  0  -0.398034  0  3.864747  0  0  -0.398496  0  3.872408  0  0  -0.237038  -0.3975  0  3.859362  0
C  C36  1  0.26822185  0.02290731  0.10417270  1  0  -0.325026  0  3.610652  0  0  -0.398076  0  3.861027  0  0  -0.397854  0  3.866922  0  0  -0.239658  -0.398061  0  3.856814  0
C  C37  1  0.73181958  0.97708832  0.89582814  1  0  -0.325307  0  3.610723  0  0  -0.398386  0  3.861089  0  0  -0.398146  0  3.866941  0  0  -0.2398  -0.398399  0  3.856992  0
S  S38  1  0.27145707  0.71724700  0.27610509  1  0  0.039707  0  2.809019  0  0  0.06653  0  3.177305  0  0  0.057316  0  3.183871  0  0  0.038334  0.07357  0  3.172484  0
S  S39  1  0.72853336  0.28275102  0.72390181  1  0  0.039632  0  2.809007  0  0  0.066456  0  3.177238  0  0  0.057238  0  3.183822  0  0  0.038319  0.073506  0  3.172407  0
S  S40  1  0.96379905  0.88925931  0.15361411  1  0  0.01713  0  2.566627  0  0  0.039017  0  2.921112  0  0  0.030569  0  2.92617  0  0  0.0152  0.04574  0  2.917669  0
S  S41  1  0.03623883  0.11074514  0.84638184  1  0  0.017171  0  2.566485  0  0  0.039067  0  2.920961  0  0  0.03061  0  2.926009  0  0  0.015238  0.045803  0  2.917508  0
Br  Br42  1  0.76571466  0.34605237  0.32427583  1  0  -0.419969  0  0.987025  0  0  -0.372326  0  1.245492  0  0  -0.388523  0  1.232337  0  0  -0.183158  -0.360249  0  1.255502  0
Br  Br43  1  0.23425434  0.65392825  0.67572135  1  0  -0.419904  0  0.987075  0  0  -0.372261  0  1.245554  0  0  -0.388448  0  1.232384  0  0  -0.183111  -0.360196  0  1.255599  0
Br  Br44  1  0.48820731  0.54452492  0.12004604  1  0  -0.462689  0  1.228806  0  0  -0.412561  0  1.537829  0  0  -0.432582  0  1.522394  0  0  -0.189402  -0.39695  0  1.548828  0
Br  Br45  1  0.51183275  0.45551797  0.87994886  1  0  -0.462729  0  1.228976  0  0  -0.41258  0  1.537968  0  0  -0.432627  0  1.522578  0  0  -0.189391  -0.396961  0  1.548957  0
Br  Br46  1  0.88477036  0.27844865  0.06675953  1  0  -0.411573  0  1.095594  0  0  -0.362914  0  1.379015  0  0  -0.384443  0  1.36648  0  0  -0.167621  -0.346432  0  1.38868  0
Br  Br47  1  0.11526924  0.72155484  0.93324653  1  0  -0.411522  0  1.095583  0  0  -0.36286  0  1.379007  0  0  -0.384394  0  1.366475  0  0  -0.167604  -0.346369  0  1.388676  0
