# generated using pymatgen
data_CuSiH8C24(N2F7)2
_symmetry_space_group_name_H-M   'P 1'
_cell_length_a   8.00211782
_cell_length_b   13.76266082
_cell_length_c   13.76253635
_cell_angle_alpha   89.99942086
_cell_angle_beta   89.99960714
_cell_angle_gamma   89.99982246
_symmetry_Int_Tables_number   1
_chemical_formula_structural   CuSiH8C24(N2F7)2
_chemical_formula_sum   'Cu1 Si1 H8 C24 N4 F14'
_cell_volume   1515.67409331
_cell_formula_units_Z   1
loop_
 _symmetry_equiv_pos_site_id
 _symmetry_equiv_pos_as_xyz
  1  'x, y, z'
loop_
 _atom_site_type_symbol
 _atom_site_label
 _atom_site_symmetry_multiplicity
 _atom_site_fract_x
 _atom_site_fract_y
 _atom_site_fract_z
 _atom_site_occupancy
 _atom_site_pbe_bader_charge
 _atom_site_pbe_bader_spin_density
 _atom_site_pbe_cm5_charge
 _atom_site_pbe_ddec_charge
 _atom_site_pbe_ddec_spin_density
 _atom_site_pbe_ddec_sum_bond_order
 _atom_site_pbe_magmom
Cu  Cu0  1  0.50002307  0.49999558  0.50000102  1  1.079219  0.572869  0.783529  0.704535  0.735688  2.263689  0.571
Si  Si1  1  0.00001294  0.49999599  0.50000124  1  3.168855  -0.000191  0.246348  1.716265  -0.00035  3.969264  0.0
H  H2  1  0.23758709  0.65637617  0.49998038  1  0.228047  0.002549  0.127926  0.142675  0.00122  1.031311  0.002
H  H3  1  0.76242315  0.65637792  0.49998447  1  0.227952  0.002548  0.127835  0.142538  0.00122  1.031372  0.002
H  H4  1  0.23761674  0.34362415  0.49997905  1  0.228488  0.002549  0.127938  0.142607  0.001221  1.031335  0.002
H  H5  1  0.76245031  0.34359829  0.50008996  1  0.228188  0.002547  0.127945  0.142598  0.001219  1.031382  0.002
H  H6  1  0.23759407  0.50001680  0.65638475  1  0.22823  0.002548  0.127924  0.142673  0.00122  1.031277  0.002
H  H7  1  0.76242889  0.50000839  0.65638303  1  0.227907  0.002548  0.127833  0.142447  0.00122  1.031431  0.002
H  H8  1  0.23761101  0.50001403  0.34362918  1  0.228455  0.002548  0.127959  0.142762  0.00122  1.031282  0.002
H  H9  1  0.76244332  0.49990534  0.34361002  1  0.227973  0.002548  0.127959  0.14263  0.00122  1.031396  0.002
C  C10  1  0.35369748  0.69768349  0.49998649  1  0.58389  -0.001216  0.038132  -0.054301  -0.001296  3.909009  -0.001
C  C11  1  0.35181768  0.79845398  0.49999616  1  0.49431  0.006158  0.12481  0.24148  0.003976  4.013145  0.005
C  C12  1  0.50000329  0.85367574  0.50001376  1  0.133935  -0.003276  0.003686  -0.054441  -0.003743  4.130156  -0.002
C  C13  1  0.64819047  0.79845592  0.50000141  1  0.493915  0.006157  0.124849  0.241554  0.003975  4.013241  0.005
C  C14  1  0.64631376  0.69768398  0.49998884  1  0.584022  -0.001217  0.038216  -0.054146  -0.001298  3.908922  -0.001
C  C15  1  0.50000049  0.95575411  0.50003650  1  -0.043387  -0.001295  -0.017737  -0.038132  -0.001408  4.090032  -0.001
C  C16  1  0.49999816  0.04423488  0.50004328  1  -0.274007  -0.001349  -0.017589  -0.037566  -0.001409  4.089835  -0.001
C  C17  1  0.50000786  0.14631616  0.50003986  1  0.133479  -0.003275  0.003932  -0.054318  -0.003741  4.130068  -0.002
C  C18  1  0.35182693  0.20153961  0.50000499  1  0.494444  0.006159  0.12472  0.241288  0.003976  4.013243  0.005
C  C19  1  0.35372363  0.30231155  0.49999503  1  0.583563  -0.001217  0.03815  -0.053909  -0.001298  3.909005  -0.001
C  C20  1  0.64633742  0.30229896  0.50005842  1  0.584099  -0.001217  0.038401  -0.053642  -0.001298  3.909326  -0.001
C  C21  1  0.64820097  0.20152266  0.50005965  1  0.493802  0.006159  0.124535  0.240971  0.003976  4.01427  0.005
C  C22  1  0.35370058  0.50001142  0.69768797  1  0.583893  -0.001218  0.03823  -0.054035  -0.001299  3.908811  -0.001
C  C23  1  0.35182545  0.50000437  0.79846736  1  0.494117  0.00616  0.124627  0.241329  0.003977  4.01302  0.005
C  C24  1  0.50000963  0.49998871  0.85367856  1  0.133616  -0.003274  0.003769  -0.054398  -0.00374  4.130242  -0.002
C  C25  1  0.64819575  0.49999686  0.79846680  1  0.493938  0.00616  0.124812  0.241513  0.003977  4.013333  0.005
C  C26  1  0.64632187  0.50000609  0.69768741  1  0.5841  -0.001219  0.03837  -0.053764  -0.0013  3.908878  -0.001
C  C27  1  0.50000650  0.49996930  0.95576367  1  -0.274056  -0.001348  -0.017807  -0.038137  -0.001409  4.09017  -0.001
C  C28  1  0.50000215  0.49995938  0.04424200  1  -0.043224  -0.001295  -0.017625  -0.037759  -0.001408  4.089971  -0.001
C  C29  1  0.50000901  0.49996104  0.14632420  1  0.132862  -0.003275  0.003869  -0.054224  -0.003741  4.129961  -0.002
C  C30  1  0.35182415  0.49999358  0.20154323  1  0.494918  0.00616  0.124761  0.241406  0.003977  4.013102  0.005
C  C31  1  0.35371552  0.50000251  0.30232189  1  0.583383  -0.001218  0.038063  -0.054282  -0.001299  3.909251  -0.001
C  C32  1  0.64633306  0.49993834  0.30231189  1  0.583839  -0.001219  0.038417  -0.053752  -0.001299  3.909406  -0.001
C  C33  1  0.64820069  0.49993957  0.20153177  1  0.494338  0.006161  0.124647  0.241167  0.003977  4.014213  0.005
N  N34  1  0.50000389  0.64921092  0.49998500  1  -1.19123  0.092958  -0.324299  -0.158548  0.061774  3.611298  0.081
N  N35  1  0.50002976  0.35077735  0.50002284  1  -1.191211  0.092955  -0.324388  -0.159015  0.061773  3.611645  0.081
N  N36  1  0.50001215  0.50001009  0.64921843  1  -1.191086  0.092959  -0.324314  -0.158775  0.061775  3.611529  0.081
N  N37  1  0.50002649  0.49997309  0.35078724  1  -1.191164  0.092958  -0.324429  -0.159004  0.061774  3.612166  0.081
F  F38  1  0.21784652  0.49999291  0.50000737  1  -0.831619  -0.001669  -0.205842  -0.531505  -0.001829  1.339337  -0.001
F  F39  1  0.78218212  0.49999899  0.49999830  1  -0.8314  -0.00167  -0.205831  -0.531523  -0.00183  1.339533  -0.001
F  F40  1  0.00001697  0.58761539  0.41238250  1  -0.826476  0.000222  -0.248844  -0.53954  0.000193  1.070031  0.0
F  F41  1  0.00000015  0.41237514  0.58761853  1  -0.826624  0.000222  -0.248865  -0.539596  0.000193  1.069975  0.0
F  F42  1  0.00001214  0.58761305  0.58762055  1  -0.826517  0.000222  -0.248834  -0.539534  0.000193  1.070035  0.0
F  F43  1  0.00001873  0.41238038  0.41238120  1  -0.82657  0.000222  -0.24887  -0.539592  0.000193  1.069999  0.0
F  F44  1  0.79574127  0.84523600  0.50000235  1  -0.608794  0.002052  -0.074607  -0.104371  0.001234  1.348359  0.002
F  F45  1  0.20426535  0.84523502  0.49999693  1  -0.60717  0.002051  -0.074647  -0.104415  0.001234  1.348405  0.002
F  F46  1  0.79574954  0.15473943  0.50009376  1  -0.60895  0.002053  -0.074582  -0.104301  0.001234  1.348851  0.002
F  F47  1  0.20427238  0.15476244  0.49998734  1  -0.606906  0.002051  -0.074627  -0.104364  0.001234  1.348425  0.002
F  F48  1  0.79574390  0.49999287  0.84524932  1  -0.608592  0.002052  -0.074672  -0.104465  0.001234  1.348277  0.002
F  F49  1  0.20427423  0.50000716  0.84524971  1  -0.606983  0.002052  -0.074557  -0.104399  0.001234  1.348339  0.002
F  F50  1  0.79574942  0.49990408  0.15474942  1  -0.608817  0.002053  -0.074641  -0.104357  0.001234  1.348857  0.002
F  F51  1  0.20426975  0.50000992  0.15476943  1  -0.607006  0.002051  -0.074584  -0.104332  0.001234  1.348508  0.002
