# generated using pymatgen
data_LuH7C8SO9
_symmetry_space_group_name_H-M   'P 1'
_cell_length_a   6.33411892
_cell_length_b   8.48187101
_cell_length_c   10.53896870
_cell_angle_alpha   89.79217896
_cell_angle_beta   79.80824640
_cell_angle_gamma   72.22174408
_symmetry_Int_Tables_number   1
_chemical_formula_structural   LuH7C8SO9
_chemical_formula_sum   'Lu2 H14 C16 S2 O18'
_cell_volume   529.89357098
_cell_formula_units_Z   2
loop_
 _symmetry_equiv_pos_site_id
 _symmetry_equiv_pos_as_xyz
  1  'x, y, z'
loop_
 _atom_site_type_symbol
 _atom_site_label
 _atom_site_symmetry_multiplicity
 _atom_site_fract_x
 _atom_site_fract_y
 _atom_site_fract_z
 _atom_site_occupancy
 _atom_site_hle17_bader_spin_density
 _atom_site_hle17_ddec_charge
 _atom_site_hle17_ddec_spin_density
 _atom_site_hle17_ddec_sum_bond_order
 _atom_site_hle17_magmom
 _atom_site_hse06_10hf_bader_spin_density
 _atom_site_hse06_10hf_ddec_charge
 _atom_site_hse06_10hf_ddec_spin_density
 _atom_site_hse06_10hf_ddec_sum_bond_order
 _atom_site_hse06_10hf_magmom
 _atom_site_hse06_bader_spin_density
 _atom_site_hse06_ddec_charge
 _atom_site_hse06_ddec_spin_density
 _atom_site_hse06_ddec_sum_bond_order
 _atom_site_hse06_magmom
 _atom_site_pbe_bader_spin_density
 _atom_site_pbe_cm5_charge
 _atom_site_pbe_ddec_charge
 _atom_site_pbe_ddec_spin_density
 _atom_site_pbe_ddec_sum_bond_order
 _atom_site_pbe_magmom
Lu  Lu0  1  0.15561876  0.74671291  0.38022722  1  0  1.931999  0  2.202806  0  0  1.767699  0  2.677988  0  0  1.828366  0  2.620257  0  0  1.353936  1.724094  0  2.718768  0
Lu  Lu1  1  0.84438142  0.25328645  0.61977058  1  0  1.932109  0  2.202912  0  0  1.76766  0  2.678275  0  0  1.828381  0  2.620449  0  0  1.353981  1.72406  0  2.719106  0
H  H2  1  0.61665202  0.58869081  0.85534188  1  0  0.110981  0  0.939451  0  0  0.118474  0  1.003381  0  0  0.122043  0  1.001605  0  0  0.11515  0.115777  0  1.004948  0
H  H3  1  0.38333972  0.41131724  0.14465394  1  0  0.110977  0  0.939464  0  0  0.118508  0  1.003367  0  0  0.122082  0  1.001591  0  0  0.115196  0.115809  0  1.004934  0
H  H4  1  0.65598029  0.63309557  0.08154644  1  0  0.114533  0  0.948009  0  0  0.123885  0  1.009495  0  0  0.127637  0  1.006554  0  0  0.114078  0.120926  0  1.011926  0
H  H5  1  0.34400295  0.36691745  0.91845027  1  0  0.114633  0  0.947896  0  0  0.123932  0  1.00944  0  0  0.127673  0  1.006514  0  0  0.114137  0.120969  0  1.011877  0
H  H6  1  0.18529099  0.84552501  0.94290633  1  0  0.12491  0  0.947101  0  0  0.130891  0  1.01138  0  0  0.134761  0  1.009011  0  0  0.114998  0.127892  0  1.013488  0
H  H7  1  0.81471080  0.15447435  0.05709225  1  0  0.124878  0  0.947161  0  0  0.130864  0  1.011426  0  0  0.134729  0  1.009058  0  0  0.114985  0.127858  0  1.013534  0
H  H8  1  0.51866882  0.91479270  0.32217841  1  0  0.456565  0  0.809856  0  0  0.425585  0  0.880366  0  0  0.435738  0  0.865438  0  0  0.321097  0.4183  0  0.891089  0
H  H9  1  0.48132970  0.08520295  0.67782147  1  0  0.456596  0  0.809812  0  0  0.42559  0  0.880363  0  0  0.435754  0  0.865422  0  0  0.321113  0.418315  0  0.891074  0
H  H10  1  0.28746329  0.04177331  0.39272916  1  0  0.440791  0  0.858462  0  0  0.404248  0  0.932276  0  0  0.415277  0  0.916198  0  0  0.307583  0.396423  0  0.943664  0
H  H11  1  0.71253693  0.95822977  0.60726958  1  0  0.440659  0  0.858612  0  0  0.404167  0  0.932397  0  0  0.415184  0  0.916331  0  0  0.307546  0.396344  0  0.943781  0
H  H12  1  0.65168337  0.64081105  0.29238201  1  0  0.440012  0  0.857219  0  0  0.407638  0  0.922088  0  0  0.418924  0  0.905762  0  0  0.305075  0.399596  0  0.933718  0
H  H13  1  0.34831571  0.35918707  0.70762160  1  0  0.439934  0  0.857329  0  0  0.407566  0  0.922192  0  0  0.418862  0  0.905851  0  0  0.305052  0.399529  0  0.933821  0
H  H14  1  0.57883241  0.48900844  0.35516508  1  0  0.435693  0  0.858994  0  0  0.402828  0  0.925636  0  0  0.413503  0  0.910081  0  0  0.306615  0.395213  0  0.936725  0
H  H15  1  0.42116453  0.51099092  0.64484255  1  0  0.435823  0  0.858831  0  0  0.402962  0  0.925454  0  0  0.413639  0  0.909894  0  0  0.30669  0.39535  0  0.936538  0
C  C16  1  0.02452466  0.77656323  0.79778296  1  0  -0.133562  0  3.691613  0  0  -0.117552  0  3.946614  0  0  -0.124106  0  3.966932  0  0  -0.008322  -0.113403  0  3.933404  0
C  C17  1  0.97548245  0.22343488  0.20221791  1  0  -0.133469  0  3.691541  0  0  -0.11758  0  3.946688  0  0  -0.124157  0  3.967012  0  0  -0.008309  -0.11344  0  3.933477  0
C  C18  1  0.86958572  0.69759793  0.77120704  1  0  -0.038429  0  3.672762  0  0  -0.030815  0  3.914784  0  0  -0.032366  0  3.932355  0  0  0.005066  -0.029703  0  3.903199  0
C  C19  1  0.13041922  0.30239771  0.22879122  1  0  -0.038531  0  3.672758  0  0  -0.03085  0  3.914788  0  0  -0.032379  0  3.932349  0  0  0.00504  -0.029739  0  3.90319  0
C  C20  1  0.73708362  0.64899732  0.87569045  1  0  -0.043294  0  3.669754  0  0  -0.067666  0  3.92626  0  0  -0.069989  0  3.944625  0  0  -0.068294  -0.066608  0  3.914502  0
C  C21  1  0.26291661  0.35100575  0.12430828  1  0  -0.043322  0  3.669717  0  0  -0.067712  0  3.926179  0  0  -0.070046  0  3.944531  0  0  -0.06837  -0.066651  0  3.914412  0
C  C22  1  0.76031856  0.67326741  0.00245861  1  0  -0.039297  0  3.65687  0  0  -0.065613  0  3.903481  0  0  -0.062925  0  3.920601  0  0  -0.065846  -0.067013  0  3.892279  0
C  C23  1  0.23967210  0.32673939  0.99753828  1  0  -0.039428  0  3.656977  0  0  -0.065704  0  3.903626  0  0  -0.062999  0  3.920738  0  0  -0.0659  -0.067107  0  3.892426  0
C  C24  1  0.92556353  0.74159067  0.02659187  1  0  -0.049314  0  3.740206  0  0  -0.024424  0  3.974946  0  0  -0.03274  0  3.997359  0  0  -0.007649  -0.01912  0  3.959908  0
C  C25  1  0.07443561  0.25841117  0.97340604  1  0  -0.049188  0  3.740318  0  0  -0.02435  0  3.975066  0  0  -0.032649  0  3.997458  0  0  -0.007618  -0.019029  0  3.959994  0
C  C26  1  0.05516289  0.79461302  0.92386243  1  0  -0.054238  0  3.700528  0  0  -0.091877  0  3.951754  0  0  -0.089765  0  3.970526  0  0  -0.069668  -0.093025  0  3.939364  0
C  C27  1  0.94483408  0.20538635  0.07613666  1  0  -0.054256  0  3.700406  0  0  -0.09183  0  3.95164  0  0  -0.089699  0  3.970389  0  0  -0.069663  -0.092972  0  3.939233  0
C  C28  1  0.84866240  0.65496734  0.63632665  1  0  0.733206  0  3.799297  0  0  0.66727  0  4.110971  0  0  0.705058  0  4.096363  0  0  0.250887  0.641455  0  4.120354  0
C  C29  1  0.15134254  0.34502829  0.36367351  1  0  0.73312  0  3.799499  0  0  0.66714  0  4.111233  0  0  0.704902  0  4.09665  0  0  0.25086  0.641332  0  4.120597  0
C  C30  1  0.98524253  0.74715978  0.15669020  1  0  0.638121  0  3.896173  0  0  0.582624  0  4.197661  0  0  0.616513  0  4.191754  0  0  0.206079  0.559766  0  4.200785  0
C  C31  1  0.01475765  0.25283958  0.84330761  1  0  0.63808  0  3.896126  0  0  0.582626  0  4.197572  0  0  0.616518  0  4.191679  0  0  0.206138  0.559776  0  4.200683  0
S  S32  1  0.21107958  0.84169060  0.67629053  1  0  1.346117  0  5.536315  0  0  1.234621  0  6.054077  0  0  1.285324  0  6.029578  0  0  0.548173  1.199665  0  6.070082  0
S  S33  1  0.78892007  0.15831000  0.32371017  1  0  1.346074  0  5.536264  0  0  1.234571  0  6.054061  0  0  1.285273  0  6.029576  0  0  0.548142  1.199622  0  6.070062  0
O  O34  1  0.08040754  0.98897628  0.61753792  1  0  -0.719202  0  2.179429  0  0  -0.649181  0  2.453542  0  0  -0.674394  0  2.439322  0  0  -0.380831  -0.631222  0  2.462899  0
O  O35  1  0.91959961  0.01102555  0.38246484  1  0  -0.719194  0  2.179327  0  0  -0.649183  0  2.453465  0  0  -0.674379  0  2.439236  0  0  -0.380879  -0.631228  0  2.462826  0
O  O36  1  0.30389573  0.70238388  0.57576033  1  0  -0.714511  0  2.072578  0  0  -0.646938  0  2.327083  0  0  -0.67082  0  2.312084  0  0  -0.359226  -0.630198  0  2.337151  0
O  O37  1  0.69611409  0.29761918  0.42424783  1  0  -0.714513  0  2.072461  0  0  -0.646926  0  2.326978  0  0  -0.670812  0  2.311986  0  0  -0.359197  -0.630186  0  2.337041  0
O  O38  1  0.37988735  0.87289483  0.74005700  1  0  -0.622513  0  1.993014  0  0  -0.56762  0  2.239654  0  0  -0.59008  0  2.228261  0  0  -0.305316  -0.551988  0  2.24722  0
O  O39  1  0.62011667  0.12711443  0.25994987  1  0  -0.622473  0  1.993258  0  0  -0.567549  0  2.239884  0  0  -0.590017  0  2.22851  0  0  -0.305275  -0.551917  0  2.247455  0
O  O40  1  0.86305214  0.75787513  0.54865151  1  0  -0.687521  0  2.101998  0  0  -0.622616  0  2.34899  0  0  -0.649759  0  2.335801  0  0  -0.358778  -0.603652  0  2.35817  0
O  O41  1  0.13694416  0.24211432  0.45135241  1  0  -0.687523  0  2.101889  0  0  -0.622524  0  2.348834  0  0  -0.649673  0  2.335661  0  0  -0.358738  -0.603553  0  2.357987  0
O  O42  1  0.81976186  0.51741724  0.61625228  1  0  -0.646198  0  2.115826  0  0  -0.582502  0  2.378303  0  0  -0.61113  0  2.366985  0  0  -0.366905  -0.562343  0  2.385741  0
O  O43  1  0.18023440  0.48256849  0.38374881  1  0  -0.646009  0  2.116092  0  0  -0.582337  0  2.378577  0  0  -0.610938  0  2.36727  0  0  -0.366822  -0.562181  0  2.386008  0
O  O44  1  0.17446172  0.76785612  0.16378195  1  0  -0.64136  0  1.986416  0  0  -0.586734  0  2.224348  0  0  -0.614052  0  2.21724  0  0  -0.368153  -0.567719  0  2.228757  0
O  O45  1  0.82554107  0.23213705  0.83621274  1  0  -0.641398  0  1.986459  0  0  -0.586778  0  2.224359  0  0  -0.614117  0  2.217268  0  0  -0.368216  -0.567764  0  2.228769  0
O  O46  1  0.85665316  0.72811149  0.26032221  1  0  -0.665778  0  2.045008  0  0  -0.604372  0  2.277558  0  0  -0.630669  0  2.26807  0  0  -0.326686  -0.585665  0  2.283884  0
O  O47  1  0.14334864  0.27188787  0.73967163  1  0  -0.66576  0  2.044952  0  0  -0.604361  0  2.277498  0  0  -0.63067  0  2.268013  0  0  -0.326723  -0.58566  0  2.283819  0
O  O48  1  0.36351025  0.92405200  0.36172091  1  0  -0.864017  0  1.934656  0  0  -0.807929  0  2.148885  0  0  -0.828641  0  2.116072  0  0  -0.635748  -0.793007  0  2.171784  0
O  O49  1  0.63648413  0.07595356  0.63827749  1  0  -0.863934  0  1.934714  0  0  -0.807854  0  2.148885  0  0  -0.828585  0  2.116108  0  0  -0.635734  -0.792936  0  2.171779  0
O  O50  1  0.52583391  0.59108814  0.30894712  1  0  -0.853751  0  1.906894  0  0  -0.799961  0  2.111662  0  0  -0.821759  0  2.079518  0  0  -0.627348  -0.784497  0  2.134329  0
O  O51  1  0.47416460  0.40890750  0.69105940  1  0  -0.85383  0  1.906874  0  0  -0.800011  0  2.111582  0  0  -0.821826  0  2.079424  0  0  -0.627402  -0.784545  0  2.134252  0
