# generated using pymatgen
data_LuH26C21N5O12
_symmetry_space_group_name_H-M   'P 1'
_cell_length_a   9.51505382
_cell_length_b   10.13140967
_cell_length_c   14.84900000
_cell_angle_alpha   73.31963754
_cell_angle_beta   78.01990771
_cell_angle_gamma   75.37141646
_symmetry_Int_Tables_number   1
_chemical_formula_structural   LuH26C21N5O12
_chemical_formula_sum   'Lu2 H52 C42 N10 O24'
_cell_volume   1312.60625698
_cell_formula_units_Z   2
loop_
 _symmetry_equiv_pos_site_id
 _symmetry_equiv_pos_as_xyz
  1  'x, y, z'
loop_
 _atom_site_type_symbol
 _atom_site_label
 _atom_site_symmetry_multiplicity
 _atom_site_fract_x
 _atom_site_fract_y
 _atom_site_fract_z
 _atom_site_occupancy
 _atom_site_hle17_bader_spin_density
 _atom_site_hle17_ddec_charge
 _atom_site_hle17_ddec_spin_density
 _atom_site_hle17_ddec_sum_bond_order
 _atom_site_hle17_magmom
 _atom_site_hse06_10hf_bader_spin_density
 _atom_site_hse06_10hf_ddec_charge
 _atom_site_hse06_10hf_ddec_spin_density
 _atom_site_hse06_10hf_ddec_sum_bond_order
 _atom_site_hse06_10hf_magmom
 _atom_site_hse06_bader_spin_density
 _atom_site_hse06_ddec_charge
 _atom_site_hse06_ddec_spin_density
 _atom_site_hse06_ddec_sum_bond_order
 _atom_site_hse06_magmom
 _atom_site_pbe_bader_charge
 _atom_site_pbe_bader_spin_density
 _atom_site_pbe_cm5_charge
 _atom_site_pbe_ddec_charge
 _atom_site_pbe_ddec_spin_density
 _atom_site_pbe_ddec_sum_bond_order
 _atom_site_pbe_magmom
Lu  Lu0  1  0.21178818  0.39604747  0.28231086  1  0  1.659967  0  2.474542  0  0  1.487323  0  2.954788  0  0  1.554707  0  2.897436  0  2.145552  0  1.339677  1.44113  0  2.991579  0
Lu  Lu1  1  0.78821488  0.60395057  0.71768858  1  0  1.659983  0  2.474503  0  0  1.487305  0  2.954776  0  0  1.554758  0  2.897367  0  2.145576  0  1.339667  1.441169  0  2.991514  0
H  H2  1  0.10757158  0.31649661  0.48811131  1  0  0.373838  0  0.900775  0  0  0.343977  0  0.980977  0  0  0.354918  0  0.968517  0  0.638484  0  0.309774  0.336352  0  0.98955  0
H  H3  1  0.89243041  0.68350144  0.51188759  1  0  0.373804  0  0.900821  0  0  0.343955  0  0.981016  0  0  0.354891  0  0.968565  0  0.638464  0  0.309751  0.336326  0  0.989597  0
H  H4  1  0.49726467  0.53314662  0.26832660  1  0  0.303593  0  0.905634  0  0  0.282365  0  0.970602  0  0  0.291808  0  0.962921  0  0.526991  0  0.318166  0.275699  0  0.976182  0
H  H5  1  0.50273533  0.46685564  0.73167376  1  0  0.303537  0  0.905679  0  0  0.282302  0  0.97063  0  0  0.291747  0  0.962953  0  0.526999  0  0.31814  0.275634  0  0.976216  0
H  H6  1  0.92073961  0.44735910  0.18094270  1  0  0.300974  0  0.900505  0  0  0.282005  0  0.962095  0  0  0.291127  0  0.95493  0  0.520833  0  0.320873  0.275625  0  0.967012  0
H  H7  1  0.07926231  0.55264422  0.81905518  1  0  0.300803  0  0.900684  0  0  0.281874  0  0.962199  0  0  0.291004  0  0.955028  0  0.52078  0  0.320831  0.275495  0  0.967112  0
H  H8  1  0.34574115  0.17334823  0.48975472  1  0  0.111972  0  0.964493  0  0  0.123314  0  1.023792  0  0  0.126581  0  1.023144  0  0.066136  0  0.106459  0.120915  0  1.024491  0
H  H9  1  0.65426084  0.82664982  0.51024554  1  0  0.111957  0  0.964554  0  0  0.123309  0  1.023842  0  0  0.126562  0  1.023201  0  0.066107  0  0.106468  0.120905  0  1.024542  0
H  H10  1  0.48214866  0.07363114  0.62680225  1  0  0.094884  0  0.959058  0  0  0.10003  0  1.02723  0  0  0.104236  0  1.022557  0  0.118133  0  0.100102  0.096781  0  1.030835  0
H  H11  1  0.51785418  0.92636796  0.37319836  1  0  0.094895  0  0.959055  0  0  0.100022  0  1.027243  0  0  0.104219  0  1.02258  0  0.118149  0  0.100103  0.096772  0  1.030855  0
H  H12  1  0.68876961  0.17515194  0.63923576  1  0  0.088737  0  0.976138  0  0  0.100554  0  1.039231  0  0  0.103016  0  1.039425  0  0.058867  0  0.097285  0.098605  0  1.039451  0
H  H13  1  0.31123407  0.82484821  0.36076184  1  0  0.088709  0  0.976106  0  0  0.100528  0  1.039206  0  0  0.102988  0  1.039398  0  0.058829  0  0.097275  0.098582  0  1.039423  0
H  H14  1  0.76269594  0.37359844  0.50996380  1  0  0.101516  0  0.958856  0  0  0.10965  0  1.023893  0  0  0.113124  0  1.020592  0  0.101382  0  0.10199  0.107313  0  1.025775  0
H  H15  1  0.23730667  0.62640171  0.49003394  1  0  0.101473  0  0.95883  0  0  0.109608  0  1.023878  0  0  0.113079  0  1.020579  0  0.101341  0  0.101983  0.107271  0  1.025761  0
H  H16  1  0.74530625  0.52721005  0.36064578  1  0  0.080967  0  0.959835  0  0  0.087068  0  1.034041  0  0  0.089772  0  1.028956  0  0.142348  0  0.126275  0.085081  0  1.037338  0
H  H17  1  0.25469290  0.47279115  0.63935423  1  0  0.080992  0  0.959779  0  0  0.087067  0  1.034005  0  0  0.089782  0  1.028915  0  0.14236  0  0.126285  0.085081  0  1.037305  0
H  H18  1  0.75345958  0.67614864  0.22376298  1  0  0.0629  0  0.92274  0  0  0.07479  0  0.985109  0  0  0.075994  0  0.984112  0  0.104073  0  0.117909  0.073677  0  0.98611  0
H  H19  1  0.24653958  0.32385256  0.77623704  1  0  0.062934  0  0.922751  0  0  0.074811  0  0.985134  0  0  0.076019  0  0.984131  0  0.104085  0  0.117911  0.073704  0  0.986127  0
H  H20  1  0.46801195  0.77408834  0.13586835  1  0  0.083114  0  0.953294  0  0  0.093876  0  1.02538  0  0  0.095902  0  1.023876  0  0.054389  0  0.09093  0.092415  0  1.026303  0
H  H21  1  0.53198506  0.22591287  0.86413397  1  0  0.08309  0  0.953332  0  0  0.093856  0  1.025416  0  0  0.09588  0  1.023921  0  0.054373  0  0.090945  0.092397  0  1.026336  0
H  H22  1  0.51394634  0.84412258  0.22009520  1  0  0.083133  0  0.942128  0  0  0.10048  0  1.003792  0  0  0.1009  0  1.00483  0  0.043685  0  0.09458  0.100338  0  1.002676  0
H  H23  1  0.48605389  0.15587863  0.77990602  1  0  0.0831  0  0.942072  0  0  0.100433  0  1.003749  0  0  0.100876  0  1.004764  0  0.04373  0  0.094572  0.10028  0  1.002647  0
H  H24  1  0.56794697  0.99211140  0.05550486  1  0  0.074224  0  0.946646  0  0  0.094252  0  1.004251  0  0  0.094609  0  1.005234  0  0.028168  0  0.093894  0.093916  0  1.003717  0
H  H25  1  0.43205111  0.00788980  0.94449529  1  0  0.074276  0  0.946661  0  0  0.094287  0  1.004282  0  0  0.094644  0  1.005267  0  0.028178  0  0.093903  0.093955  0  1.003744  0
H  H26  1  0.72811102  0.91679553  0.10809820  1  0  0.061112  0  0.952054  0  0  0.083581  0  1.010264  0  0  0.083351  0  1.011699  0  0.023341  0  0.089475  0.083705  0  1.009235  0
H  H27  1  0.27188859  0.08320357  0.89190148  1  0  0.061172  0  0.952073  0  0  0.083644  0  1.010259  0  0  0.083411  0  1.011706  0  0.023318  0  0.089489  0.083769  0  1.009231  0
H  H28  1  0.77463710  0.89197524  0.94237504  1  0  0.069076  0  0.967018  0  0  0.088684  0  1.025566  0  0  0.087967  0  1.029085  0  0.06113  0  0.087598  0.089168  0  1.023004  0
H  H29  1  0.22535629  0.10802281  0.05762433  1  0  0.069032  0  0.967065  0  0  0.088655  0  1.025587  0  0  0.08793  0  1.029115  0  0.061249  0  0.087595  0.089133  0  1.023032  0
H  H30  1  0.62726186  0.80432504  0.96597763  1  0  0.068979  0  0.932835  0  0  0.086818  0  0.99443  0  0  0.087568  0  0.99449  0  0.035616  0  0.088986  0.086081  0  0.994695  0
H  H31  1  0.37273152  0.19567301  0.03402511  1  0  0.069031  0  0.932824  0  0  0.086854  0  0.994415  0  0  0.087605  0  0.994481  0  0.03568  0  0.089001  0.086116  0  0.99468  0
H  H32  1  0.86030419  0.62814541  0.97507560  1  0  0.092003  0  0.941855  0  0  0.10644  0  1.006925  0  0  0.107607  0  1.00732  0  0.06458  0  0.096787  0.105618  0  1.006642  0
H  H33  1  0.13968982  0.37185474  0.02492463  1  0  0.092024  0  0.941857  0  0  0.106473  0  1.006893  0  0  0.107639  0  1.007289  0  0.064578  0  0.096798  0.105652  0  1.006608  0
H  H34  1  0.90955542  0.69801328  0.05797326  1  0  0.074298  0  0.932519  0  0  0.090758  0  0.998344  0  0  0.091561  0  0.998629  0  0.012124  0  0.090299  0.090034  0  0.998261  0
H  H35  1  0.09044503  0.30198687  0.94202409  1  0  0.074337  0  0.932522  0  0  0.090791  0  0.998329  0  0  0.091608  0  0.998598  0  0.012041  0  0.090307  0.090066  0  0.998248  0
H  H36  1  0.64710743  0.55783950  0.08756252  1  0  0.068689  0  0.885668  0  0  0.084516  0  0.937896  0  0  0.084928  0  0.938029  0  0.063435  0  0.124534  0.084007  0  0.938103  0
H  H37  1  0.35289195  0.44216065  0.91243969  1  0  0.068696  0  0.885666  0  0  0.084519  0  0.937861  0  0  0.084941  0  0.938005  0  0.06342  0  0.124512  0.084011  0  0.93807  0
H  H38  1  0.73732593  0.33014293  0.09899994  1  0  0.09313  0  0.935045  0  0  0.098491  0  1.009762  0  0  0.102047  0  1.002903  0  0.164138  0  0.130572  0.095852  0  1.014567  0
H  H39  1  0.26267192  0.66985933  0.90100341  1  0  0.093096  0  0.935051  0  0  0.098441  0  1.009786  0  0  0.101995  0  1.002926  0  0.164124  0  0.130584  0.095805  0  1.014586  0
H  H40  1  0.81224879  0.09620653  0.10336991  1  0  0.100686  0  0.964344  0  0  0.108581  0  1.030242  0  0  0.111381  0  1.027688  0  0.110042  0  0.105755  0.106702  0  1.031904  0
H  H41  1  0.18774930  0.90379468  0.89663092  1  0  0.100723  0  0.964304  0  0  0.108606  0  1.030225  0  0  0.111451  0  1.027622  0  0.110004  0  0.105766  0.106736  0  1.031882  0
H  H42  1  0.97279531  0.85883238  0.15243478  1  0  0.090304  0  0.959688  0  0  0.097368  0  1.026652  0  0  0.100385  0  1.026595  0  0.059607  0  0.094605  0.095304  0  1.026638  0
H  H43  1  0.02720085  0.14116777  0.84756786  1  0  0.090325  0  0.959695  0  0  0.097368  0  1.026673  0  0  0.100389  0  1.02661  0  0.0596  0  0.094588  0.095303  0  1.026659  0
H  H44  1  0.17409720  0.83197041  0.24441943  1  0  0.090188  0  0.957384  0  0  0.097548  0  1.02395  0  0  0.100499  0  1.021253  0  0.08799  0  0.100118  0.095487  0  1.025505  0
H  H45  1  0.82590088  0.16803080  0.75558207  1  0  0.090184  0  0.957369  0  0  0.097542  0  1.02394  0  0  0.100493  0  1.021245  0  0.087968  0  0.100112  0.09548  0  1.025497  0
H  H46  1  0.21809214  0.03817599  0.28457460  1  0  0.112002  0  1.002076  0  0  0.118648  0  1.069547  0  0  0.122277  0  1.068718  0  0.091924  0  0.103005  0.116156  0  1.070152  0
H  H47  1  0.78190832  0.96182416  0.71542544  1  0  0.112  0  1.0021  0  0  0.118649  0  1.069571  0  0  0.122274  0  1.068743  0  0.091915  0  0.10301  0.116151  0  1.070183  0
H  H48  1  0.99985380  0.14186693  0.41137833  1  0  0.088176  0  0.947701  0  0  0.106154  0  1.009772  0  0  0.106505  0  1.010587  0  0.060721  0  0.103797  0.105792  0  1.009318  0
H  H49  1  0.00014971  0.85812901  0.58862078  1  0  0.088214  0  0.947648  0  0  0.106169  0  1.009741  0  0  0.106525  0  1.010552  0  0.060797  0  0.103804  0.105808  0  1.009287  0
H  H50  1  0.99121485  0.14357799  0.53265159  1  0  0.078157  0  0.943459  0  0  0.095017  0  1.011652  0  0  0.095135  0  1.012319  0  0.061811  0  0.098895  0.094732  0  1.011409  0
H  H51  1  0.00878996  0.85641690  0.46734756  1  0  0.078173  0  0.943497  0  0  0.095025  0  1.011684  0  0  0.095145  0  1.012351  0  0.061759  0  0.09889  0.094743  0  1.011441  0
H  H52  1  0.16040942  0.06821684  0.46877533  1  0  0.077876  0  0.933448  0  0  0.096418  0  0.99729  0  0  0.097255  0  0.996897  0  0.0618  0  0.098474  0.09577  0  0.997699  0
H  H53  1  0.83959471  0.93178121  0.53122329  1  0  0.077827  0  0.933472  0  0  0.096355  0  0.997322  0  0  0.097193  0  0.996927  0  0.061881  0  0.098456  0.095709  0  0.997731  0
C  C54  1  0.46928533  0.33635326  0.42180791  1  0  0.393205  0  3.808019  0  0  0.372262  0  4.066977  0  0  0.39383  0  4.079324  0  0.678329  0  0.108586  0.357975  0  4.058253  0
C  C55  1  0.53071620  0.66364689  0.57819267  1  0  0.393157  0  3.808  0  0  0.372249  0  4.066936  0  0  0.393804  0  4.079291  0  0.678321  0  0.108581  0.357954  0  4.058212  0
C  C56  1  0.43485499  0.21882226  0.49487861  1  0  -0.215609  0  3.713523  0  0  -0.233571  0  3.96602  0  0  -0.245115  0  3.986373  0  -0.011573  0  -0.109047  -0.226446  0  3.95232  0
C  C57  1  0.56514784  0.78117684  0.50512132  1  0  -0.215553  0  3.713572  0  0  -0.233543  0  3.966077  0  0  -0.245052  0  3.986418  0  -0.011568  0  -0.109059  -0.226397  0  3.952368  0
C  C58  1  0.51242700  0.16295555  0.57110284  1  0  0.002603  0  3.742332  0  0  -0.014733  0  3.997141  0  0  -0.008397  0  4.013987  0  -0.065492  0  -0.076866  -0.018732  0  3.985969  0
C  C59  1  0.48757453  0.83704461  0.42889706  1  0  0.002548  0  3.742389  0  0  -0.014773  0  3.997216  0  0  -0.008437  0  4.014066  0  -0.065504  0  -0.076893  -0.018772  0  3.986046  0
C  C60  1  0.63037352  0.21896230  0.57809381  1  0  -0.126067  0  3.803384  0  0  -0.146492  0  4.068825  0  0  -0.155372  0  4.092711  0  -0.04827  0  -0.114904  -0.140832  0  4.053208  0
C  C61  1  0.36962931  0.78103680  0.42190545  1  0  -0.126022  0  3.803415  0  0  -0.146452  0  4.068849  0  0  -0.155327  0  4.092737  0  -0.048229  0  -0.114847  -0.140784  0  4.053229  0
C  C62  1  0.67106672  0.32950168  0.50650418  1  0  -0.058758  0  3.754044  0  0  -0.082791  0  4.006621  0  0  -0.077495  0  4.027451  0  -0.077713  0  -0.083826  -0.085813  0  3.992166  0
C  C63  1  0.32893611  0.67049742  0.49349441  1  0  -0.058674  0  3.754134  0  0  -0.082706  0  4.006701  0  0  -0.077421  0  4.027539  0  -0.077657  0  -0.08383  -0.085746  0  3.992257  0
C  C64  1  0.59386576  0.38881893  0.42733786  1  0  -0.133463  0  3.820621  0  0  -0.11204  0  4.061808  0  0  -0.129803  0  4.090199  0  0.006647  0  -0.035913  -0.100662  0  4.042848  0
C  C65  1  0.40613447  0.61118228  0.57266066  1  0  -0.133499  0  3.820749  0  0  -0.112097  0  4.061923  0  0  -0.129844  0  4.090327  0  0.006664  0  -0.035944  -0.100703  0  4.042959  0
C  C66  1  0.64738455  0.49560662  0.35361804  1  0  0.210412  0  3.61699  0  0  0.153602  0  3.881043  0  0  0.175672  0  3.887684  0  0.557912  0  0.098007  0.139049  0  3.87642  0
C  C67  1  0.35261698  0.50439354  0.64638456  1  0  0.210358  0  3.617005  0  0  0.15355  0  3.880999  0  0  0.175585  0  3.887669  0  0.55794  0  0.098027  0.138998  0  3.876367  0
C  C68  1  0.66438585  0.65556018  0.19620003  1  0  0.111367  0  3.578191  0  0  0.086386  0  3.82247  0  0  0.089584  0  3.838139  0  0.317533  0  0.021181  0.084121  0  3.812285  0
C  C69  1  0.33561523  0.34444208  0.80380020  1  0  0.111261  0  3.578355  0  0  0.086248  0  3.822597  0  0  0.089439  0  3.838287  0  0.317589  0  0.021184  0.083978  0  3.812406  0
C  C70  1  0.55982599  0.79475366  0.16056472  1  0  -0.161214  0  3.657936  0  0  -0.205089  0  3.915781  0  0  -0.206883  0  3.929307  0  -0.019582  0  -0.16544  -0.203578  0  3.906141  0
C  C71  1  0.44017294  0.20524860  0.83943646  1  0  -0.16104  0  3.657826  0  0  -0.204915  0  3.915701  0  0  -0.206718  0  3.929226  0  -0.019432  0  -0.165418  -0.203396  0  3.906064  0
C  C72  1  0.64240057  0.89150141  0.08012456  1  0  -0.101201  0  3.693065  0  0  -0.141592  0  3.951309  0  0  -0.142255  0  3.965913  0  -0.004078  0  -0.168107  -0.141049  0  3.941215  0
C  C73  1  0.35759773  0.10849874  0.91987510  1  0  -0.101397  0  3.693104  0  0  -0.141795  0  3.951372  0  0  -0.142456  0  3.965985  0  -0.004184  0  -0.168171  -0.141249  0  3.941274  0
C  C74  1  0.71296627  0.82228216  0.99833933  1  0  -0.110143  0  3.690377  0  0  -0.147693  0  3.947957  0  0  -0.148731  0  3.963112  0  -0.057243  0  -0.169505  -0.146804  0  3.93746  0
C  C75  1  0.28702796  0.17771694  0.00166175  1  0  -0.11012  0  3.690358  0  0  -0.147675  0  3.947931  0  0  -0.1487  0  3.963076  0  -0.057383  0  -0.169504  -0.146775  0  3.937435  0
C  C76  1  0.81569342  0.68152188  0.03273725  1  0  -0.157515  0  3.651567  0  0  -0.203913  0  3.915561  0  0  -0.20606  0  3.929682  0  -0.009804  0  -0.164135  -0.202223  0  3.905837  0
C  C77  1  0.18430382  0.31847827  0.96726255  1  0  -0.157573  0  3.651595  0  0  -0.203965  0  3.915517  0  0  -0.206104  0  3.929648  0  -0.009783  0  -0.164143  -0.202278  0  3.905793  0
C  C78  1  0.73444043  0.58351269  0.11399956  1  0  0.117679  0  3.56024  0  0  0.092618  0  3.806201  0  0  0.095865  0  3.821983  0  0.316818  0  0.026969  0.090475  0  3.795631  0
C  C79  1  0.26555703  0.41648641  0.88600244  1  0  0.117649  0  3.560214  0  0  0.092668  0  3.806066  0  0  0.095859  0  3.821939  0  0.316763  0  0.027024  0.090522  0  3.795499  0
C  C80  1  0.82590624  0.32956801  0.13585365  1  0  0.213044  0  3.596934  0  0  0.153111  0  3.863449  0  0  0.175656  0  3.868234  0  0.528945  0  0.105416  0.13861  0  3.859778  0
C  C81  1  0.17409190  0.67042793  0.86414753  1  0  0.213185  0  3.597036  0  0  0.153273  0  3.863532  0  0  0.175848  0  3.868307  0  0.529617  0  0.105462  0.138777  0  3.859858  0
C  C82  1  0.92371156  0.19991116  0.16618339  1  0  -0.129711  0  3.794916  0  0  -0.107663  0  4.03445  0  0  -0.12493  0  4.062056  0  0.015777  0  -0.0322  -0.096839  0  4.016178  0
C  C83  1  0.07628952  0.80009110  0.83381683  1  0  -0.129844  0  3.794939  0  0  -0.107761  0  4.034423  0  0  -0.125062  0  4.06209  0  0.015477  0  -0.032265  -0.096922  0  4.016147  0
C  C84  1  0.90162515  0.08063646  0.14326923  1  0  -0.048953  0  3.743443  0  0  -0.073013  0  3.991065  0  0  -0.067673  0  4.012226  0  -0.082136  0  -0.074766  -0.076661  0  3.977403  0
C  C85  1  0.09837271  0.91936580  0.85673075  1  0  -0.048964  0  3.743492  0  0  -0.073036  0  3.991107  0  0  -0.067735  0  4.012266  0  -0.082092  0  -0.074776  -0.076695  0  3.97744  0
C  C86  1  0.99002849  0.94972885  0.17072913  1  0  -0.115016  0  3.793891  0  0  -0.132966  0  4.056343  0  0  -0.142259  0  4.080219  0  -0.005443  0  -0.111838  -0.127261  0  4.040646  0
C  C87  1  0.00996852  0.05027235  0.82927184  1  0  -0.115045  0  3.793871  0  0  -0.132975  0  4.056327  0  0  -0.14227  0  4.080207  0  -0.005546  0  -0.111819  -0.127266  0  4.040628  0
C  C88  1  0.10310124  0.93523069  0.22313018  1  0  -0.00095  0  3.75548  0  0  -0.020206  0  4.012771  0  0  -0.01357  0  4.030207  0  -0.067908  0  -0.081175  -0.024277  0  4.000502  0
C  C89  1  0.89689577  0.06477051  0.77687012  1  0  -0.000981  0  3.75539  0  0  -0.020228  0  4.012662  0  0  -0.013594  0  4.030098  0  -0.067851  0  -0.081194  -0.024301  0  4.000396  0
C  C90  1  0.12844204  0.04969218  0.24604436  1  0  -0.244888  0  3.744318  0  0  -0.263703  0  4.002126  0  0  -0.275674  0  4.021835  0  -0.058445  0  -0.114337  -0.256184  0  3.988683  0
C  C91  1  0.87155689  0.95031008  0.75395547  1  0  -0.2449  0  3.74428  0  0  -0.263727  0  4.002089  0  0  -0.275678  0  4.021799  0  -0.058459  0  -0.114362  -0.256191  0  3.988653  0
C  C92  1  0.04180633  0.18662180  0.21744470  1  0  0.388322  0  3.808252  0  0  0.369391  0  4.06393  0  0  0.390916  0  4.075875  0  0.669416  0  0.110335  0.355529  0  4.055228  0
C  C93  1  0.95819328  0.81337730  0.78255365  1  0  0.388357  0  3.808248  0  0  0.369411  0  4.063931  0  0  0.390909  0  4.075912  0  0.669456  0  0.110327  0.355527  0  4.055235  0
C  C94  1  0.06078378  0.15207851  0.46310782  1  0  -0.015017  0  3.60841  0  0  -0.113068  0  3.877235  0  0  -0.105925  0  3.880718  0  0.36836  0  -0.14235  -0.11745  0  3.874395  0
C  C95  1  0.93922080  0.84791743  0.53689115  1  0  -0.014948  0  3.608403  0  0  -0.112966  0  3.877199  0  0  -0.105829  0  3.880679  0  0.368294  0  -0.142293  -0.117358  0  3.874359  0
N  N96  1  0.59191850  0.56000017  0.27459854  1  0  -0.282551  0  3.363023  0  0  -0.216499  0  3.606238  0  0  -0.23529  0  3.618389  0  -1.246308  0  -0.372637  -0.20432  0  3.598379  0
N  N97  1  0.40807653  0.44000525  0.72539850  1  0  -0.282424  0  3.363133  0  0  -0.216268  0  3.606204  0  0  -0.235053  0  3.618375  0  -1.246367  0  -0.372616  -0.204101  0  3.598343  0
N  N98  1  0.83409994  0.45056430  0.14781572  1  0  -0.278999  0  3.368439  0  0  -0.212385  0  3.611737  0  0  -0.23042  0  3.623123  0  -1.241088  0  -0.369861  -0.200427  0  3.603665  0
N  N99  1  0.16590238  0.54944217  0.85218688  1  0  -0.278829  0  3.368633  0  0  -0.212314  0  3.611999  0  0  -0.230319  0  3.623372  0  -1.241261  0  -0.369834  -0.200361  0  3.603931  0
N  N100  1  0.99013796  0.60307873  0.35955374  1  0  0.720269  0  4.079583  0  0  0.724508  0  4.408282  0  0  0.754171  0  4.412637  0  0.854727  0  0.092409  0.704788  0  4.404251  0
N  N101  1  0.00986272  0.39692037  0.64044379  1  0  0.720239  0  4.079398  0  0  0.724506  0  4.408074  0  0  0.75417  0  4.412431  0  0.854717  0  0.092459  0.704788  0  4.404044  0
N  N102  1  0.25303556  0.62092213  0.11794015  1  0  0.689975  0  4.11707  0  0  0.717449  0  4.418289  0  0  0.744312  0  4.4242  0  0.817045  0  0.089404  0.698173  0  4.413887  0
N  N103  1  0.74696123  0.37908013  0.88205929  1  0  0.689936  0  4.116906  0  0  0.717436  0  4.41809  0  0  0.744318  0  4.423998  0  0.816392  0  0.089423  0.698161  0  4.413696  0
N  N104  1  0.44805334  0.19206979  0.22997793  1  0  0.692295  0  4.113379  0  0  0.73057  0  4.397559  0  0  0.746866  0  4.421151  0  0.832061  0  0.084936  0.710228  0  4.39437  0
N  N105  1  0.55194842  0.80792931  0.77002282  1  0  0.692259  0  4.113443  0  0  0.730484  0  4.397652  0  0  0.746842  0  4.421127  0  0.832172  0  0.084956  0.710154  0  4.394453  0
O  O106  1  0.39382827  0.39740579  0.35154451  1  0  -0.656564  0  2.16414  0  0  -0.589791  0  2.409608  0  0  -0.621102  0  2.40649  0  -1.196088  0  -0.409843  -0.568446  0  2.411085  0
O  O107  1  0.60617004  0.60259437  0.64845649  1  0  -0.656582  0  2.164162  0  0  -0.589787  0  2.409623  0  0  -0.621108  0  2.406487  0  -1.196094  0  -0.409858  -0.568491  0  2.411143  0
O  O108  1  0.06607022  0.29729174  0.23599912  1  0  -0.658719  0  2.114218  0  0  -0.588024  0  2.356207  0  0  -0.619198  0  2.352173  0  -1.185819  0  -0.406996  -0.566817  0  2.357771  0
O  O109  1  0.93393431  0.70270947  0.76399815  1  0  -0.658738  0  2.114308  0  0  -0.588007  0  2.356276  0  0  -0.619215  0  2.352257  0  -1.185838  0  -0.406956  -0.566802  0  2.3578  0
O  O110  1  0.11193899  0.56219664  0.39119424  1  0  -0.447535  0  1.805021  0  0  -0.425465  0  2.033901  0  0  -0.442602  0  2.028504  0  -0.55393  0  -0.177566  -0.413797  0  2.037297  0
O  O111  1  0.88805722  0.43779825  0.60880875  1  0  -0.447571  0  1.804976  0  0  -0.425504  0  2.033848  0  0  -0.442629  0  2.028442  0  -0.553798  0  -0.177569  -0.413842  0  2.03725  0
O  O112  1  0.88077247  0.67747221  0.39688310  1  0  -0.41647  0  1.789616  0  0  -0.394963  0  2.004278  0  0  -0.408859  0  1.997922  0  -0.515187  0  -0.141976  -0.38511  0  2.008374  0
O  O113  1  0.11923031  0.32253216  0.60310907  1  0  -0.416452  0  1.789526  0  0  -0.394972  0  2.004217  0  0  -0.408868  0  1.997849  0  -0.515327  0  -0.142012  -0.385116  0  2.008298  0
O  O114  1  0.98213370  0.56271680  0.28663388  1  0  -0.502366  0  1.844461  0  0  -0.481266  0  2.088692  0  0  -0.500098  0  2.081776  0  -0.594289  0  -0.21941  -0.467971  0  2.092171  0
O  O115  1  0.01787603  0.43728020  0.71336421  1  0  -0.502311  0  1.844392  0  0  -0.481245  0  2.088635  0  0  -0.50008  0  2.081717  0  -0.594193  0  -0.219409  -0.467951  0  2.092112  0
O  O116  1  0.17995910  0.53225161  0.11565365  1  0  -0.468953  0  1.795086  0  0  -0.45695  0  2.021466  0  0  -0.473009  0  2.015229  0  -0.562447  0  -0.203406  -0.445291  0  2.025155  0
O  O117  1  0.82004221  0.46774960  0.88434406  1  0  -0.469022  0  1.795046  0  0  -0.456992  0  2.021348  0  0  -0.473078  0  2.015131  0  -0.56243  0  -0.203419  -0.445339  0  2.025074  0
O  O118  1  0.28560834  0.71486164  0.04829216  1  0  -0.378068  0  1.738956  0  0  -0.375182  0  1.939001  0  0  -0.38578  0  1.932821  0  -0.464876  0  -0.139641  -0.367283  0  1.942925  0
O  O119  1  0.71439449  0.28513746  0.95170777  1  0  -0.378055  0  1.738864  0  0  -0.375216  0  1.938904  0  0  -0.385782  0  1.932701  0  -0.464847  0  -0.139655  -0.367299  0  1.942821  0
O  O120  1  0.29195744  0.60566268  0.19970405  1  0  -0.50979  0  1.841873  0  0  -0.489391  0  2.074239  0  0  -0.50803  0  2.067463  0  -0.601549  0  -0.23922  -0.476163  0  2.078454  0
O  O121  1  0.70803199  0.39434379  0.80029689  1  0  -0.509677  0  1.841846  0  0  -0.489281  0  2.074186  0  0  -0.507948  0  2.067414  0  -0.601002  0  -0.239217  -0.476076  0  2.07841  0
O  O122  1  0.41623052  0.31718208  0.17594804  1  0  -0.488834  0  1.786948  0  0  -0.486016  0  2.012361  0  0  -0.499844  0  2.010273  0  -0.582471  0  -0.240498  -0.473495  0  2.016849  0
O  O123  1  0.58377254  0.68281596  0.82405005  1  0  -0.488725  0  1.786806  0  0  -0.485909  0  2.01228  0  0  -0.499776  0  2.010161  0  -0.582473  0  -0.240498  -0.473405  0  2.016768  0
O  O124  1  0.55889691  0.10574421  0.21042887  1  0  -0.371174  0  1.768796  0  0  -0.370772  0  1.969481  0  0  -0.377689  0  1.969713  0  -0.466852  0  -0.129559  -0.362572  0  1.973147  0
O  O125  1  0.44111045  0.89425384  0.78957606  1  0  -0.371194  0  1.768966  0  0  -0.37081  0  1.969689  0  0  -0.377709  0  1.969856  0  -0.466891  0  -0.129587  -0.362591  0  1.973342  0
O  O126  1  0.35561373  0.16385056  0.30595114  1  0  -0.488906  0  1.866057  0  0  -0.466641  0  2.086767  0  0  -0.482445  0  2.087195  0  -0.586859  0  -0.218654  -0.452538  0  2.089616  0
O  O127  1  0.64438328  0.83615065  0.69404848  1  0  -0.48893  0  1.866022  0  0  -0.466614  0  2.08672  0  0  -0.482449  0  2.087112  0  -0.586877  0  -0.218644  -0.452513  0  2.089561  0
O  O128  1  0.09825704  0.28909658  0.43078740  1  0  -0.556236  0  2.249147  0  0  -0.486711  0  2.504475  0  0  -0.507528  0  2.493652  0  -1.165513  0  -0.454387  -0.472153  0  2.510332  0
O  O129  1  0.90174325  0.71089936  0.56921215  1  0  -0.556264  0  2.249177  0  0  -0.486756  0  2.50447  0  0  -0.507577  0  2.493653  0  -1.165527  0  -0.454385  -0.472199  0  2.510325  0
