# generated using pymatgen
data_CuH9(CN)7
_symmetry_space_group_name_H-M   'P 1'
_cell_length_a   5.43211754
_cell_length_b   9.67492849
_cell_length_c   10.56423466
_cell_angle_alpha   114.06236641
_cell_angle_beta   100.89367467
_cell_angle_gamma   90.31152394
_symmetry_Int_Tables_number   1
_chemical_formula_structural   CuH9(CN)7
_chemical_formula_sum   'Cu2 H18 C14 N14'
_cell_volume   495.71377199
_cell_formula_units_Z   2
loop_
 _symmetry_equiv_pos_site_id
 _symmetry_equiv_pos_as_xyz
  1  'x, y, z'
loop_
 _atom_site_type_symbol
 _atom_site_label
 _atom_site_symmetry_multiplicity
 _atom_site_fract_x
 _atom_site_fract_y
 _atom_site_fract_z
 _atom_site_occupancy
 _atom_site_hle17_ddec_charge
 _atom_site_hle17_ddec_spin_density
 _atom_site_hle17_ddec_sum_bond_order
 _atom_site_hle17_magmom
 _atom_site_hse06_10hf_ddec_charge
 _atom_site_hse06_10hf_ddec_spin_density
 _atom_site_hse06_10hf_ddec_sum_bond_order
 _atom_site_hse06_10hf_magmom
 _atom_site_hse06_ddec_charge
 _atom_site_hse06_ddec_spin_density
 _atom_site_hse06_ddec_sum_bond_order
 _atom_site_hse06_magmom
 _atom_site_pbe_cm5_charge
 _atom_site_pbe_ddec_charge
 _atom_site_pbe_ddec_spin_density
 _atom_site_pbe_ddec_sum_bond_order
 _atom_site_pbe_magmom
Cu  Cu0  1  0.12906405  0.97420408  0.36859802  1  0.745199  0.530268  1.996471  0.357  0.756447  0.706832  2.409131  0.536  0.855492  0.822416  2.329974  0.646  0.76676  0.703572  0.60205  2.457149  0.45
Cu  Cu1  1  0.87092526  0.02579263  0.63140041  1  0.745198  -0.530219  1.996598  -0.357  0.756662  -0.706842  2.409202  -0.536  0.855676  -0.822439  2.330054  -0.646  0.766829  0.703652  -0.602062  2.457245  -0.45
H  H2  1  0.85617496  0.06259760  0.14881635  1  0.083135  0.001748  0.965041  0.002  0.090506  0.001802  1.03456  0.002  0.092258  0.001408  1.033733  0.001  0.112737  0.088982  0.001915  1.035473  0.002
H  H3  1  0.14382221  0.93740138  0.85118461  1  0.08316  -0.001741  0.96509  -0.002  0.090544  -0.001802  1.034593  -0.002  0.092299  -0.001407  1.033764  -0.001  0.112737  0.089008  -0.001916  1.035507  -0.002
H  H4  1  0.55672467  0.18192259  0.41976341  1  0.079395  0.001031  0.9798  0.002  0.08388  0.001122  1.05506  0.002  0.085475  0.000868  1.053689  0.001  0.113069  0.082119  0.001213  1.056892  0.002
H  H5  1  0.44327739  0.81807185  0.58023828  1  0.079432  -0.001026  0.979821  -0.002  0.083938  -0.001122  1.055001  -0.002  0.085539  -0.000867  1.053626  -0.001  0.11308  0.082168  -0.001215  1.056835  -0.002
H  H6  1  0.65621161  0.38499325  0.34265487  1  0.114012  0.000361  0.972933  0.001  0.120009  0.000344  1.040261  0.001  0.122797  0.00024  1.039896  0.0  0.10586  0.117627  0.000436  1.041088  0.001
H  H7  1  0.34378931  0.61500572  0.65734741  1  0.114004  -0.000355  0.97294  -0.001  0.120001  -0.000344  1.040265  -0.001  0.122788  -0.00024  1.039898  0.0  0.10585  0.117612  -0.000434  1.041103  -0.001
H  H8  1  0.93435599  0.24525017  0.93331307  1  0.109113  0.000439  0.980062  0.0  0.125154  0.000232  1.054826  0.0  0.125394  0.000241  1.055252  0.0  0.090175  0.124788  0.000195  1.054726  0.0
H  H9  1  0.06564155  0.75475106  0.06668780  1  0.109103  -0.000432  0.980095  0.0  0.12514  -0.000232  1.054868  0.0  0.125379  -0.000241  1.055295  0.0  0.090179  0.124772  -0.000196  1.054782  0.0
H  H10  1  0.81852141  0.38521107  0.07192413  1  0.109567  0.000329  0.956718  0.0  0.134408  0.00027  1.015129  0.0  0.134702  0.000229  1.016292  0.0  0.095135  0.134  0.000286  1.014408  0.0
H  H11  1  0.18148307  0.61478674  0.92807712  1  0.109575  -0.000324  0.956681  0.0  0.134409  -0.00027  1.015101  0.0  0.134702  -0.000229  1.016263  0.0  0.095158  0.134005  -0.000286  1.014375  0.0
H  H12  1  0.69742825  0.19208798  0.00528248  1  0.110419  -4.8e-05  0.949961  0.0  0.131978  -1.3e-05  1.008514  0.0  0.133261  -3e-06  1.009029  0.0  0.091159  0.131241  -6.6e-05  1.00783  0.0
H  H13  1  0.30256403  0.80791545  0.99471299  1  0.110429  5.5e-05  0.950014  0.0  0.131961  1.2e-05  1.008588  0.0  0.133244  4e-06  1.0091  0.0  0.091142  0.131228  6.5e-05  1.007906  0.0
H  H14  1  0.20498406  0.54223459  0.16769551  1  0.116503  -0.000179  0.953067  0.0  0.136756  -4.7e-05  1.016079  0.0  0.137971  -7.9e-05  1.016397  0.0  0.094209  0.135988  1.3e-05  1.015609  0.0
H  H15  1  0.79501705  0.45776557  0.83231005  1  0.116576  0.000182  0.952981  0.0  0.136832  4.7e-05  1.015987  0.0  0.138049  8e-05  1.016301  0.0  0.094248  0.136063  -1.3e-05  1.015514  0.0
H  H16  1  0.33514658  0.40992791  0.03016612  1  0.11405  -0.000335  0.948507  0.0  0.1365  -0.000213  1.008968  0.0  0.137721  -0.000197  1.009181  0.0  0.094222  0.136013  -0.000197  1.008334  0.0
H  H17  1  0.66485563  0.59007902  0.96983915  1  0.114002  0.000339  0.948535  0.0  0.136466  0.000212  1.008983  0.0  0.137689  0.000198  1.009195  0.0  0.094215  0.135981  0.000197  1.008352  0.0
H  H18  1  0.53267472  0.52283114  0.19958990  1  0.110089  0.00016  0.9684  0.0  0.127738  0.000146  1.033253  0.0  0.129614  9.6e-05  1.032489  0.0  0.089141  0.126328  0.000169  1.033801  0.0
H  H19  1  0.46732754  0.47716453  0.80041794  1  0.110105  -0.000158  0.96847  0.0  0.127756  -0.000146  1.03331  0.0  0.129634  -9.6e-05  1.032545  0.0  0.08916  0.126345  -0.000169  1.033858  0.0
C  C20  1  0.03121092  0.13645760  0.18759321  1  0.058588  -0.003733  3.677595  -0.004  0.023022  0.000975  3.929037  0.0  0.030808  -0.000537  3.949785  -0.001  0.036723  0.018459  0.001914  3.915675  0.001
C  C21  1  0.96879447  0.86354584  0.81240733  1  0.058505  0.003687  3.677644  0.004  0.022929  -0.000977  3.92912  0.0  0.030724  0.000536  3.949847  0.001  0.036688  0.018357  -0.001916  3.91575  -0.001
C  C22  1  0.42389932  0.20325150  0.34000431  1  0.115637  -0.006176  3.708771  -0.006  0.08353  -0.001254  3.966952  -0.002  0.093643  -0.002593  3.985974  -0.003  0.03204  0.076795  -0.0002  3.956566  -0.001
C  C23  1  0.57609991  0.79674858  0.65999631  1  0.11565  0.006147  3.708726  0.006  0.083558  0.001254  3.966918  0.002  0.093668  0.002591  3.985937  0.003  0.032027  0.076808  0.000198  3.95653  0.001
C  C24  1  0.06938403  0.24646741  0.13822497  1  0.051718  0.008338  3.718189  0.009  0.078281  0.004756  3.948947  0.006  0.072969  0.004525  3.973467  0.005  -0.000637  0.081631  0.00456  3.932326  0.005
C  C25  1  0.93061463  0.75352920  0.86177055  1  0.051874  -0.008308  3.71789  -0.009  0.078402  -0.004757  3.948685  -0.006  0.073092  -0.004526  3.973205  -0.005  -0.000591  0.081748  -0.004561  3.932061  -0.005
C  C26  1  0.47697066  0.31513868  0.29585617  1  -0.168612  0.007565  3.698837  0.007  -0.183359  0.003962  3.939415  0.004  -0.191847  0.003844  3.960341  0.004  -0.085157  -0.178221  0.003687  3.926152  0.004
C  C27  1  0.52303249  0.68486250  0.70414333  1  -0.168628  -0.007565  3.698773  -0.007  -0.183373  -0.003962  3.939353  -0.004  -0.191862  -0.003845  3.960284  -0.004  -0.085189  -0.178244  -0.003684  3.926099  -0.004
C  C28  1  0.29957554  0.33914600  0.19389998  1  0.154356  -0.007406  3.689142  -0.007  0.171254  -0.00319  3.919765  -0.003  0.177116  -0.003665  3.940591  -0.004  0.0189  0.167127  -0.00272  3.905943  -0.003
C  C29  1  0.70042501  0.66085071  0.80610239  1  0.154246  0.007401  3.689204  0.007  0.171154  0.003193  3.919831  0.003  0.177014  0.003663  3.94066  0.004  0.018833  0.167025  0.002723  3.906007  0.003
C  C30  1  0.86839820  0.26732619  0.03129907  1  -0.328006  0.001033  3.726563  0.001  -0.409413  0.001025  3.955609  0.001  -0.41144  0.000788  3.968858  0.001  -0.243897  -0.407623  0.00103  3.946429  0.001
C  C31  1  0.13160701  0.73267615  0.96870294  1  -0.328055  -0.001067  3.726439  -0.001  -0.409422  -0.001023  3.955503  -0.001  -0.411442  -0.00079  3.968745  -0.001  -0.24391  -0.407632  -0.001031  3.946341  -0.001
C  C32  1  0.34755144  0.46016138  0.14556050  1  -0.342854  0.000411  3.714005  0.001  -0.421184  0.000105  3.945022  0.0  -0.424069  4.6e-05  3.953364  0.0  -0.242169  -0.419017  0.000271  3.938951  0.0
C  C33  1  0.65245135  0.53983756  0.85444004  1  -0.342883  -0.000427  3.714197  -0.001  -0.421202  -0.000107  3.94517  0.0  -0.424111  -4.5e-05  3.953553  0.0  -0.242163  -0.419034  -0.000268  3.939101  0.0
N  N34  1  0.40730079  0.84424435  0.31987078  1  -0.467767  0.075959  2.698274  0.088  -0.509934  0.039844  3.044291  0.051  -0.547608  0.02376  3.054253  0.034  -0.291844  -0.489895  0.046437  3.040746  0.056
N  N35  1  0.59268535  0.15574433  0.68011970  1  -0.467499  -0.07583  2.698591  -0.088  -0.509696  -0.03979  3.044626  -0.051  -0.547339  -0.023707  3.054567  -0.034  -0.291762  -0.489644  -0.046393  3.041077  -0.056
N  N36  1  0.03360484  0.86275317  0.48140220  1  -0.546108  0.014965  2.925042  0.017  -0.577705  0.004385  3.300775  0.005  -0.633624  0.002119  3.315923  0.002  -0.353356  -0.544339  0.005243  3.291247  0.006
N  N37  1  0.96639569  0.13725498  0.51860809  1  -0.545764  -0.014965  2.925138  -0.017  -0.577424  -0.004382  3.300804  -0.005  -0.633326  -0.002111  3.31594  -0.002  -0.35327  -0.544116  -0.005224  3.291397  -0.006
N  N38  1  0.20401473  0.11522015  0.28629872  1  -0.30729  0.071076  3.421947  0.084  -0.251107  0.062234  3.713582  0.08  -0.285974  0.054682  3.739508  0.074  -0.363182  -0.232578  0.060365  3.699563  0.075
N  N39  1  0.79599030  0.88478102  0.71370096  1  -0.307319  -0.071056  3.42197  -0.084  -0.251168  -0.06224  3.71365  -0.08  -0.286035  -0.054685  3.73958  -0.074  -0.363182  -0.232603  -0.060367  3.69957  -0.075
N  N40  1  0.57138849  0.85958378  0.26460380  1  0.39135  -0.026288  4.192922  -0.039  0.442939  -0.002804  4.500401  -0.009  0.464  -0.003884  4.539252  -0.009  0.083785  0.430244  -0.000622  4.476366  -0.007
N  N41  1  0.42861015  0.14041265  0.73538028  1  0.391205  0.026306  4.192374  0.039  0.442824  0.002814  4.499856  0.009  0.46389  0.003889  4.538702  0.009  0.0838  0.430114  0.000627  4.475794  0.007
N  N42  1  0.99415255  0.72543959  0.43394013  1  0.392336  -0.00703  4.123086  -0.01  0.443658  -0.000754  4.413923  -0.002  0.464915  -0.001623  4.448581  -0.003  0.101477  0.430723  7e-05  4.38841  -0.001
N  N43  1  0.00586147  0.27455921  0.56605578  1  0.391979  0.007002  4.122969  0.01  0.443443  0.000755  4.413661  0.002  0.464696  0.001622  4.448332  0.003  0.101374  0.430506  -8.1e-05  4.388115  0.001
N  N44  1  0.73985909  0.86867010  0.21162409  1  -0.409233  0.11656  2.507456  0.124  -0.439468  0.058225  2.790834  0.066  -0.462602  0.047255  2.800326  0.057  -0.218107  -0.427578  0.060903  2.786239  0.067
N  N45  1  0.26009609  0.13133581  0.78837341  1  -0.409424  -0.116706  2.506674  -0.125  -0.439737  -0.058268  2.790116  -0.066  -0.462891  -0.04729  2.799614  -0.057  -0.218281  -0.427797  -0.060964  2.785462  -0.067
N  N46  1  0.96042410  0.59404372  0.38933572  1  -0.285574  0.031907  2.359178  0.034  -0.293934  0.013093  2.57687  0.015  -0.301012  0.01138  2.588615  0.013  -0.127004  -0.286346  0.014082  2.566582  0.015
N  N47  1  0.03960467  0.40596511  0.61065578  1  -0.285494  -0.031896  2.358689  -0.034  -0.293951  -0.0131  2.576327  -0.015  -0.301038  -0.011382  2.588079  -0.013  -0.127013  -0.286363  -0.014064  2.56605  -0.015
