# generated using pymatgen
data_AgH6C12N11O5
_symmetry_space_group_name_H-M   'P 1'
_cell_length_a   8.23214551
_cell_length_b   10.84410469
_cell_length_c   22.74251134
_cell_angle_alpha   82.33041833
_cell_angle_beta   79.59501019
_cell_angle_gamma   67.67881997
_symmetry_Int_Tables_number   1
_chemical_formula_structural   AgH6C12N11O5
_chemical_formula_sum   'Ag4 H24 C48 N44 O20'
_cell_volume   1842.51882353
_cell_formula_units_Z   4
loop_
 _symmetry_equiv_pos_site_id
 _symmetry_equiv_pos_as_xyz
  1  'x, y, z'
loop_
 _atom_site_type_symbol
 _atom_site_label
 _atom_site_symmetry_multiplicity
 _atom_site_fract_x
 _atom_site_fract_y
 _atom_site_fract_z
 _atom_site_occupancy
 _atom_site_pbe_bader_charge
 _atom_site_pbe_bader_spin_density
 _atom_site_pbe_cm5_charge
 _atom_site_pbe_ddec_charge
 _atom_site_pbe_ddec_spin_density
 _atom_site_pbe_ddec_sum_bond_order
 _atom_site_pbe_magmom
Ag  Ag0  1  0.84366060  0.88938743  0.84651660  1  0.596274  0  0.459785  0.305857  0  1.986385  0
Ag  Ag1  1  0.58007440  0.61048532  0.65352067  1  0.59644  0  0.459926  0.305906  0  1.986669  0
Ag  Ag2  1  0.15633697  0.11060935  0.15348172  1  0.596295  0  0.459814  0.305898  0  1.986332  0
Ag  Ag3  1  0.41991209  0.38951645  0.34647851  1  0.596389  0  0.459892  0.305831  0  1.98667  0
H  H4  1  0.73063785  0.85655043  0.00651356  1  0.151579  0  0.130979  0.103381  0  0.997703  0
H  H5  1  0.59413712  0.64334821  0.49360135  1  0.136389  0  0.131334  0.103839  0  0.997318  0
H  H6  1  0.26935899  0.14344528  0.99349058  1  0.151575  0  0.131015  0.103342  0  0.997774  0
H  H7  1  0.40586812  0.35665056  0.50639855  1  0.136311  0  0.131334  0.103839  0  0.997331  0
H  H8  1  0.19371949  0.62106742  0.90122824  1  0.228992  0  0.13688  0.120107  0  1.044906  0
H  H9  1  0.71614793  0.87902503  0.59889273  1  0.224911  0  0.137156  0.120853  0  1.043551  0
H  H10  1  0.80627812  0.37893434  0.09877153  1  0.228978  0  0.136856  0.120061  0  1.044926  0
H  H11  1  0.28384502  0.12097871  0.40110811  1  0.224938  0  0.137154  0.120834  0  1.043557  0
H  H12  1  0.32409359  0.14362518  0.28604763  1  0.151752  0  0.146598  0.119992  0  0.956813  0
H  H13  1  0.75402017  0.35642631  0.21389012  1  0.149972  0  0.146278  0.119671  0  0.957969  0
H  H14  1  0.67590601  0.85637758  0.71395195  1  0.151721  0  0.146597  0.119986  0  0.956756  0
H  H15  1  0.24599045  0.64356647  0.78610936  1  0.14992  0  0.146267  0.119645  0  0.957974  0
H  H16  1  0.38927745  0.49074790  0.19611867  1  0.201415  0  0.1572  0.137574  0  0.953614  0
H  H17  1  0.07577294  0.00889482  0.30383557  1  0.193622  0  0.157114  0.137801  0  0.953456  0
H  H18  1  0.61072634  0.50925387  0.80388070  1  0.201299  0  0.157203  0.137606  0  0.953583  0
H  H19  1  0.92422957  0.99110194  0.69616462  1  0.193672  0  0.15713  0.137829  0  0.953407  0
H  H20  1  0.02333002  0.02084318  0.92529663  1  0.183222  0  0.131576  0.10116  0  1.006912  0
H  H21  1  0.96930161  0.47913172  0.57481263  1  0.168833  0  0.131274  0.100444  0  1.006425  0
H  H22  1  0.97666885  0.97916364  0.07469835  1  0.183191  0  0.131614  0.101213  0  1.006839  0
H  H23  1  0.03069676  0.52087101  0.42518923  1  0.169009  0  0.131301  0.100453  0  1.006402  0
H  H24  1  0.49056898  0.19772122  0.89548044  1  0.18629  0  0.1526  0.135577  0  0.952087  0
H  H25  1  0.58391025  0.30210568  0.60448019  1  0.189227  0  0.152834  0.136129  0  0.95197  0
H  H26  1  0.50942532  0.80226957  0.10451846  1  0.186403  0  0.152624  0.135624  0  0.952109  0
H  H27  1  0.41609032  0.69789507  0.39552033  1  0.18922  0  0.152831  0.13613  0  0.951964  0
C  C28  1  0.37545589  0.42194520  0.97647091  1  0.935408  0  0.102058  0.234783  0  4.211935  0
C  C29  1  0.77413675  0.07796454  0.52354635  1  0.900199  0  0.102281  0.235736  0  4.212802  0
C  C30  1  0.62454071  0.57805356  0.02352867  1  0.935455  0  0.102171  0.234935  0  4.212021  0
C  C31  1  0.22586505  0.92203623  0.47645277  1  0.900627  0  0.102267  0.235695  0  4.212927  0
C  C32  1  0.23128241  0.50434297  0.01871175  1  0.454347  0  0.092499  -0.00426  0  3.907437  0
C  C33  1  0.75446626  0.99558223  0.48132826  1  0.44903  0  0.092455  -0.004128  0  3.907428  0
C  C34  1  0.76871693  0.49565779  0.98128885  1  0.45419  0  0.092412  -0.004405  0  3.907492  0
C  C35  1  0.24553431  0.00441853  0.51867226  1  0.449045  0  0.092449  -0.004067  0  3.90738  0
C  C36  1  0.22565507  0.47152686  0.08014399  1  0.170142  0  0.08258  -0.031958  0  3.941237  0
C  C37  1  0.77700681  0.02845689  0.41988579  1  0.184698  0  0.082171  -0.032653  0  3.939899  0
C  C38  1  0.77433831  0.52847091  0.91985630  1  0.17009  0  0.082587  -0.031961  0  3.941277  0
C  C39  1  0.22299280  0.97154587  0.58011423  1  0.184667  0  0.082156  -0.032766  0  3.93993  0
C  C40  1  0.35134459  0.35678884  0.10421409  1  0.453114  0  0.074773  -0.004141  0  4.076275  0
C  C41  1  0.81210518  0.14308697  0.39575459  1  0.462185  0  0.074443  -0.005008  0  4.07523  0
C  C42  1  0.64865722  0.64321192  0.89578591  1  0.453404  0  0.074736  -0.004137  0  4.076237  0
C  C43  1  0.18789786  0.85691379  0.60424533  1  0.462064  0  0.074533  -0.004871  0  4.075065  0
C  C44  1  0.48251048  0.27046213  0.06471940  1  0.291542  0  0.079934  -0.044378  0  4.001704  0
C  C45  1  0.81771767  0.22931442  0.43526388  1  0.285639  0  0.080056  -0.04414  0  4.000778  0
C  C46  1  0.51748612  0.72953664  0.93528018  1  0.291375  0  0.079954  -0.044364  0  4.001615  0
C  C47  1  0.18228586  0.77068534  0.56473650  1  0.285792  0  0.080006  -0.044193  0  4.000731  0
C  C48  1  0.49496186  0.30011974  0.00329218  1  0.357934  0  0.080498  -0.033544  0  3.98715  0
C  C49  1  0.79867671  0.19968949  0.49669238  1  0.386022  0  0.080114  -0.034082  0  3.986066  0
C  C50  1  0.50503324  0.69987703  0.99670718  1  0.357978  0  0.080499  -0.033568  0  3.987145  0
C  C51  1  0.20132681  0.80031027  0.50330757  1  0.385877  0  0.080086  -0.03418  0  3.985942  0
C  C52  1  0.85698121  0.77937822  0.99245611  1  0.979312  0  0.140957  0.138337  0  4.01366  0
C  C53  1  0.62915402  0.72056557  0.50765643  1  0.991824  0  0.140851  0.138204  0  4.015242  0
C  C54  1  0.14302179  0.22061752  0.00754587  1  0.979177  0  0.140931  0.138443  0  4.01346  0
C  C55  1  0.37084607  0.27943620  0.49234274  1  0.991904  0  0.140828  0.13819  0  4.015264  0
C  C56  1  0.08911015  0.66479232  0.93690543  1  0.961923  0  0.151563  0.087534  0  3.896978  0
C  C57  1  0.69108870  0.83523383  0.56319715  1  0.973143  0  0.150707  0.08629  0  3.896743  0
C  C58  1  0.91088844  0.33520745  0.06309440  1  0.96195  0  0.15162  0.087589  0  3.89699  0
C  C59  1  0.30891139  0.16476792  0.43680334  1  0.973158  0  0.150755  0.086376  0  3.896733  0
C  C60  1  0.33334174  0.22083074  0.25144457  1  0.99929  0  0.158131  0.163021  0  3.931875  0
C  C61  1  0.80562110  0.27913684  0.24851243  1  1.011684  0  0.158397  0.162677  0  3.935212  0
C  C62  1  0.66666006  0.77917003  0.74855499  1  0.999268  0  0.158166  0.163053  0  3.931842  0
C  C63  1  0.19438582  0.72085594  0.75148640  1  1.011072  0  0.158356  0.162572  0  3.935168  0
C  C64  1  0.36762324  0.39725802  0.20770925  1  0.984818  0  0.171851  0.100869  0  3.868291  0
C  C65  1  0.97232481  0.10250631  0.29225995  1  0.985363  0  0.172038  0.101227  0  3.867288  0
C  C66  1  0.63237979  0.60274276  0.79228934  1  0.984992  0  0.171873  0.100863  0  3.868217  0
C  C67  1  0.02767943  0.89748944  0.70774064  1  0.985897  0  0.172008  0.101135  0  3.867181  0
C  C68  1  0.88240716  0.07998892  0.93061746  1  0.963588  0  0.145454  0.162276  0  3.961131  0
C  C69  1  0.89298289  0.41992175  0.56945004  1  0.974376  0  0.145633  0.162914  0  3.960314  0
C  C70  1  0.11759339  0.92001190  0.06937822  1  0.96384  0  0.145411  0.162286  0  3.961012  0
C  C71  1  0.10701672  0.58008098  0.43055218  1  0.974462  0  0.145689  0.163015  0  3.960267  0
C  C72  1  0.61416103  0.16748940  0.91359564  1  0.972536  0  0.167756  0.107172  0  3.874165  0
C  C73  1  0.69533072  0.33236493  0.58640121  1  0.995169  0  0.167113  0.107168  0  3.874175  0
C  C74  1  0.38583182  0.83250438  0.08640361  1  0.972699  0  0.167789  0.107206  0  3.874375  0
C  C75  1  0.30467034  0.66763482  0.41360022  1  0.995162  0  0.167126  0.10711  0  3.874193  0
N  N76  1  0.09769477  0.61467988  0.99500374  1  -0.857355  0  -0.117288  0.160685  0  3.756213  0
N  N77  1  0.70758463  0.88527571  0.50508720  1  -0.837137  0  -0.117435  0.159886  0  3.756059  0
N  N78  1  0.90230580  0.38532088  0.00499633  1  -0.857385  0  -0.117277  0.160721  0  3.75617  0
N  N79  1  0.29241373  0.11472705  0.49491290  1  -0.837248  0  -0.117506  0.159772  0  3.756047  0
N  N80  1  0.94814253  0.68791799  0.03081255  1  -0.688571  0  -0.22494  -0.259145  0  3.138823  0
N  N81  1  0.66714250  0.81197356  0.46929231  1  -0.697152  0  -0.224845  -0.258684  0  3.139967  0
N  N82  1  0.05185751  0.31207877  0.96918825  1  -0.688442  0  -0.22499  -0.259254  0  3.138789  0
N  N83  1  0.33286178  0.18802721  0.53070753  1  -0.697034  0  -0.224789  -0.258623  0  3.139848  0
N  N84  1  0.93750105  0.76818985  0.93423607  1  -1.193624  0  -0.357031  -0.310725  0  3.56303  0
N  N85  1  0.64031010  0.73181570  0.56587690  1  -1.203437  0  -0.356507  -0.309936  0  3.562537  0
N  N86  1  0.06249384  0.23180989  0.06576576  1  -1.193618  0  -0.357024  -0.310713  0  3.562926  0
N  N87  1  0.35969170  0.26818507  0.43412266  1  -1.203505  0  -0.356503  -0.309937  0  3.562639  0
N  N88  1  0.08773377  0.55410428  0.12591062  1  0.432467  0  0.061784  0.51451  0  4.276262  0
N  N89  1  0.76712090  0.94588489  0.37416671  1  0.43039  0  0.061761  0.515433  0  4.274209  0
N  N90  1  0.91226288  0.44589946  0.87409086  1  0.432726  0  0.06178  0.514448  0  4.276152  0
N  N91  1  0.23287967  0.05411587  0.62583293  1  0.430274  0  0.061745  0.515496  0  4.274097  0
N  N92  1  0.34409922  0.32799679  0.16687628  1  -0.857101  0  -0.1278  0.135164  0  3.794805  0
N  N93  1  0.83870749  0.17183812  0.33307633  1  -0.850538  0  -0.127584  0.13494  0  3.794856  0
N  N94  1  0.65590087  0.67200497  0.83312333  1  -0.85705  0  -0.127755  0.135213  0  3.794731  0
N  N95  1  0.16129851  0.82816163  0.66692434  1  -0.850699  0  -0.127589  0.134932  0  3.794838  0
N  N96  1  0.32117315  0.21412756  0.19456950  1  -0.692536  0  -0.231988  -0.232569  0  3.310336  0
N  N97  1  0.72976431  0.28585209  0.30536257  1  -0.70152  0  -0.231198  -0.232111  0  3.310129  0
N  N98  1  0.67882570  0.78587419  0.80543063  1  -0.692581  0  -0.232012  -0.232615  0  3.310496  0
N  N99  1  0.27024538  0.71414769  0.69463610  1  -0.701115  0  -0.231209  -0.232035  0  3.310162  0
N  N100  1  0.36001624  0.33246910  0.26152695  1  -1.184363  0  -0.343841  -0.271307  0  3.523576  0
N  N101  1  0.95390195  0.16736500  0.23844637  1  -1.186968  0  -0.344194  -0.271485  0  3.522392  0
N  N102  1  0.63998287  0.66753467  0.73847217  1  -1.184384  0  -0.343908  -0.271368  0  3.523502  0
N  N103  1  0.04610695  0.83262877  0.76155359  1  -1.187158  0  -0.344143  -0.271381  0  3.522273  0
N  N104  1  0.60409723  0.14366213  0.08996120  1  0.397458  0  0.06213  0.525477  0  4.236641  0
N  N105  1  0.83789813  0.35600590  0.41001439  1  0.396044  0  0.062326  0.527046  0  4.236905  0
N  N106  1  0.39590162  0.85633963  0.91003893  1  0.397211  0  0.062129  0.52548  0  4.236666  0
N  N107  1  0.16210958  0.64399287  0.58998447  1  0.396053  0  0.062415  0.52718  0  4.236677  0
N  N108  1  0.62944714  0.21264173  0.96427777  1  -0.860711  0  -0.12594  0.148179  0  3.793806  0
N  N109  1  0.80652079  0.28721535  0.53573543  1  -0.86842  0  -0.126576  0.146027  0  3.794175  0
N  N110  1  0.37054795  0.78735504  0.03572115  1  -0.861035  0  -0.126025  0.148083  0  3.79425  0
N  N111  1  0.19348053  0.71278641  0.46426498  1  -0.8687  0  -0.126465  0.146329  0  3.793913  0
N  N112  1  0.80149511  0.15705690  0.97560265  1  -0.687213  0  -0.22506  -0.265359  0  3.136147  0
N  N113  1  0.93419950  0.34284617  0.52446535  1  -0.683858  0  -0.224024  -0.263367  0  3.135914  0
N  N114  1  0.19850347  0.84294289  0.02439498  1  -0.687152  0  -0.225048  -0.265374  0  3.136347  0
N  N115  1  0.06580086  0.65715757  0.47553588  1  -0.683808  0  -0.224199  -0.263654  0  3.135936  0
N  N116  1  0.77198783  0.08177954  0.89164489  1  -1.159555  0  -0.358369  -0.298298  0  3.515588  0
N  N117  1  0.74542184  0.41807320  0.60839259  1  -1.17636  0  -0.358245  -0.29869  0  3.516625  0
N  N118  1  0.22800801  0.91821825  0.10835304  1  -1.159848  0  -0.358376  -0.298391  0  3.515579  0
N  N119  1  0.25457750  0.58192753  0.39160933  1  -1.176474  0  -0.358231  -0.298631  0  3.516702  0
O  O120  1  0.39491004  0.45059587  0.92063732  1  -1.130724  0  -0.32881  -0.493002  0  2.173105  0
O  O121  1  0.76637349  0.04942938  0.57938646  1  -1.129821  0  -0.329049  -0.493653  0  2.173682  0
O  O122  1  0.60508259  0.54940090  0.07936220  1  -1.1307  0  -0.328864  -0.493061  0  2.173214  0
O  O123  1  0.23362412  0.95057239  0.42061331  1  -1.129856  0  -0.329022  -0.493607  0  2.173889  0
O  O124  1  0.11122863  0.65134483  0.14004412  1  -0.42128  0  -0.107655  -0.299409  0  1.954109  0
O  O125  1  0.90203373  0.84873578  0.35994676  1  -0.426673  0  -0.107886  -0.300188  0  1.952996  0
O  O126  1  0.88876926  0.34865890  0.85995771  1  -0.421505  0  -0.107633  -0.29935  0  1.95404  0
O  O127  1  0.09796659  0.15126296  0.64005522  1  -0.426584  0  -0.107884  -0.300213  0  1.952882  0
O  O128  1  0.96901078  0.51258755  0.14934742  1  -0.426996  0  -0.115485  -0.313598  0  1.94707  0
O  O129  1  0.63005278  0.98727373  0.35084202  1  -0.431577  0  -0.115211  -0.313532  0  1.948459  0
O  O130  1  0.03098883  0.48741518  0.85065436  1  -0.427043  0  -0.115505  -0.313592  0  1.946948  0
O  O131  1  0.36994753  0.01272503  0.64915820  1  -0.431585  0  -0.115197  -0.313537  0  1.948427  0
O  O132  1  0.60342266  0.03930577  0.07371806  1  -0.451037  0  -0.115803  -0.331004  0  1.971686  0
O  O133  1  0.71663352  0.46044666  0.42618354  1  -0.448129  0  -0.115985  -0.331776  0  1.971717  0
O  O134  1  0.39657667  0.96069499  0.92628166  1  -0.451066  0  -0.115804  -0.330994  0  1.971706  0
O  O135  1  0.28336978  0.53955612  0.57381536  1  -0.44817  0  -0.116024  -0.331842  0  1.971854  0
O  O136  1  0.69628788  0.14970177  0.12603187  1  -0.440873  0  -0.107723  -0.308668  0  1.953559  0
O  O137  1  0.97227041  0.34976976  0.37398804  1  -0.445004  0  -0.107377  -0.309014  0  1.954939  0
O  O138  1  0.30370925  0.85030099  0.87396831  1  -0.440631  0  -0.107711  -0.308669  0  1.953567  0
O  O139  1  0.02773387  0.65023098  0.62601355  1  -0.444988  0  -0.107416  -0.309091  0  1.95464  0
