# generated using pymatgen
data_Na2H72PtC48S4(NO3)4
_symmetry_space_group_name_H-M   'P 1'
_cell_length_a   10.02076024
_cell_length_b   11.81326128
_cell_length_c   12.63800000
_cell_angle_alpha   103.09078713
_cell_angle_beta   109.60292696
_cell_angle_gamma   98.86425840
_symmetry_Int_Tables_number   1
_chemical_formula_structural   Na2H72PtC48S4(NO3)4
_chemical_formula_sum   'Na2 H72 Pt1 C48 S4 N4 O12'
_cell_volume   1328.86480131
_cell_formula_units_Z   1
loop_
 _symmetry_equiv_pos_site_id
 _symmetry_equiv_pos_as_xyz
  1  'x, y, z'
loop_
 _atom_site_type_symbol
 _atom_site_label
 _atom_site_symmetry_multiplicity
 _atom_site_fract_x
 _atom_site_fract_y
 _atom_site_fract_z
 _atom_site_occupancy
 _atom_site_hle17_bader_spin_density
 _atom_site_hle17_ddec_charge
 _atom_site_hle17_ddec_spin_density
 _atom_site_hle17_ddec_sum_bond_order
 _atom_site_hle17_magmom
 _atom_site_hse06_10hf_bader_spin_density
 _atom_site_hse06_10hf_ddec_charge
 _atom_site_hse06_10hf_ddec_spin_density
 _atom_site_hse06_10hf_ddec_sum_bond_order
 _atom_site_hse06_10hf_magmom
 _atom_site_hse06_bader_spin_density
 _atom_site_hse06_ddec_charge
 _atom_site_hse06_ddec_spin_density
 _atom_site_hse06_ddec_sum_bond_order
 _atom_site_hse06_magmom
 _atom_site_pbe_bader_charge
 _atom_site_pbe_bader_spin_density
 _atom_site_pbe_cm5_charge
 _atom_site_pbe_ddec_charge
 _atom_site_pbe_ddec_spin_density
 _atom_site_pbe_ddec_sum_bond_order
 _atom_site_pbe_magmom
Na  Na0  1  0.45783798  0.71427641  0.26671476  1  0  0.898131  0  0.355543  0  0  0.823192  0  0.534853  0  0  0.837946  0  0.510879  0  0.894563  0  0.658013  0.812129  0  0.552354  0
Na  Na1  1  0.54215991  0.28572062  0.73328508  1  0  0.89813  0  0.355555  0  0  0.823167  0  0.534905  0  0  0.837915  0  0.510929  0  0.894586  0  0.65802  0.812098  0  0.552409  0
H  H2  1  0.70338463  0.87648737  0.61925368  1  0  0.02847  0  0.934658  0  0  0.038631  0  1.003345  0  0  0.038839  0  1.003179  0  0.031764  0  0.097866  0.038362  0  1.003612  0
H  H3  1  0.29661490  0.12351505  0.38074379  1  0  0.028518  0  0.934728  0  0  0.038673  0  1.003377  0  0  0.038887  0  1.003207  0  0.031773  0  0.097893  0.038405  0  1.003641  0
H  H4  1  0.95892508  0.94986436  0.63574345  1  0  0.074102  0  0.947468  0  0  0.090838  0  1.00957  0  0  0.092044  0  1.009373  0  0.024247  0  0.085737  0.089967  0  1.009741  0
H  H5  1  0.04107525  0.05013717  0.36425562  1  0  0.074101  0  0.947478  0  0  0.09084  0  1.009579  0  0  0.092045  0  1.009381  0  0.024284  0  0.085724  0.089961  0  1.009759  0
H  H6  1  0.93912149  0.83641696  0.70184462  1  0  0.076642  0  0.962632  0  0  0.097639  0  1.023923  0  0  0.098178  0  1.024245  0  0.019403  0  0.083565  0.097059  0  1.02406  0
H  H7  1  0.06087699  0.16358546  0.29815415  1  0  0.076639  0  0.962597  0  0  0.097627  0  1.023911  0  0  0.098165  0  1.024236  0  0.01977  0  0.08355  0.097048  0  1.024048  0
H  H8  1  0.09653690  0.79849493  0.58949748  1  0  0.050232  0  0.964275  0  0  0.070134  0  1.030004  0  0  0.070352  0  1.030848  0  -0.030926  0  0.082793  0.069535  0  1.030046  0
H  H9  1  0.90346236  0.20150659  0.41050130  1  0  0.050247  0  0.964268  0  0  0.070169  0  1.029973  0  0  0.070367  0  1.030836  0  -0.030944  0  0.082809  0.06957  0  1.030013  0
H  H10  1  0.95716741  0.79956508  0.45884393  1  0  0.065682  0  0.928539  0  0  0.084595  0  0.989266  0  0  0.086035  0  0.988404  0  0.019525  0  0.089247  0.083381  0  0.990081  0
H  H11  1  0.04283425  0.20043734  0.54115647  1  0  0.065692  0  0.928538  0  0  0.084601  0  0.989277  0  0  0.086041  0  0.988411  0  0.019163  0  0.089239  0.083391  0  0.990086  0
H  H12  1  0.95395230  0.58839842  0.45827855  1  0  0.056994  0  0.952813  0  0  0.075198  0  1.018163  0  0  0.075726  0  1.019056  0  0.013975  0  0.085925  0.075711  0  1.015281  0
H  H13  1  0.04604563  0.41160220  0.54171889  1  0  0.056998  0  0.952831  0  0  0.075187  0  1.018194  0  0  0.075714  0  1.019087  0  0.013987  0  0.085912  0.075701  0  1.015313  0
H  H14  1  0.93881365  0.61851071  0.59666944  1  0  0.052771  0  0.943798  0  0  0.072257  0  1.00844  0  0  0.072848  0  1.008825  0  -0.007905  0  0.082957  0.071451  0  1.00861  0
H  H15  1  0.06118561  0.38149081  0.40332855  1  0  0.05277  0  0.943789  0  0  0.072258  0  1.008424  0  0  0.072849  0  1.008812  0  -0.007946  0  0.082951  0.071452  0  1.008593  0
H  H16  1  0.69126418  0.51973027  0.43228878  1  0  0.077039  0  0.940547  0  0  0.096438  0  1.000098  0  0  0.096925  0  1.000768  0  0.034577  0  0.093419  0.095857  0  0.999878  0
H  H17  1  0.30873375  0.48027035  0.56770946  1  0  0.077023  0  0.940577  0  0  0.096399  0  1.00012  0  0  0.096883  0  1.000791  0  0.03456  0  0.093408  0.095816  0  0.999905  0
H  H18  1  0.71516365  0.63504055  0.36793429  1  0  0.087249  0  0.951181  0  0  0.099564  0  1.022102  0  0  0.101198  0  1.020892  0  0.053285  0  0.100215  0.098141  0  1.02335  0
H  H19  1  0.28483589  0.36496187  0.63206555  1  0  0.087289  0  0.951164  0  0  0.09958  0  1.022077  0  0  0.10121  0  1.020871  0  0.053309  0  0.100227  0.098166  0  1.023319  0
H  H20  1  0.69769539  0.66819540  0.61056784  1  0  0.035071  0  0.917172  0  0  0.045802  0  0.982232  0  0  0.046212  0  0.981938  0  0.032054  0  0.097521  0.045327  0  0.982658  0
H  H21  1  0.30230309  0.33180702  0.38943092  1  0  0.035068  0  0.917154  0  0  0.045788  0  0.98222  0  0  0.046194  0  0.981928  0  0.032141  0  0.097522  0.045311  0  0.982646  0
H  H22  1  0.46734898  0.80370113  0.54878266  1  0  0.056139  0  0.939073  0  0  0.070028  0  1.007581  0  0  0.070803  0  1.00652  0  0.038369  0  0.10294  0.069196  0  1.008552  0
H  H23  1  0.53264816  0.19630039  0.45121477  1  0  0.056193  0  0.938938  0  0  0.070001  0  1.007542  0  0  0.070777  0  1.006482  0  0.038403  0  0.10289  0.069171  0  1.008512  0
H  H24  1  0.45593522  0.67449419  0.60051125  1  0  0.057098  0  0.919566  0  0  0.071758  0  0.986915  0  0  0.072215  0  0.985962  0  0.044909  0  0.101941  0.071164  0  0.987856  0
H  H25  1  0.54406510  0.32550733  0.39948781  1  0  0.057071  0  0.919548  0  0  0.071724  0  0.986891  0  0  0.072181  0  0.985938  0  0.044864  0  0.101946  0.071131  0  0.987831  0
H  H26  1  0.25382110  0.55901782  0.40184585  1  0  0.058895  0  0.923048  0  0  0.074009  0  0.987451  0  0  0.074681  0  0.986624  0  0.067749  0  0.10569  0.073587  0  0.988136  0
H  H27  1  0.74617683  0.44098280  0.59815159  1  0  0.058916  0  0.923047  0  0  0.074019  0  0.987462  0  0  0.074693  0  0.986632  0  0.067817  0  0.105684  0.0736  0  0.988144  0
H  H28  1  0.20780160  0.68002179  0.48529239  1  0  0.044675  0  0.945151  0  0  0.060544  0  1.013373  0  0  0.060379  0  1.013636  0  0.024581  0  0.097864  0.061405  0  1.011283  0
H  H29  1  0.79219739  0.31997883  0.51470533  1  0  0.044714  0  0.945138  0  0  0.060572  0  1.013374  0  0  0.060395  0  1.013648  0  0.024452  0  0.097873  0.061431  0  1.011289  0
H  H30  1  0.03027203  0.68800301  0.28664998  1  0  0.055903  0  0.912099  0  0  0.074013  0  0.970273  0  0  0.073947  0  0.970618  0  0.046465  0  0.101901  0.074024  0  0.969953  0
H  H31  1  0.96972912  0.31200120  0.71335066  1  0  0.055854  0  0.912001  0  0  0.073979  0  0.970218  0  0  0.073917  0  0.970562  0  0.046511  0  0.101865  0.073988  0  0.969895  0
H  H32  1  0.09067503  0.56142925  0.22836913  1  0  0.052608  0  0.928504  0  0  0.065689  0  0.99731  0  0  0.066729  0  0.995574  0  0.020819  0  0.102239  0.064809  0  0.998676  0
H  H33  1  0.90932506  0.43857497  0.77162964  1  0  0.052611  0  0.928482  0  0  0.06574  0  0.997277  0  0  0.066785  0  0.995537  0  0.020752  0  0.10225  0.064844  0  0.998657  0
H  H34  1  0.99186248  0.67063734  0.08313489  1  0  0.054352  0  0.942025  0  0  0.067986  0  1.010764  0  0  0.067285  0  1.01195  0  0.05229  0  0.097999  0.06818  0  1.01038  0
H  H35  1  0.00813815  0.32936867  0.91686521  1  0  0.054395  0  0.942045  0  0  0.068019  0  1.010745  0  0  0.067319  0  1.011929  0  0.052278  0  0.098013  0.068214  0  1.010362  0
H  H36  1  0.13404562  0.80183286  0.17403728  1  0  0.050431  0  0.943477  0  0  0.061187  0  1.017642  0  0  0.062131  0  1.016206  0  0.011785  0  0.093538  0.060427  0  1.01873  0
H  H37  1  0.86595659  0.19817136  0.82596285  1  0  0.050453  0  0.94342  0  0  0.061181  0  1.017579  0  0  0.062127  0  1.016139  0  0.011912  0  0.09354  0.060423  0  1.018666  0
H  H38  1  0.05670427  0.63237865  0.93135352  1  0  0.028013  0  0.920231  0  0  0.03837  0  0.987431  0  0  0.038805  0  0.986783  0  0.029404  0  0.095857  0.037854  0  0.988257  0
H  H39  1  0.94329633  0.36762377  0.06864659  1  0  0.028068  0  0.920271  0  0  0.038407  0  0.987437  0  0  0.038842  0  0.986788  0  0.029257  0  0.095883  0.03789  0  0.988266  0
H  H40  1  0.36454665  0.59219152  0.98643804  1  0  0.08408  0  0.941467  0  0  0.099733  0  1.003503  0  0  0.100032  0  1.005154  0  0.053022  0  0.097091  0.099416  0  1.002699  0
H  H41  1  0.63545340  0.40780910  0.01356393  1  0  0.084064  0  0.941511  0  0  0.099738  0  1.003519  0  0  0.10004  0  1.005175  0  0.053043  0  0.097089  0.099421  0  1.002715  0
H  H42  1  0.19929636  0.47960330  0.92971618  1  0  0.063645  0  0.967707  0  0  0.079158  0  1.034929  0  0  0.079573  0  1.035602  0  0.009148  0  0.085593  0.078883  0  1.034358  0
H  H43  1  0.80070475  0.52039732  0.07028449  1  0  0.063626  0  0.967725  0  0  0.079141  0  1.034948  0  0  0.079556  0  1.035623  0  0.009012  0  0.08559  0.078865  0  1.034377  0
H  H44  1  0.11419230  0.53478417  0.74534029  1  0  0.039591  0  0.958607  0  0  0.057391  0  1.028773  0  0  0.057988  0  1.028962  0  -0.01548  0  0.077432  0.056781  0  1.028854  0
H  H45  1  0.88581120  0.46521735  0.25466120  1  0  0.039608  0  0.958587  0  0  0.057404  0  1.028767  0  0  0.058019  0  1.028937  0  -0.015528  0  0.077446  0.056795  0  1.028846  0
H  H46  1  0.28989164  0.50821630  0.77265145  1  0  0.073237  0  0.966075  0  0  0.090118  0  1.029231  0  0  0.090125  0  1.031483  0  0.05839  0  0.090342  0.090089  0  1.027759  0
H  H47  1  0.71011080  0.49178522  0.22735055  1  0  0.073174  0  0.966095  0  0  0.090078  0  1.029238  0  0  0.090082  0  1.031493  0  0.058377  0  0.090323  0.090038  0  1.027775  0
H  H48  1  0.26437616  0.69400375  0.70761176  1  0  0.046577  0  0.949666  0  0  0.066918  0  1.012873  0  0  0.0676  0  1.012935  0  -0.013329  0  0.079436  0.066442  0  1.012708  0
H  H49  1  0.73562573  0.30599598  0.29238892  1  0  0.046586  0  0.949686  0  0  0.066917  0  1.0129  0  0  0.067595  0  1.012962  0  -0.013347  0  0.07943  0.066445  0  1.012729  0
H  H50  1  0.40422039  0.72746832  0.84860086  1  0  0.064872  0  0.945234  0  0  0.081169  0  1.009214  0  0  0.081908  0  1.009776  0  0.015894  0  0.084279  0.080151  0  1.00969  0
H  H51  1  0.59578311  0.27253320  0.15140142  1  0  0.064868  0  0.945145  0  0  0.081175  0  1.009108  0  0  0.081914  0  1.009668  0  0.015938  0  0.084267  0.080158  0  1.009585  0
H  H52  1  0.09092750  0.75512879  0.79997138  1  0  0.065885  0  0.959339  0  0  0.083674  0  1.026024  0  0  0.084333  0  1.026546  0  0.019376  0  0.082582  0.082974  0  1.026301  0
H  H53  1  0.90907439  0.24487094  0.20002851  1  0  0.065885  0  0.959319  0  0  0.083674  0  1.02601  0  0  0.084334  0  1.026532  0  0.019355  0  0.082577  0.082974  0  1.02629  0
H  H54  1  0.24760729  0.87442518  0.85024008  1  0  0.063809  0  0.973389  0  0  0.07819  0  1.044335  0  0  0.079381  0  1.044405  0  0.026833  0  0.078882  0.077347  0  1.044269  0
H  H55  1  0.75239276  0.12557544  0.14975951  1  0  0.063833  0  0.973373  0  0  0.078219  0  1.044316  0  0  0.079411  0  1.044385  0  0.026846  0  0.078893  0.077377  0  1.044251  0
H  H56  1  0.17231526  0.84598276  0.01145304  1  0  0.015314  0  0.993639  0  0  0.011362  0  1.090543  0  0  0.013917  0  1.086226  0  0.062208  0  0.076578  0.009355  0  1.093872  0
H  H57  1  0.82768400  0.15401876  0.98854732  1  0  0.015342  0  0.993624  0  0  0.011348  0  1.090575  0  0  0.013898  0  1.086268  0  0.06223  0  0.076597  0.009332  0  1.093893  0
H  H58  1  0.37805752  0.99786123  0.03820885  1  0  0.054753  0  0.95378  0  0  0.066545  0  1.026267  0  0  0.066525  0  1.026683  0  0.052871  0  0.094604  0.066466  0  1.026064  0
H  H59  1  0.62194387  0.00214030  0.96179129  1  0  0.054751  0  0.953795  0  0  0.066523  0  1.026283  0  0  0.066504  0  1.026697  0  0.052896  0  0.094586  0.066444  0  1.026082  0
H  H60  1  0.55176818  0.97571131  0.11532971  1  0  0.056541  0  0.945069  0  0  0.070858  0  1.012577  0  0  0.070954  0  1.01245  0  0.037343  0  0.099313  0.070902  0  1.012415  0
H  H61  1  0.44823242  0.02429111  0.88466883  1  0  0.056559  0  0.945084  0  0  0.07087  0  1.012568  0  0  0.070967  0  1.012441  0  0.037367  0  0.099312  0.070915  0  1.012405  0
H  H62  1  0.44514655  0.09730000  0.24374313  1  0  0.040126  0  0.949268  0  0  0.052287  0  1.024279  0  0  0.052465  0  1.024274  0  -0.003706  0  0.090926  0.052199  0  1.024181  0
H  H63  1  0.55485723  0.90270242  0.75625783  1  0  0.040062  0  0.949221  0  0  0.052262  0  1.024216  0  0  0.052445  0  1.024213  0  -0.003651  0  0.090905  0.052173  0  1.024118  0
H  H64  1  0.29776229  0.96926977  0.20092684  1  0  0.060619  0  0.944738  0  0  0.06973  0  1.023185  0  0  0.070865  0  1.020684  0  0.041675  0  0.098103  0.068925  0  1.024847  0
H  H65  1  0.70224098  0.03073444  0.79907516  1  0  0.060628  0  0.944721  0  0  0.069756  0  1.023148  0  0  0.070881  0  1.020661  0  0.041633  0  0.098117  0.068945  0  1.024825  0
H  H66  1  0.67315807  0.09801733  0.35893741  1  0  0.040971  0  0.944616  0  0  0.058372  0  1.01138  0  0  0.057839  0  1.01184  0  0.030349  0  0.097314  0.058492  0  1.011432  0
H  H67  1  0.32684437  0.90198420  0.64106063  1  0  0.041001  0  0.944592  0  0  0.058409  0  1.011352  0  0  0.057881  0  1.011816  0  0.030371  0  0.097335  0.058541  0  1.01139  0
H  H68  1  0.69306215  0.95637143  0.28695721  1  0  0.058592  0  0.932926  0  0  0.069198  0  1.003251  0  0  0.069955  0  1.002771  0  0.065787  0  0.099941  0.06858  0  1.003664  0
H  H69  1  0.30694029  0.04363009  0.71304083  1  0  0.058594  0  0.932909  0  0  0.069174  0  1.003256  0  0  0.069941  0  1.002784  0  0.065841  0  0.099933  0.068558  0  1.003668  0
H  H70  1  0.83664318  0.02682194  0.50385333  1  0  0.047905  0  0.929759  0  0  0.064793  0  0.991535  0  0  0.064938  0  0.991366  0  0.051941  0  0.097947  0.064587  0  0.991786  0
H  H71  1  0.16336033  0.97317958  0.49614499  1  0  0.047834  0  0.929778  0  0  0.064727  0  0.991568  0  0  0.064871  0  0.991401  0  0.051987  0  0.097929  0.064521  0  0.991817  0
H  H72  1  0.67054669  0.02190931  0.52906346  1  0  0.062648  0  0.917163  0  0  0.071962  0  0.988959  0  0  0.074078  0  0.986026  0  0.066425  0  0.102251  0.070328  0  0.991209  0
H  H73  1  0.32945524  0.97809401  0.47093404  1  0  0.062607  0  0.917184  0  0  0.07195  0  0.988954  0  0  0.074072  0  0.986013  0  0.066404  0  0.102239  0.07029  0  0.991229  0
Pt  Pt74  1  0.99999919  0.99999434  0.00000278  1  0  0.020186  0  3.458727  0  0  0.032794  0  4.077848  0  0  0.042162  0  4.052162  0  0.147772  0  0.375464  0.028304  0  4.094522  0
C  C75  1  0.74454801  0.82502599  0.55765829  1  0  0.135325  0  3.615901  0  0  0.111597  0  3.865125  0  0  0.116633  0  3.876844  0  0.461289  0  -0.00652  0.108358  0  3.856914  0
C  C76  1  0.25545153  0.17497643  0.44233996  1  0  0.135256  0  3.61608  0  0  0.111605  0  3.865229  0  0  0.116627  0  3.876952  0  0.461271  0  -0.006483  0.108369  0  3.857011  0
C  C77  1  0.91152236  0.85344327  0.61586891  1  0  -0.172206  0  3.671124  0  0  -0.214783  0  3.921288  0  0  -0.216645  0  3.935077  0  -0.037057  0  -0.173153  -0.213183  0  3.911571  0
C  C78  1  0.08847824  0.14655914  0.38413041  1  0  -0.172215  0  3.671132  0  0  -0.214806  0  3.921293  0  0  -0.216664  0  3.935075  0  -0.03746  0  -0.173145  -0.213202  0  3.911586  0
C  C79  1  0.97728647  0.77703091  0.54198257  1  0  -0.0997  0  3.693103  0  0  -0.142317  0  3.957937  0  0  -0.143015  0  3.972419  0  0.018502  0  -0.169834  -0.141378  0  3.947679  0
C  C80  1  0.02271197  0.22296791  0.45801621  1  0  -0.099693  0  3.693039  0  0  -0.14233  0  3.957893  0  0  -0.143013  0  3.972376  0  0.018861  0  -0.169836  -0.141392  0  3.947636  0
C  C81  1  0.90944898  0.64327405  0.51411246  1  0  -0.101064  0  3.69632  0  0  -0.141006  0  3.959004  0  0  -0.142441  0  3.974639  0  0.011946  0  -0.167288  -0.139817  0  3.946701  0
C  C82  1  0.09054946  0.35672478  0.48588553  1  0  -0.101107  0  3.696359  0  0  -0.14105  0  3.958987  0  0  -0.142486  0  3.974616  0  0.011973  0  -0.16729  -0.139856  0  3.946675  0
C  C83  1  0.74313374  0.61510006  0.45244772  1  0  -0.168046  0  3.672376  0  0  -0.213792  0  3.929276  0  0  -0.215495  0  3.942882  0  -0.03974  0  -0.168014  -0.212608  0  3.920126  0
C  C84  1  0.25686686  0.38490236  0.54755160  1  0  -0.16808  0  3.672403  0  0  -0.213743  0  3.929169  0  0  -0.215433  0  3.942751  0  -0.039763  0  -0.168002  -0.212569  0  3.92002  0
C  C85  1  0.67721579  0.69007329  0.52663571  1  0  0.150807  0  3.613298  0  0  0.125774  0  3.865302  0  0  0.131094  0  3.875897  0  0.460722  0  -0.001811  0.121937  0  3.858234  0
C  C86  1  0.32278269  0.30992913  0.47336305  1  0  0.150841  0  3.613514  0  0  0.125796  0  3.865414  0  0  0.131126  0  3.876011  0  0.460544  0  -0.001776  0.121962  0  3.858346  0
C  C87  1  0.43813109  0.70453645  0.52115815  1  0  0.054061  0  3.687127  0  0  -0.012978  0  3.973281  0  0  -0.005941  0  3.97736  0  0.447824  0  -0.074855  -0.017515  0  3.970719  0
C  C88  1  0.56186739  0.29546597  0.47883982  1  0  0.054116  0  3.687036  0  0  -0.012864  0  3.973148  0  0  -0.005822  0  3.977225  0  0.447798  0  -0.074798  -0.017403  0  3.970587  0
C  C89  1  0.27974309  0.65770309  0.43802049  1  0  0.056793  0  3.684194  0  0  -0.004649  0  3.961843  0  0  0.001536  0  3.967997  0  0.440373  0  -0.071806  -0.009268  0  3.956971  0
C  C90  1  0.72025802  0.34229753  0.56197859  1  0  0.056588  0  3.684344  0  0  -0.004862  0  3.961989  0  0  0.001334  0  3.968142  0  0.440394  0  -0.071887  -0.009481  0  3.957116  0
C  C91  1  0.11350770  0.66045657  0.25411562  1  0  0.064455  0  3.665567  0  0  0.005124  0  3.939777  0  0  0.011448  0  3.945433  0  0.443815  0  -0.07053  0.001004  0  3.935654  0
C  C92  1  0.88649106  0.33954675  0.74588340  1  0  0.064647  0  3.665203  0  0  0.005178  0  3.939529  0  0  0.011494  0  3.945189  0  0.443498  0  -0.070471  0.001076  0  3.935397  0
C  C93  1  0.10558095  0.70279656  0.14868653  1  0  0.058301  0  3.673444  0  0  -0.004167  0  3.951196  0  0  0.002531  0  3.956589  0  0.485787  0  -0.077464  -0.008481  0  3.947576  0
C  C94  1  0.89441914  0.29720766  0.85131383  1  0  0.058138  0  3.673499  0  0  -0.004217  0  3.951176  0  0  0.00248  0  3.956572  0  0.485957  0  -0.07747  -0.008537  0  3.947561  0
C  C95  1  0.17645779  0.65880556  0.98272603  1  0  0.156975  0  3.609042  0  0  0.134332  0  3.856288  0  0  0.139871  0  3.866668  0  0.449945  0  -0.001438  0.130387  0  3.849558  0
C  C96  1  0.82354410  0.34119416  0.01727386  1  0  0.156831  0  3.609184  0  0  0.134291  0  3.856299  0  0  0.139833  0  3.866666  0  0.450053  0  -0.001487  0.130331  0  3.849558  0
C  C97  1  0.24785596  0.56937366  0.92948424  1  0  -0.164393  0  3.674993  0  0  -0.205679  0  3.925044  0  0  -0.207177  0  3.938827  0  -0.010357  0  -0.170195  -0.204387  0  3.915403  0
C  C98  1  0.75214409  0.43062696  0.07051614  1  0  -0.16431  0  3.674984  0  0  -0.20563  0  3.92503  0  0  -0.20714  0  3.938825  0  -0.010216  0  -0.170164  -0.20434  0  3.915392  0
C  C99  1  0.23071002  0.56965197  0.80455392  1  0  -0.101799  0  3.681678  0  0  -0.139899  0  3.93488  0  0  -0.141885  0  3.95149  0  -0.032779  0  -0.169416  -0.13834  0  3.923302  0
C  C100  1  0.76929321  0.43034865  0.19544730  1  0  -0.101727  0  3.681693  0  0  -0.139881  0  3.934967  0  0  -0.14187  0  3.951567  0  -0.032769  0  -0.169422  -0.138315  0  3.923393  0
C  C101  1  0.28500130  0.69572299  0.79934313  1  0  -0.093959  0  3.690054  0  0  -0.131151  0  3.946305  0  0  -0.13159  0  3.960428  0  0.015307  0  -0.171034  -0.130507  0  3.936399  0
C  C102  1  0.71500142  0.30427943  0.20065913  1  0  -0.094038  0  3.690051  0  0  -0.13119  0  3.946275  0  0  -0.131629  0  3.9604  0  0.015304  0  -0.171027  -0.13055  0  3.936372  0
C  C103  1  0.20977688  0.78267343  0.85206164  1  0  -0.173541  0  3.688711  0  0  -0.216395  0  3.938358  0  0  -0.218659  0  3.95278  0  -0.036238  0  -0.175886  -0.214476  0  3.928312  0
C  C104  1  0.79022423  0.21732719  0.14793744  1  0  -0.17353  0  3.688649  0  0  -0.216402  0  3.938318  0  0  -0.218667  0  3.952739  0  -0.036217  0  -0.175872  -0.214498  0  3.92826  0
C  C105  1  0.23295074  0.78503728  0.97874343  1  0  0.129061  0  3.616572  0  0  0.110563  0  3.855943  0  0  0.114667  0  3.86849  0  0.412268  0  -0.012887  0.107598  0  3.847623  0
C  C106  1  0.76705225  0.21496604  0.02125672  1  0  0.129128  0  3.616702  0  0  0.110605  0  3.856092  0  0  0.114709  0  3.868641  0  0.412226  0  -0.012875  0.107705  0  3.84767  0
C  C107  1  0.43513434  0.95276058  0.10084589  1  0  0.047713  0  3.668913  0  0  -0.011252  0  3.935647  0  0  -0.004829  0  3.941715  0  0.457408  0  -0.07916  -0.01563  0  3.931326  0
C  C108  1  0.56486786  0.04724364  0.89915503  1  0  0.047626  0  3.669148  0  0  -0.011276  0  3.935763  0  0  -0.004849  0  3.941834  0  0.457459  0  -0.079182  -0.015657  0  3.931444  0
C  C109  1  0.41362175  0.99795998  0.21489502  1  0  0.041371  0  3.689151  0  0  -0.02283  0  3.970586  0  0  -0.015971  0  3.975232  0  0.47536  0  -0.082728  -0.027615  0  3.967614  0
C  C110  1  0.58638124  0.00204334  0.78510513  1  0  0.04144  0  3.689046  0  0  -0.022801  0  3.970454  0  0  -0.015953  0  3.975139  0  0.475376  0  -0.082698  -0.027586  0  3.967478  0
C  C111  1  0.64816043  0.00083134  0.34916799  1  0  0.052286  0  3.682124  0  0  -0.008123  0  3.957998  0  0  -0.001865  0  3.963998  0  0.431154  0  -0.075408  -0.012183  0  3.953847  0
C  C112  1  0.35184174  0.99916928  0.65082900  1  0  0.052252  0  3.682017  0  0  -0.008131  0  3.957918  0  0  -0.001907  0  3.963958  0  0.431106  0  -0.075391  -0.0122  0  3.953762  0
C  C113  1  0.71869369  0.98177668  0.46722605  1  0  0.069496  0  3.665718  0  0  0.008298  0  3.94229  0  0  0.014688  0  3.947414  0  0.418954  0  -0.071221  0.004029  0  3.938795  0
C  C114  1  0.28130769  0.01822484  0.53277171  1  0  0.069585  0  3.665594  0  0  0.008382  0  3.942186  0  0  0.014763  0  3.947309  0  0.4187  0  -0.071232  0.004128  0  3.938693  0
C  C115  1  0.79106127  0.80033268  0.99063229  1  0  0.087357  0  3.840632  0  0  0.086416  0  4.123275  0  0  0.104573  0  4.137847  0  -0.244644  0  0.000917  0.073779  0  4.112933  0
C  C116  1  0.20893285  0.19965897  0.00937332  1  0  0.087422  0  3.840639  0  0  0.086394  0  4.123293  0  0  0.104593  0  4.137885  0  -0.243196  0  0.000912  0.073763  0  4.112951  0
C  C117  1  0.69318037  0.69991470  0.98841166  1  0  -0.178779  0  3.9773  0  0  -0.156669  0  4.210712  0  0  -0.168768  0  4.227505  0  0.220777  0  -0.037164  -0.147702  0  4.199947  0
C  C118  1  0.30681474  0.30006976  0.01159190  1  0  -0.178997  0  3.977297  0  0  -0.156676  0  4.210479  0  0  -0.1689  0  4.227436  0  0.219232  0  -0.03721  -0.147727  0  4.199751  0
C  C119  1  0.66062490  0.69994163  0.08843950  1  0  0.323027  0  3.820993  0  0  0.305317  0  4.092888  0  0  0.319179  0  4.108525  0  0.83447  0  0.188149  0.295454  0  4.083092  0
C  C120  1  0.33937550  0.30004283  0.91156468  1  0  0.323058  0  3.820799  0  0  0.305268  0  4.092668  0  0  0.319169  0  4.108335  0  0.834437  0  0.188184  0.295407  0  4.08288  0
C  C121  1  0.63073979  0.59813300  0.88840104  1  0  0.305569  0  3.826117  0  0  0.289943  0  4.097214  0  0  0.302817  0  4.113739  0  0.829081  0  0.181696  0.280873  0  4.08629  0
C  C122  1  0.36925939  0.40186134  0.11160806  1  0  0.305983  0  3.826042  0  0  0.290295  0  4.097098  0  0  0.303207  0  4.113658  0  0.829455  0  0.181998  0.28123  0  4.086184  0
S  S123  1  0.88019065  0.92645576  0.10961153  1  0  -0.199703  0  2.401918  0  0  -0.193241  0  2.78662  0  0  -0.206701  0  2.78223  0  -0.086503  0  -0.150758  -0.184621  0  2.789155  0
S  S124  1  0.11980003  0.07353499  0.89038901  1  0  -0.199643  0  2.401749  0  0  -0.193171  0  2.786453  0  0  -0.206632  0  2.782054  0  -0.086591  0  -0.150717  -0.184549  0  2.788984  0
S  S125  1  0.84302570  0.81424550  0.87683961  1  0  -0.20063  0  2.392328  0  0  -0.19477  0  2.780351  0  0  -0.208327  0  2.776075  0  -0.088071  0  -0.152954  -0.18502  0  2.782942  0
S  S126  1  0.15696435  0.18573627  0.12316045  1  0  -0.200694  0  2.39247  0  0  -0.194822  0  2.780503  0  0  -0.208377  0  2.776215  0  -0.088241  0  -0.152979  -0.185072  0  2.783091  0
N  N127  1  0.63594818  0.70280194  0.17317846  1  0  -0.476388  0  2.62989  0  0  -0.451873  0  2.881619  0  0  -0.461599  0  2.887951  0  -1.20459  0  -0.378345  -0.445568  0  2.87788  0
N  N128  1  0.36405069  0.29718791  0.82682645  1  0  -0.476345  0  2.629532  0  0  -0.451825  0  2.881293  0  0  -0.461549  0  2.887612  0  -1.204285  0  -0.378342  -0.445519  0  2.877557  0
N  N129  1  0.58124403  0.51316035  0.80548530  1  0  -0.455095  0  2.609293  0  0  -0.433889  0  2.853956  0  0  -0.442846  0  2.862072  0  -1.18928  0  -0.355724  -0.427649  0  2.848418  0
N  N130  1  0.41874657  0.48682321  0.19451529  1  0  -0.455349  0  2.609617  0  0  -0.434176  0  2.854354  0  0  -0.443132  0  2.862461  0  -1.189421  0  -0.355978  -0.427939  0  2.848816  0
O  O131  1  0.69546306  0.85566796  0.44980224  1  0  -0.35113  0  2.271525  0  0  -0.28006  0  2.518  0  0  -0.295367  0  2.519321  0  -1.059793  0  -0.240574  -0.269331  0  2.516709  0
O  O132  1  0.30453727  0.14433356  0.55019604  1  0  -0.351071  0  2.271428  0  0  -0.280076  0  2.517966  0  0  -0.295357  0  2.519272  0  -1.059484  0  -0.240591  -0.269341  0  2.516662  0
O  O133  1  0.52279101  0.65827587  0.45931108  1  0  -0.347813  0  2.287601  0  0  -0.280213  0  2.540778  0  0  -0.294673  0  2.540493  0  -1.063026  0  -0.249929  -0.270487  0  2.540774  0
O  O134  1  0.47720747  0.34172654  0.54068610  1  0  -0.347828  0  2.287721  0  0  -0.280186  0  2.54083  0  0  -0.294661  0  2.540548  0  -1.062952  0  -0.24995  -0.270458  0  2.540827  0
O  O135  1  0.25696877  0.71060002  0.34427756  1  0  -0.337867  0  2.262374  0  0  -0.265297  0  2.515425  0  0  -0.280476  0  2.515428  0  -1.064275  0  -0.263415  -0.25466  0  2.515204  0
O  O136  1  0.74303104  0.28940329  0.65572096  1  0  -0.337857  0  2.262347  0  0  -0.265251  0  2.51542  0  0  -0.280429  0  2.515421  0  -1.06417  0  -0.263389  -0.254611  0  2.515198  0
O  O137  1  0.20203215  0.65421703  0.10056847  1  0  -0.360119  0  2.255526  0  0  -0.293982  0  2.507004  0  0  -0.308508  0  2.506873  0  -1.066135  0  -0.252655  -0.283597  0  2.506927  0
O  O138  1  0.79796923  0.34578449  0.89943246  1  0  -0.360059  0  2.255625  0  0  -0.293963  0  2.507044  0  0  -0.308489  0  2.50691  0  -1.066127  0  -0.252665  -0.283575  0  2.506973  0
O  O139  1  0.38585674  0.82536176  0.05346158  1  0  -0.328115  0  2.238029  0  0  -0.259268  0  2.476804  0  0  -0.274209  0  2.479273  0  -1.068979  0  -0.224988  -0.248295  0  2.474996  0
O  O140  1  0.61414597  0.17464066  0.94653989  1  0  -0.328128  0  2.238303  0  0  -0.259268  0  2.477055  0  0  -0.274211  0  2.479522  0  -1.069009  0  -0.224981  -0.248312  0  2.475228  0
O  O141  1  0.49319057  0.95351561  0.30720473  1  0  -0.332063  0  2.242162  0  0  -0.264848  0  2.500929  0  0  -0.278919  0  2.49914  0  -1.077179  0  -0.251219  -0.254774  0  2.501927  0
O  O142  1  0.50681187  0.04648591  0.69279410  1  0  -0.332048  0  2.242125  0  0  -0.264869  0  2.500926  0  0  -0.278927  0  2.499151  0  -1.077235  0  -0.251247  -0.254793  0  2.501927  0
