# generated using pymatgen
data_Cd2H18C21(N3O5)2
_symmetry_space_group_name_H-M   'P 1'
_cell_length_a   6.90671131
_cell_length_b   10.24853402
_cell_length_c   17.61197289
_cell_angle_alpha   93.24327256
_cell_angle_beta   90.02444094
_cell_angle_gamma   109.69539525
_symmetry_Int_Tables_number   1
_chemical_formula_structural   Cd2H18C21(N3O5)2
_chemical_formula_sum   'Cd4 H36 C42 N12 O20'
_cell_volume   1171.57669603
_cell_formula_units_Z   2
loop_
 _symmetry_equiv_pos_site_id
 _symmetry_equiv_pos_as_xyz
  1  'x, y, z'
loop_
 _atom_site_type_symbol
 _atom_site_label
 _atom_site_symmetry_multiplicity
 _atom_site_fract_x
 _atom_site_fract_y
 _atom_site_fract_z
 _atom_site_occupancy
 _atom_site_hle17_bader_spin_density
 _atom_site_hle17_ddec_charge
 _atom_site_hle17_ddec_spin_density
 _atom_site_hle17_ddec_sum_bond_order
 _atom_site_hle17_magmom
 _atom_site_hse06_10hf_bader_spin_density
 _atom_site_hse06_10hf_ddec_charge
 _atom_site_hse06_10hf_ddec_spin_density
 _atom_site_hse06_10hf_ddec_sum_bond_order
 _atom_site_hse06_10hf_magmom
 _atom_site_hse06_bader_spin_density
 _atom_site_hse06_ddec_charge
 _atom_site_hse06_ddec_spin_density
 _atom_site_hse06_ddec_sum_bond_order
 _atom_site_hse06_magmom
 _atom_site_pbe_bader_spin_density
 _atom_site_pbe_cm5_charge
 _atom_site_pbe_ddec_charge
 _atom_site_pbe_ddec_spin_density
 _atom_site_pbe_ddec_sum_bond_order
 _atom_site_pbe_magmom
Cd  Cd0  1  0.48002340  0.19827105  0.03137453  1  0  1.200799  0  1.586418  0  0  1.020399  0  2.024537  0  0  1.079271  0  1.969135  0  0  0.77706  0.978342  0  2.062599  0
Cd  Cd1  1  0.28171667  0.80215930  0.46871394  1  0  1.202407  0  1.58581  0  0  1.02199  0  2.024087  0  0  1.080619  0  1.968743  0  0  0.777047  0.977393  0  2.063371  0
Cd  Cd2  1  0.51997681  0.80173075  0.96862485  1  0  1.200727  0  1.586496  0  0  1.020317  0  2.024623  0  0  1.079192  0  1.969218  0  0  0.777054  0.978256  0  2.062675  0
Cd  Cd3  1  0.71828199  0.19783943  0.53128470  1  0  1.202409  0  1.585835  0  0  1.021993  0  2.024132  0  0  1.080618  0  1.968784  0  0  0.777052  0.977396  0  2.063422  0
H  H4  1  0.16606444  0.96263527  0.90082171  1  0  0.133882  0  0.91826  0  0  0.14425  0  0.976005  0  0  0.147492  0  0.971737  0  0  0.15094  0.141995  0  0.979576  0
H  H5  1  0.20379287  0.03733154  0.59964696  1  0  0.133816  0  0.917165  0  0  0.144402  0  0.974589  0  0  0.147643  0  0.970318  0  0  0.150803  0.141888  0  0.977942  0
H  H6  1  0.83394891  0.03738125  0.09917562  1  0  0.133856  0  0.918347  0  0  0.144257  0  0.976054  0  0  0.147499  0  0.971784  0  0  0.150938  0.141992  0  0.979633  0
H  H7  1  0.79620327  0.96266503  0.40035270  1  0  0.133822  0  0.917114  0  0  0.144451  0  0.974493  0  0  0.1477  0  0.970219  0  0  0.150835  0.14194  0  0.977845  0
H  H8  1  0.49839479  0.38047362  0.86447121  1  0  0.109555  0  0.909522  0  0  0.121422  0  0.963899  0  0  0.123189  0  0.962489  0  0  0.143887  0.120144  0  0.964974  0
H  H9  1  0.11875774  0.61936541  0.63540324  1  0  0.10966  0  0.910633  0  0  0.121401  0  0.965141  0  0  0.123188  0  0.96367  0  0  0.144085  0.119998  0  0.966368  0
H  H10  1  0.50160377  0.61953939  0.13551684  1  0  0.109624  0  0.909436  0  0  0.121465  0  0.963831  0  0  0.123242  0  0.962419  0  0  0.143879  0.120166  0  0.964904  0
H  H11  1  0.88123879  0.38062904  0.36459688  1  0  0.109675  0  0.910785  0  0  0.121412  0  0.965293  0  0  0.123202  0  0.963817  0  0  0.144034  0.12001  0  0.96652  0
H  H12  1  0.97838720  0.06656466  0.71761478  1  0  0.114154  0  0.936148  0  0  0.121239  0  1.005002  0  0  0.123084  0  1.003143  0  0  0.13982  0.119809  0  1.007257  0
H  H13  1  0.91182288  0.93206097  0.78268135  1  0  0.113704  0  0.935686  0  0  0.120979  0  1.004365  0  0  0.122722  0  1.002658  0  0  0.139872  0.119631  0  1.00665  0
H  H14  1  0.02159884  0.93342907  0.28238074  1  0  0.114142  0  0.936196  0  0  0.121227  0  1.005037  0  0  0.123092  0  1.003153  0  0  0.139839  0.119797  0  1.007301  0
H  H15  1  0.08818109  0.06793967  0.21731967  1  0  0.113718  0  0.935678  0  0  0.120981  0  1.004351  0  0  0.122717  0  1.002669  0  0  0.139865  0.119626  0  1.006636  0
H  H16  1  0.94152544  0.45276652  0.22005538  1  0  0.100385  0  0.967217  0  0  0.105927  0  1.038049  0  0  0.109535  0  1.035202  0  0  0.102082  0.103337  0  1.040098  0
H  H17  1  0.48836986  0.54768841  0.28010921  1  0  0.100864  0  0.967179  0  0  0.10638  0  1.037831  0  0  0.110045  0  1.034855  0  0  0.102237  0.103792  0  1.039859  0
H  H18  1  0.05848685  0.54722471  0.77994627  1  0  0.100442  0  0.967348  0  0  0.105955  0  1.038193  0  0  0.109563  0  1.035343  0  0  0.102099  0.103367  0  1.040244  0
H  H19  1  0.51161292  0.45231040  0.71988829  1  0  0.1008  0  0.967213  0  0  0.106343  0  1.037846  0  0  0.110006  0  1.034874  0  0  0.102229  0.103753  0  1.039859  0
H  H20  1  0.18055918  0.66080091  0.29481181  1  0  0.105008  0  0.96699  0  0  0.114236  0  1.026632  0  0  0.117194  0  1.026041  0  0  0.10084  0.112178  0  1.027189  0
H  H21  1  0.51940960  0.33976356  0.20535346  1  0  0.104473  0  0.966697  0  0  0.114324  0  1.025675  0  0  0.117236  0  1.025117  0  0  0.100804  0.112145  0  1.026298  0
H  H22  1  0.81946011  0.33919562  0.70518842  1  0  0.104958  0  0.966994  0  0  0.11424  0  1.026562  0  0  0.117195  0  1.025976  0  0  0.100853  0.112176  0  1.027121  0
H  H23  1  0.48057691  0.66023401  0.79464682  1  0  0.104426  0  0.966687  0  0  0.114281  0  1.025669  0  0  0.117193  0  1.02511  0  0  0.10078  0.112093  0  1.026291  0
H  H24  1  0.32214492  0.88453776  0.23469624  1  0  0.100298  0  0.951396  0  0  0.106944  0  1.019743  0  0  0.110906  0  1.015969  0  0  0.10238  0.104122  0  1.022308  0
H  H25  1  0.43722521  0.11590174  0.26534990  1  0  0.09942  0  0.952463  0  0  0.106942  0  1.019627  0  0  0.110788  0  1.016003  0  0  0.102517  0.104141  0  1.022302  0
H  H26  1  0.67785945  0.11546368  0.76530823  1  0  0.100237  0  0.951501  0  0  0.106937  0  1.019768  0  0  0.110898  0  1.015998  0  0  0.102376  0.104116  0  1.022336  0
H  H27  1  0.56276903  0.88409391  0.73464801  1  0  0.099405  0  0.952489  0  0  0.106931  0  1.01965  0  0  0.110776  0  1.016028  0  0  0.102502  0.104096  0  1.022361  0
H  H28  1  0.99552396  0.69920401  0.02638187  1  0  0.092955  0  0.977826  0  0  0.100059  0  1.049479  0  0  0.103756  0  1.045923  0  0  0.101995  0.097366  0  1.052084  0
H  H29  1  0.29601311  0.30105113  0.47366939  1  0  0.09286  0  0.977925  0  0  0.100245  0  1.049465  0  0  0.103994  0  1.045827  0  0  0.101851  0.097487  0  1.052088  0
H  H30  1  0.00448125  0.30079332  0.97362180  1  0  0.093099  0  0.977726  0  0  0.100204  0  1.04933  0  0  0.103901  0  1.045779  0  0  0.10208  0.097507  0  1.05193  0
H  H31  1  0.70398946  0.69894672  0.52632693  1  0  0.092848  0  0.977887  0  0  0.100238  0  1.049437  0  0  0.103986  0  1.045796  0  0  0.101843  0.097477  0  1.052058  0
H  H32  1  0.28023434  0.41655268  0.04031738  1  0  0.434066  0  0.86939  0  0  0.398786  0  0.940741  0  0  0.410714  0  0.923451  0  0  0.284552  0.390324  0  0.952978  0
H  H33  1  0.86384803  0.58354418  0.45964813  1  0  0.43451  0  0.868978  0  0  0.399208  0  0.940322  0  0  0.411163  0  0.922994  0  0  0.284848  0.390594  0  0.952783  0
H  H34  1  0.71976653  0.58344465  0.95968630  1  0  0.433999  0  0.869484  0  0  0.398743  0  0.940805  0  0  0.410666  0  0.923515  0  0  0.284533  0.390282  0  0.953042  0
H  H35  1  0.13614952  0.41645231  0.54035267  1  0  0.434497  0  0.868996  0  0  0.399196  0  0.940332  0  0  0.411149  0  0.923006  0  0  0.284846  0.390583  0  0.952791  0
H  H36  1  0.16019081  0.31807306  0.10402266  1  0  0.427548  0  0.823293  0  0  0.407872  0  0.883049  0  0  0.416352  0  0.873279  0  0  0.313344  0.401768  0  0.890182  0
H  H37  1  0.84238887  0.68226458  0.39600475  1  0  0.427493  0  0.822679  0  0  0.407397  0  0.883172  0  0  0.415856  0  0.873444  0  0  0.313164  0.401201  0  0.890389  0
H  H38  1  0.83980662  0.68192028  0.89597853  1  0  0.427404  0  0.823178  0  0  0.40768  0  0.883022  0  0  0.416156  0  0.873265  0  0  0.313272  0.401576  0  0.890145  0
H  H39  1  0.15760870  0.31773195  0.60399547  1  0  0.427488  0  0.822667  0  0  0.407396  0  0.883154  0  0  0.415853  0  0.873429  0  0  0.313199  0.401203  0  0.89037  0
C  C40  1  0.23053727  0.06160490  0.87524675  1  0  0.196984  0  3.602856  0  0  0.125768  0  3.874235  0  0  0.141947  0  3.884918  0  0  0.172834  0.10678  0  3.863651  0
C  C41  1  0.16930372  0.93821399  0.62507452  1  0  0.196396  0  3.602256  0  0  0.125321  0  3.873649  0  0  0.14151  0  3.884348  0  0  0.172282  0.114448  0  3.866202  0
C  C42  1  0.76947060  0.93840644  0.12475030  1  0  0.196912  0  3.602858  0  0  0.125675  0  3.874245  0  0  0.141858  0  3.884921  0  0  0.172748  0.106642  0  3.863665  0
C  C43  1  0.83069002  0.06178358  0.37492576  1  0  0.196513  0  3.60234  0  0  0.125404  0  3.873733  0  0  0.141587  0  3.884436  0  0  0.172289  0.11453  0  3.866286  0
C  C44  1  0.39726417  0.27366817  0.85479623  1  0  0.218226  0  3.688806  0  0  0.167157  0  3.975093  0  0  0.177987  0  3.990631  0  0  0.158165  0.1595  0  3.967387  0
C  C45  1  0.12416292  0.72606419  0.64521573  1  0  0.216722  0  3.689935  0  0  0.165654  0  3.976184  0  0  0.176499  0  3.991689  0  0  0.15764  0.158549  0  3.96562  0
C  C46  1  0.60272790  0.72634053  0.14519386  1  0  0.218234  0  3.688564  0  0  0.167205  0  3.974802  0  0  0.178021  0  3.99036  0  0  0.158195  0.159545  0  3.967102  0
C  C47  1  0.87583030  0.27393235  0.35478450  1  0  0.216718  0  3.69013  0  0  0.165639  0  3.97637  0  0  0.176484  0  3.991874  0  0  0.157702  0.158531  0  3.965813  0
C  C48  1  0.03755073  0.99950411  0.75014252  1  0  0.049372  0  3.616664  0  0  -0.036522  0  3.872464  0  0  -0.02775  0  3.879903  0  0  0.066341  -0.050754  0  3.86539  0
C  C49  1  0.96244936  0.00049745  0.24986025  1  0  0.049449  0  3.616679  0  0  -0.036441  0  3.872571  0  0  -0.027686  0  3.880006  0  0  0.066313  -0.050721  0  3.865506  0
C  C50  1  0.95018563  0.56338039  0.11926613  1  0  -0.07868  0  3.779975  0  0  -0.051355  0  4.011948  0  0  -0.061449  0  4.035666  0  0  -0.023105  -0.045041  0  3.996104  0
C  C51  1  0.38626242  0.43694630  0.38082591  1  0  -0.078482  0  3.778334  0  0  -0.051781  0  4.011211  0  0  -0.061829  0  4.03487  0  0  -0.023276  -0.045503  0  3.995409  0
C  C52  1  0.04982189  0.43661578  0.88073920  1  0  -0.07848  0  3.779718  0  0  -0.051202  0  4.011708  0  0  -0.061294  0  4.03543  0  0  -0.023171  -0.044896  0  3.995863  0
C  C53  1  0.61373042  0.56305235  0.61917386  1  0  -0.078572  0  3.778261  0  0  -0.051847  0  4.011158  0  0  -0.061896  0  4.034817  0  0  -0.023281  -0.045572  0  3.995361  0
C  C54  1  0.00510210  0.55260785  0.19476240  1  0  -0.052193  0  3.697952  0  0  -0.078127  0  3.943098  0  0  -0.075371  0  3.961644  0  0  -0.077557  -0.079588  0  3.93038  0
C  C55  1  0.45204020  0.44779965  0.30535595  1  0  -0.052477  0  3.697578  0  0  -0.07823  0  3.943124  0  0  -0.075378  0  3.961432  0  0  -0.077777  -0.080128  0  3.930818  0
C  C56  1  0.99491859  0.44738860  0.80523896  1  0  -0.052203  0  3.698058  0  0  -0.078094  0  3.943188  0  0  -0.075337  0  3.96173  0  0  -0.077495  -0.079556  0  3.930472  0
C  C57  1  0.54794740  0.55220011  0.69464275  1  0  -0.052312  0  3.697463  0  0  -0.078108  0  3.943021  0  0  -0.075258  0  3.961337  0  0  -0.077751  -0.080004  0  3.930728  0
C  C58  1  0.13743817  0.66834423  0.23618233  1  0  -0.072724  0  3.737161  0  0  -0.082939  0  3.989282  0  0  -0.087844  0  4.010067  0  0  -0.090862  -0.079803  0  3.974988  0
C  C59  1  0.46868612  0.33210540  0.26394176  1  0  -0.072408  0  3.735255  0  0  -0.083114  0  3.987579  0  0  -0.08803  0  4.008346  0  0  -0.090955  -0.079811  0  3.973656  0
C  C60  1  0.86257746  0.33165944  0.76381999  1  0  -0.07282  0  3.737264  0  0  -0.083068  0  3.989373  0  0  -0.087976  0  4.010165  0  0  -0.090923  -0.079928  0  3.975081  0
C  C61  1  0.53130185  0.66789220  0.73605796  1  0  -0.072312  0  3.735034  0  0  -0.08301  0  3.987376  0  0  -0.087927  0  4.008145  0  0  -0.090952  -0.079714  0  3.973445  0
C  C62  1  0.21742696  0.79473817  0.20232666  1  0  -0.054438  0  3.715009  0  0  -0.084759  0  3.972847  0  0  -0.081271  0  3.990008  0  0  -0.083202  -0.086564  0  3.960663  0
C  C63  1  0.42226142  0.20563842  0.29772712  1  0  -0.053219  0  3.714437  0  0  -0.083845  0  3.972246  0  0  -0.080265  0  3.989327  0  0  -0.083047  -0.086237  0  3.960623  0
C  C64  1  0.78257941  0.20526439  0.79767673  1  0  -0.054305  0  3.715088  0  0  -0.084666  0  3.972902  0  0  -0.081177  0  3.99006  0  0  -0.083179  -0.086479  0  3.960745  0
C  C65  1  0.57773783  0.79436146  0.70226988  1  0  -0.053304  0  3.71452  0  0  -0.083985  0  3.972307  0  0  -0.080406  0  3.989392  0  0  -0.083103  -0.086357  0  3.960697  0
C  C66  1  0.16722579  0.80535376  0.12630348  1  0  -0.094681  0  3.797095  0  0  -0.069016  0  4.035795  0  0  -0.079522  0  4.059883  0  0  -0.030401  -0.062225  0  4.019467  0
C  C67  1  0.36152331  0.19497201  0.37373834  1  0  -0.095166  0  3.797472  0  0  -0.070155  0  4.037075  0  0  -0.08054  0  4.060975  0  0  -0.030997  -0.063317  0  4.02048  0
C  C68  1  0.83277773  0.19464888  0.87369878  1  0  -0.094716  0  3.797298  0  0  -0.069026  0  4.035958  0  0  -0.079531  0  4.060049  0  0  -0.030419  -0.062243  0  4.019659  0
C  C69  1  0.63847170  0.80503099  0.62625882  1  0  -0.095242  0  3.797526  0  0  -0.070061  0  4.036947  0  0  -0.080444  0  4.060847  0  0  -0.030985  -0.063224  0  4.020342  0
C  C70  1  0.03341418  0.68949218  0.08522554  1  0  -0.06259  0  3.720311  0  0  -0.100971  0  3.971562  0  0  -0.097666  0  3.990741  0  0  -0.082467  -0.102781  0  3.958398  0
C  C71  1  0.34351885  0.31078155  0.41481657  1  0  -0.062652  0  3.719615  0  0  -0.100899  0  3.970395  0  0  -0.097722  0  3.989765  0  0  -0.081652  -0.101908  0  3.956832  0
C  C72  1  0.96658088  0.31050511  0.91477870  1  0  -0.062766  0  3.720464  0  0  -0.101144  0  3.971728  0  0  -0.097829  0  3.990879  0  0  -0.082516  -0.102963  0  3.958574  0
C  C73  1  0.65646978  0.68921737  0.58517924  1  0  -0.062636  0  3.71944  0  0  -0.100966  0  3.97024  0  0  -0.097785  0  3.989604  0  0  -0.08164  -0.101975  0  3.956678  0
C  C74  1  0.79899464  0.44175439  0.07657182  1  0  0.636175  0  3.917449  0  0  0.584934  0  4.205967  0  0  0.619386  0  4.201157  0  0  0.198158  0.561632  0  4.208358  0
C  C75  1  0.35683749  0.55855714  0.42360405  1  0  0.637149  0  3.914443  0  0  0.586211  0  4.20277  0  0  0.620619  0  4.197924  0  0  0.198836  0.562995  0  4.204928  0
C  C76  1  0.20100296  0.55824510  0.92343083  1  0  0.636011  0  3.917269  0  0  0.584769  0  4.20579  0  0  0.619216  0  4.200986  0  0  0.198153  0.561457  0  4.208178  0
C  C77  1  0.64315470  0.44143731  0.57639606  1  0  0.637237  0  3.914452  0  0  0.586294  0  4.202758  0  0  0.620704  0  4.197915  0  0  0.198837  0.563073  0  4.204918  0
C  C78  1  0.26054513  0.93631091  0.08683487  1  0  0.629221  0  3.949627  0  0  0.576904  0  4.242538  0  0  0.611733  0  4.237339  0  0  0.190265  0.553209  0  4.245121  0
C  C79  1  0.32394868  0.06398092  0.41316855  1  0  0.629611  0  3.947861  0  0  0.577531  0  4.240733  0  0  0.612302  0  4.235507  0  0  0.190219  0.554124  0  4.242863  0
C  C80  1  0.73945015  0.06368974  0.91316614  1  0  0.629242  0  3.949605  0  0  0.576892  0  4.242553  0  0  0.611718  0  4.237355  0  0  0.190315  0.553193  0  4.245153  0
C  C81  1  0.67605916  0.93603325  0.58683263  1  0  0.629646  0  3.947892  0  0  0.577489  0  4.240789  0  0  0.612259  0  4.235567  0  0  0.190267  0.554077  0  4.242918  0
N  N82  1  0.36001959  0.17792803  0.90917494  1  0  -0.427947  0  3.222365  0  0  -0.350496  0  3.513489  0  0  -0.375933  0  3.529462  0  0  -0.345484  -0.333558  0  3.505289  0
N  N83  1  0.18272171  0.82210849  0.59099397  1  0  -0.426382  0  3.222146  0  0  -0.348928  0  3.513152  0  0  -0.374324  0  3.529041  0  0  -0.345011  -0.331263  0  3.501453  0
N  N84  1  0.63998906  0.82208778  0.09081780  1  0  -0.427867  0  3.222179  0  0  -0.350409  0  3.5133  0  0  -0.375843  0  3.529262  0  0  -0.345531  -0.333473  0  3.505116  0
N  N85  1  0.81727488  0.17788896  0.40900801  1  0  -0.426407  0  3.222173  0  0  -0.348962  0  3.513214  0  0  -0.374358  0  3.529102  0  0  -0.345031  -0.331304  0  3.50153  0
N  N86  1  0.19334589  0.08729693  0.80351706  1  0  0.019764  0  3.55141  0  0  0.106197  0  3.786637  0  0  0.093149  0  3.812105  0  0  -0.134089  0.139569  0  3.7387  0
N  N87  1  0.10616784  0.91212495  0.69672960  1  0  0.019639  0  3.550448  0  0  0.105496  0  3.786195  0  0  0.092387  0  3.811736  0  0  -0.133203  0.114417  0  3.77065  0
N  N88  1  0.80666044  0.91271134  0.19647925  1  0  0.019693  0  3.55141  0  0  0.106085  0  3.786701  0  0  0.09304  0  3.812167  0  0  -0.134063  0.139555  0  3.738658  0
N  N89  1  0.89382680  0.08787150  0.30327175  1  0  0.019457  0  3.550767  0  0  0.105318  0  3.78652  0  0  0.092207  0  3.812066  0  0  -0.133255  0.114246  0  3.770969  0
N  N90  1  0.29800321  0.22269216  0.78959977  1  0  -0.25443  0  2.825577  0  0  -0.246607  0  3.099343  0  0  -0.254374  0  3.114161  0  0  -0.213585  -0.249582  0  3.084943  0
N  N91  1  0.07559346  0.77665447  0.71044992  1  0  -0.253556  0  2.826119  0  0  -0.245488  0  3.099883  0  0  -0.253261  0  3.114714  0  0  -0.213506  -0.240669  0  3.090107  0
N  N92  1  0.70199051  0.77731115  0.21039286  1  0  -0.254411  0  2.825568  0  0  -0.246568  0  3.099312  0  0  -0.254337  0  3.114137  0  0  -0.213568  -0.249601  0  3.084908  0
N  N93  1  0.92440156  0.22333986  0.28955189  1  0  -0.25348  0  2.826286  0  0  -0.245407  0  3.100053  0  0  -0.253178  0  3.114883  0  0  -0.213474  -0.240587  0  3.090273  0
O  O94  1  0.75561546  0.32305958  0.10516326  1  0  -0.641695  0  1.969628  0  0  -0.577353  0  2.217263  0  0  -0.606673  0  2.20581  0  0  -0.33222  -0.556592  0  2.224258  0
O  O95  1  0.43212721  0.67723950  0.39498294  1  0  -0.642761  0  1.970808  0  0  -0.57832  0  2.218104  0  0  -0.607614  0  2.206791  0  0  -0.332323  -0.556817  0  2.225154  0
O  O96  1  0.24437830  0.67694090  0.89484002  1  0  -0.641598  0  1.96955  0  0  -0.577276  0  2.217201  0  0  -0.606594  0  2.20574  0  0  -0.332193  -0.556529  0  2.224199  0
O  O97  1  0.56786148  0.32275375  0.60501938  1  0  -0.642811  0  1.970706  0  0  -0.578408  0  2.218036  0  0  -0.607687  0  2.206689  0  0  -0.332358  -0.556902  0  2.225084  0
O  O98  1  0.71307966  0.45704989  0.01528323  1  0  -0.645036  0  1.988319  0  0  -0.575412  0  2.216536  0  0  -0.604744  0  2.209096  0  0  -0.316908  -0.55477  0  2.220845  0
O  O99  1  0.25586388  0.54316159  0.48492191  1  0  -0.645647  0  1.986442  0  0  -0.57609  0  2.214196  0  0  -0.605401  0  2.206849  0  0  -0.317184  -0.555028  0  2.218289  0
O  O100  1  0.28691492  0.54294644  0.98471983  1  0  -0.645104  0  1.988225  0  0  -0.575411  0  2.216374  0  0  -0.604757  0  2.208967  0  0  -0.316971  -0.554791  0  2.220691  0
O  O101  1  0.74412441  0.45683087  0.51507696  1  0  -0.645686  0  1.986612  0  0  -0.57609  0  2.214342  0  0  -0.605404  0  2.206991  0  0  -0.31712  -0.555023  0  2.218432  0
O  O102  1  0.28237150  0.92832019  0.01487647  1  0  -0.682755  0  2.038045  0  0  -0.614265  0  2.286674  0  0  -0.644247  0  2.276518  0  0  -0.332504  -0.592991  0  2.292741  0
O  O103  1  0.35364372  0.07179022  0.48513988  1  0  -0.683661  0  2.035528  0  0  -0.615036  0  2.283758  0  0  -0.645028  0  2.273657  0  0  -0.332567  -0.593388  0  2.289851  0
O  O104  1  0.71761097  0.07168668  0.98512488  1  0  -0.682796  0  2.038067  0  0  -0.614279  0  2.28668  0  0  -0.644279  0  2.276566  0  0  -0.332566  -0.592978  0  2.29274  0
O  O105  1  0.64635837  0.92821245  0.51486182  1  0  -0.683663  0  2.035484  0  0  -0.61504  0  2.283764  0  0  -0.645034  0  2.273667  0  0  -0.332595  -0.593396  0  2.289856  0
O  O106  1  0.31858823  0.05262521  0.12589203  1  0  -0.632218  0  1.964467  0  0  -0.563117  0  2.204366  0  0  -0.592604  0  2.195242  0  0  -0.323604  -0.542554  0  2.20991  0
O  O107  1  0.26594571  0.94774404  0.37403262  1  0  -0.633178  0  1.964229  0  0  -0.564455  0  2.204272  0  0  -0.593806  0  2.195152  0  0  -0.323624  -0.543042  0  2.209857  0
O  O108  1  0.68141563  0.94737519  0.87411238  1  0  -0.632191  0  1.964575  0  0  -0.563098  0  2.204503  0  0  -0.592584  0  2.195378  0  0  -0.323597  -0.542529  0  2.210043  0
O  O109  1  0.73406921  0.05226403  0.62596652  1  0  -0.633111  0  1.964302  0  0  -0.564396  0  2.204423  0  0  -0.593738  0  2.195293  0  0  -0.323648  -0.542991  0  2.210007  0
O  O110  1  0.28977923  0.34746002  0.07726618  1  0  -0.844209  0  1.824007  0  0  -0.789623  0  2.021247  0  0  -0.810244  0  1.990616  0  0  -0.583991  -0.774925  0  2.042759  0
O  O111  1  0.94248261  0.65268029  0.42273104  1  0  -0.843934  0  1.823049  0  0  -0.788698  0  2.020685  0  0  -0.809396  0  1.990079  0  0  -0.583699  -0.773976  0  2.042677  0
O  O112  1  0.71021613  0.65252921  0.92273422  1  0  -0.843987  0  1.823899  0  0  -0.789366  0  2.021222  0  0  -0.809978  0  1.990616  0  0  -0.583893  -0.774653  0  2.042711  0
O  O113  1  0.05751600  0.34731831  0.57726930  1  0  -0.843908  0  1.823039  0  0  -0.788666  0  2.020688  0  0  -0.809364  0  1.990088  0  0  -0.583718  -0.773938  0  2.042674  0
