# generated using pymatgen
data_Zn2H10C13(N3O2)2
_symmetry_space_group_name_H-M   'P 1'
_cell_length_a   8.41252782
_cell_length_b   19.17651008
_cell_length_c   19.17782394
_cell_angle_alpha   117.89475758
_cell_angle_beta   98.40748870
_cell_angle_gamma   98.41120956
_symmetry_Int_Tables_number   1
_chemical_formula_structural   Zn2H10C13(N3O2)2
_chemical_formula_sum   'Zn12 H60 C78 N36 O24'
_cell_volume   2622.14984752
_cell_formula_units_Z   6
loop_
 _symmetry_equiv_pos_site_id
 _symmetry_equiv_pos_as_xyz
  1  'x, y, z'
loop_
 _atom_site_type_symbol
 _atom_site_label
 _atom_site_symmetry_multiplicity
 _atom_site_fract_x
 _atom_site_fract_y
 _atom_site_fract_z
 _atom_site_occupancy
 _atom_site_pbe_bader_charge
 _atom_site_pbe_bader_spin_density
 _atom_site_pbe_cm5_charge
 _atom_site_pbe_ddec_charge
 _atom_site_pbe_ddec_spin_density
 _atom_site_pbe_ddec_sum_bond_order
 _atom_site_pbe_magmom
Zn  Zn0  1  0.30946996  0.40636310  0.45489901  1  1.28011  0  0.700684  0.709689  0  2.464626  0
Zn  Zn1  1  0.95006055  0.29920281  0.48438179  1  1.250287  0  0.724579  0.739215  0  2.42032  0
Zn  Zn2  1  0.90333665  0.04845596  0.59367449  1  1.282537  0  0.700083  0.709682  0  2.462721  0
Zn  Zn3  1  0.65113875  0.18517000  0.70081937  1  1.248775  0  0.724243  0.737514  0  2.422044  0
Zn  Zn4  1  0.85474948  0.54523918  0.95151996  1  1.283828  0  0.700598  0.71056  0  2.464506  0
Zn  Zn5  1  0.46584993  0.51557769  0.81486103  1  1.24623  0  0.724397  0.738558  0  2.42156  0
Zn  Zn6  1  0.69052760  0.59363760  0.54510288  1  1.280074  0  0.700682  0.70972  0  2.464644  0
Zn  Zn7  1  0.04993519  0.70079667  0.51561785  1  1.250159  0  0.724606  0.739243  0  2.42025  0
Zn  Zn8  1  0.09666540  0.95154413  0.40632636  1  1.282579  0  0.700071  0.709657  0  2.462816  0
Zn  Zn9  1  0.34886271  0.81483131  0.29918097  1  1.24871  0  0.724204  0.737454  0  2.421996  0
Zn  Zn10  1  0.14525138  0.45476091  0.04847977  1  1.283881  0  0.700612  0.710614  0  2.464457  0
Zn  Zn11  1  0.53415003  0.48442300  0.18513840  1  1.246285  0  0.724377  0.738493  0  2.42164  0
H  H12  1  0.37650568  0.19512800  0.23394529  1  0.054137  0  0.098  0.099141  0  1.019541  0
H  H13  1  0.66175734  0.17557062  0.24015876  1  0.058893  0  0.099985  0.101226  0  1.015395  0
H  H14  1  0.75685514  0.09597942  0.30316690  1  0.06709  0  0.101169  0.110109  0  1.018995  0
H  H15  1  0.55843077  0.03254280  0.35449644  1  0.086552  0  0.09737  0.103352  0  1.02326  0
H  H16  1  0.03852844  0.09288654  0.27249033  1  0.080299  0  0.101859  0.128266  0  1.012349  0
H  H17  1  0.11251666  0.16725758  0.24658731  1  0.052652  0  0.105369  0.129415  0  0.967486  0
H  H18  1  0.48915922  0.52061960  0.65212098  1  0.182905  0  0.144307  0.124289  0  0.985916  0
H  H19  1  0.10125366  0.38214377  0.68476313  1  0.119391  0  0.138154  0.102941  0  0.980655  0
H  H20  1  0.93707049  0.48396424  0.54614413  1  0.163496  0  0.135524  0.10522  0  1.008526  0
H  H21  1  0.53830539  0.27466521  0.42192359  1  0.170128  0  0.136421  0.110786  0  1.024217  0
H  H22  1  0.18146313  0.03887511  0.80491236  1  0.062557  0  0.098538  0.099726  0  1.019945  0
H  H23  1  0.48627214  0.06463508  0.82443511  1  0.076602  0  0.099539  0.099408  0  1.016966  0
H  H24  1  0.66101072  0.20721776  0.90400688  1  0.072452  0  0.101243  0.110369  0  1.019466  0
H  H25  1  0.52607875  0.32200046  0.96741861  1  0.128194  0  0.09731  0.103565  0  1.023002  0
H  H26  1  0.94575098  0.17964184  0.90712869  1  0.067886  0  0.101825  0.128192  0  1.013093  0
H  H27  1  0.94548784  0.07936922  0.83283762  1  0.01462  0  0.105391  0.129685  0  0.967237  0
H  H28  1  0.96857011  0.13143627  0.47932838  1  0.168103  0  0.143981  0.124132  0  0.984599  0
H  H29  1  0.71904081  0.30246718  0.61779515  1  0.141942  0  0.13791  0.103247  0  0.981488  0
H  H30  1  0.45354081  0.06213998  0.51600980  1  0.157289  0  0.136253  0.106545  0  1.007788  0
H  H31  1  0.26404596  0.14724956  0.72528719  1  0.189555  0  0.136692  0.110755  0  1.024274  0
H  H32  1  0.14255329  0.76608985  0.96120147  1  0.059384  0  0.098224  0.099397  0  1.01991  0
H  H33  1  0.42147048  0.75979318  0.93530898  1  0.087085  0  0.099364  0.099562  0  1.016524  0
H  H34  1  0.45332002  0.69672037  0.79267398  1  0.092518  0  0.101083  0.109328  0  1.020755  0
H  H35  1  0.20340777  0.64541547  0.67801978  1  0.089807  0  0.097429  0.102801  0  1.02373  0
H  H36  1  0.76585544  0.72756229  0.82043529  1  0.080868  0  0.101411  0.127588  0  1.011647  0
H  H37  1  0.86574197  0.75352697  0.92072770  1  0.060767  0  0.105532  0.129933  0  0.966602  0
H  H38  1  0.83728941  0.34792677  0.86863494  1  0.176271  0  0.143925  0.123471  0  0.986053  0
H  H39  1  0.41680244  0.31528259  0.69750517  1  0.102568  0  0.137478  0.102682  0  0.981592  0
H  H40  1  0.39081212  0.45371051  0.93784604  1  0.150283  0  0.135999  0.105873  0  1.009163  0
H  H41  1  0.11679961  0.57807450  0.85273860  1  0.180169  0  0.136491  0.110896  0  1.023664  0
H  H42  1  0.62348946  0.80487026  0.76605269  1  0.054142  0  0.098011  0.09913  0  1.019505  0
H  H43  1  0.33823809  0.82442826  0.75983953  1  0.058875  0  0.100002  0.101215  0  1.015402  0
H  H44  1  0.24314211  0.90402067  0.69683208  1  0.06707  0  0.101174  0.110114  0  1.018955  0
H  H45  1  0.44157098  0.96745668  0.64550306  1  0.086556  0  0.097374  0.103376  0  1.02322  0
H  H46  1  0.96146942  0.90711477  0.72751186  1  0.080303  0  0.101825  0.128227  0  1.012352  0
H  H47  1  0.88748360  0.83274372  0.75341503  1  0.052609  0  0.105345  0.129396  0  0.96748  0
H  H48  1  0.51083652  0.47937988  0.34787918  1  0.182857  0  0.144287  0.124293  0  0.985996  0
H  H49  1  0.89874088  0.61785571  0.31523747  1  0.119446  0  0.138205  0.10298  0  0.980633  0
H  H50  1  0.06292615  0.51603463  0.45385476  1  0.163437  0  0.135546  0.105268  0  1.008521  0
H  H51  1  0.46168856  0.72533549  0.57807859  1  0.170146  0  0.136406  0.110807  0  1.024185  0
H  H52  1  0.81853952  0.96112376  0.19508795  1  0.062521  0  0.098539  0.099702  0  1.019954  0
H  H53  1  0.51372992  0.93536500  0.17556522  1  0.076626  0  0.099547  0.099427  0  1.016954  0
H  H54  1  0.33898803  0.79278293  0.09599248  1  0.072447  0  0.101234  0.110352  0  1.019472  0
H  H55  1  0.47391909  0.67799841  0.03257931  1  0.128169  0  0.097325  0.103585  0  1.022927  0
H  H56  1  0.05424957  0.82035764  0.09286969  1  0.06786  0  0.101826  0.128177  0  1.013107  0
H  H57  1  0.05451121  0.92062965  0.16715986  1  0.014628  0  0.105394  0.129694  0  0.967278  0
H  H58  1  0.03142924  0.86856321  0.52067096  1  0.16809  0  0.143969  0.124116  0  0.984571  0
H  H59  1  0.28096004  0.69753291  0.38220510  1  0.141936  0  0.137907  0.103236  0  0.981494  0
H  H60  1  0.54646186  0.93786132  0.48399114  1  0.157193  0  0.136274  0.106559  0  1.007826  0
H  H61  1  0.73595489  0.85275053  0.27471358  1  0.188942  0  0.136694  0.110801  0  1.024249  0
H  H62  1  0.85745236  0.23391024  0.03879961  1  0.059396  0  0.098278  0.099459  0  1.019992  0
H  H63  1  0.57853216  0.24020569  0.06468925  1  0.087056  0  0.099339  0.099501  0  1.01647  0
H  H64  1  0.54668262  0.30327850  0.20732477  1  0.092572  0  0.101104  0.109341  0  1.020733  0
H  H65  1  0.79659308  0.35458461  0.32197995  1  0.089818  0  0.097435  0.102816  0  1.02371  0
H  H66  1  0.23414753  0.27243963  0.17956700  1  0.081172  0  0.101401  0.127571  0  1.011667  0
H  H67  1  0.13426309  0.24647433  0.07927391  1  0.060805  0  0.105547  0.129915  0  0.966563  0
H  H68  1  0.16270934  0.65207392  0.13136598  1  0.176273  0  0.143899  0.123457  0  0.986012  0
H  H69  1  0.58319751  0.68471810  0.30249531  1  0.102567  0  0.13747  0.10269  0  0.981609  0
H  H70  1  0.60918934  0.54629079  0.06215430  1  0.150367  0  0.136029  0.105888  0  1.009111  0
H  H71  1  0.88320065  0.42192680  0.14726219  1  0.180168  0  0.136481  0.110879  0  1.023692  0
C  C72  1  0.35938311  0.08051322  0.32609819  1  -0.014121  0  -0.02465  -0.099962  0  3.936469  0
C  C73  1  0.30587738  0.12703244  0.29195369  1  -0.042998  0  -0.001565  0.132349  0  3.934548  0
C  C74  1  0.41699835  0.15923314  0.26041231  1  -0.024697  0  -0.094876  -0.153942  0  3.988072  0
C  C75  1  0.57757859  0.14813626  0.26368160  1  -0.065697  0  -0.08818  -0.066613  0  4.006928  0
C  C76  1  0.63045783  0.10312773  0.29843493  1  -0.000364  0  -0.097387  -0.094539  0  4.021  0
C  C77  1  0.52109598  0.06918513  0.32849654  1  -0.056788  0  -0.091862  -0.096473  0  3.995924  0
C  C78  1  0.25057453  0.04042152  0.35879577  1  1.506762  0  0.192276  0.563094  0  4.176367  0
C  C79  1  0.13832564  0.14597195  0.29047481  1  -0.026516  0  -0.161872  -0.350784  0  3.942651  0
C  C80  1  0.12946509  0.21502340  0.37221144  1  1.585003  0  0.216586  0.659575  0  4.11209  0
C  C81  1  0.37610879  0.47689626  0.64044485  1  0.984464  0  0.152615  0.154573  0  3.909951  0
C  C82  1  0.17971617  0.40685876  0.65738235  1  0.998586  0  0.141768  0.133116  0  3.985018  0
C  C83  1  0.81451499  0.44322351  0.51642227  1  0.98452  0  0.140373  0.142194  0  3.966611  0
C  C84  1  0.61326478  0.33676017  0.45335015  1  0.986346  0  0.152441  0.163465  0  3.907099  0
C  C85  1  0.27902517  0.24562125  0.91947030  1  0.041781  0  -0.025042  -0.101178  0  3.936524  0
C  C86  1  0.17900404  0.16495627  0.87298700  1  -0.11044  0  -0.000767  0.134649  0  3.933088  0
C  C87  1  0.25789719  0.10122539  0.84078903  1  -0.052154  0  -0.09656  -0.157532  0  3.98871  0
C  C88  1  0.42955980  0.11559162  0.85187197  1  0.006516  0  -0.087427  -0.062612  0  4.006822  0
C  C89  1  0.52745756  0.19534610  0.89686918  1  -0.050043  0  -0.097901  -0.096206  0  4.024449  0
C  C90  1  0.45206750  0.25936053  0.93079779  1  -0.138926  0  -0.091353  -0.095985  0  3.996326  0
C  C91  1  0.21018628  0.31837230  0.95951419  1  1.5182  0  0.192526  0.563422  0  4.178466  0
C  C92  1  0.99252188  0.14452445  0.85407482  1  0.054051  0  -0.161078  -0.350559  0  3.943868  0
C  C93  1  0.91463902  0.15713889  0.78497130  1  1.579656  0  0.214623  0.656635  0  4.115899  0
C  C94  1  0.89923093  0.16345348  0.52304618  1  0.984798  0  0.15224  0.153748  0  3.91202  0
C  C95  1  0.77282436  0.25038799  0.59307062  1  0.964657  0  0.141677  0.132125  0  3.987656  0
C  C96  1  0.37169021  0.07317601  0.55673731  1  1.014344  0  0.13968  0.14124  0  3.96677  0
C  C97  1  0.27686443  0.11658860  0.66319065  1  0.96878  0  0.151845  0.163346  0  3.907819  0
C  C98  1  0.03297217  0.67389969  0.75446650  1  -0.005578  0  -0.025219  -0.101572  0  3.938214  0
C  C99  1  0.01374373  0.70809921  0.83513943  1  -0.01433  0  -0.001447  0.13375  0  3.93258  0
C  C100  1  0.15648222  0.73961908  0.89883247  1  -0.098189  0  -0.095837  -0.156592  0  3.988193  0
C  C101  1  0.31371340  0.73628849  0.88439450  1  -0.071229  0  -0.086521  -0.062131  0  4.004514  0
C  C102  1  0.33170038  0.70150393  0.80461347  1  -0.05256  0  -0.097892  -0.095829  0  4.02197  0
C  C103  1  0.19221849  0.67144861  0.74066619  1  -0.035862  0  -0.09109  -0.094144  0  3.997109  0
C  C104  1  0.89130518  0.64114867  0.68173351  1  1.497969  0  0.192278  0.561977  0  4.179539  0
C  C105  1  0.84768728  0.70961729  0.85557460  1  -0.030667  0  -0.161344  -0.350483  0  3.941195  0
C  C106  1  0.75715938  0.62785539  0.84287377  1  1.563124  0  0.215104  0.658369  0  4.115894  0
C  C107  1  0.73591605  0.35959638  0.83658734  1  0.976347  0  0.153096  0.155364  0  3.910009  0
C  C108  1  0.52263839  0.34264743  0.74959377  1  0.997895  0  0.142022  0.132415  0  3.98836  0
C  C109  1  0.29807109  0.48345887  0.92678598  1  1.000495  0  0.140258  0.142583  0  3.964568  0
C  C110  1  0.16013568  0.54661298  0.88340402  1  0.984791  0  0.151518  0.16316  0  3.910209  0
C  C111  1  0.64061593  0.91948565  0.67390138  1  -0.014121  0  -0.024659  -0.099972  0  3.93645  0
C  C112  1  0.69412197  0.87296704  0.70804670  1  -0.043206  0  -0.001586  0.132327  0  3.934537  0
C  C113  1  0.58299829  0.84076573  0.73958658  1  -0.024487  0  -0.094875  -0.153897  0  3.988042  0
C  C114  1  0.42241805  0.85186261  0.73631676  1  -0.064944  0  -0.088178  -0.066567  0  4.006958  0
C  C115  1  0.36954121  0.89687114  0.70156359  1  -0.001106  0  -0.097371  -0.09455  0  4.020955  0
C  C116  1  0.47890457  0.93081435  0.67150236  1  -0.056797  0  -0.09191  -0.096532  0  3.995964  0
C  C117  1  0.74942571  0.95957735  0.64120387  1  1.506781  0  0.192279  0.563074  0  4.176344  0
C  C118  1  0.86167402  0.85402814  0.70952693  1  -0.026527  0  -0.161778  -0.350683  0  3.942566  0
C  C119  1  0.87053577  0.78497669  0.62779038  1  1.585062  0  0.216591  0.659471  0  4.112033  0
C  C120  1  0.62388696  0.52310322  0.35955531  1  0.984413  0  0.152584  0.154477  0  3.91009  0
C  C121  1  0.82027957  0.59314072  0.34261833  1  0.998585  0  0.141712  0.133087  0  3.985006  0
C  C122  1  0.18548136  0.55677719  0.48357798  1  0.9847  0  0.140391  0.14215  0  3.966602  0
C  C123  1  0.38672886  0.66323992  0.54664964  1  0.986291  0  0.152458  0.163432  0  3.907019  0
C  C124  1  0.72097507  0.75437762  0.08052778  1  0.04172  0  -0.024977  -0.101098  0  3.936421  0
C  C125  1  0.82099531  0.83504321  0.12701234  1  -0.110818  0  -0.000818  0.134602  0  3.933054  0
C  C126  1  0.74210336  0.89877409  0.15921092  1  -0.051706  0  -0.096535  -0.157458  0  3.988711  0
C  C127  1  0.57044105  0.88440847  0.14812880  1  0.006502  0  -0.087427  -0.062654  0  4.006855  0
C  C128  1  0.47254240  0.80465460  0.10313078  1  -0.049739  0  -0.097903  -0.096165  0  4.02435  0
C  C129  1  0.54793275  0.74063834  0.06920029  1  -0.139176  0  -0.091379  -0.096045  0  3.996198  0
C  C130  1  0.78981338  0.68162778  0.04048494  1  1.518222  0  0.192419  0.563278  0  4.178598  0
C  C131  1  0.00747808  0.85547624  0.14592461  1  0.054027  0  -0.161097  -0.350622  0  3.943979  0
C  C132  1  0.08536093  0.84286181  0.21502865  1  1.579664  0  0.214719  0.656825  0  4.115729  0
C  C133  1  0.10076992  0.83654661  0.47695407  1  0.984765  0  0.152257  0.153825  0  3.911947  0
C  C134  1  0.22717499  0.74961149  0.40692924  1  0.964644  0  0.141684  0.132164  0  3.987704  0
C  C135  1  0.62831125  0.92682529  0.44326355  1  1.014411  0  0.139691  0.141265  0  3.966649  0
C  C136  1  0.72313762  0.88341149  0.33681020  1  0.969377  0  0.151735  0.163097  0  3.907928  0
C  C137  1  0.96702929  0.32610162  0.24553384  1  -0.005602  0  -0.025229  -0.101533  0  3.937942  0
C  C138  1  0.98625893  0.29190209  0.16486046  1  -0.014682  0  -0.001516  0.133629  0  3.932483  0
C  C139  1  0.84352374  0.26038161  0.10116735  1  -0.097464  0  -0.095785  -0.156531  0  3.988265  0
C  C140  1  0.68629075  0.26371099  0.11560567  1  -0.071596  0  -0.086541  -0.062094  0  4.004395  0
C  C141  1  0.66830107  0.29849494  0.19538625  1  -0.052523  0  -0.097918  -0.095856  0  4.02196  0
C  C142  1  0.80778326  0.32855087  0.25933383  1  -0.03589  0  -0.091067  -0.094134  0  3.997015  0
C  C143  1  0.10869628  0.35885263  0.31826682  1  1.497947  0  0.192283  0.561893  0  4.179492  0
C  C144  1  0.15231538  0.29038402  0.14442634  1  -0.031053  0  -0.161354  -0.350431  0  3.941102  0
C  C145  1  0.24284658  0.37214530  0.15712552  1  1.563365  0  0.215177  0.65846  0  4.11593  0
C  C146  1  0.26408270  0.64040431  0.16341306  1  0.976433  0  0.153109  0.155407  0  3.909872  0
C  C147  1  0.47736037  0.65735327  0.25040663  1  0.997908  0  0.142043  0.132414  0  3.988409  0
C  C148  1  0.70193157  0.51654244  0.07321443  1  1.000488  0  0.140204  0.142523  0  3.964548  0
C  C149  1  0.83986579  0.45338832  0.11659632  1  0.984818  0  0.151537  0.163152  0  3.910274  0
N  N150  1  0.14528157  0.38377111  0.57836749  1  -0.793176  0  -0.249319  -0.198897  0  3.531548  0
N  N151  1  0.27147424  0.42876241  0.56783409  1  -0.779706  0  -0.243761  -0.182727  0  3.49819  0
N  N152  1  0.32370495  0.46481422  0.69845610  1  -1.260474  0  -0.35634  -0.328899  0  3.549487  0
N  N153  1  0.54880937  0.40060692  0.46956788  1  -0.754252  0  -0.251267  -0.17786  0  3.513288  0
N  N154  1  0.67753917  0.46884345  0.51022406  1  -0.782726  0  -0.245947  -0.204717  0  3.469188  0
N  N155  1  0.78040745  0.36106902  0.48169016  1  -1.294842  0  -0.36406  -0.328645  0  3.586294  0
N  N156  1  0.76170117  0.19450301  0.61622164  1  -0.788927  0  -0.24807  -0.197715  0  3.531505  0
N  N157  1  0.84292699  0.13900314  0.57124361  1  -0.769096  0  -0.24461  -0.18396  0  3.498251  0
N  N158  1  0.85873940  0.23350027  0.53507714  1  -1.247939  0  -0.356152  -0.327429  0  3.552834  0
N  N159  1  0.14856763  0.06897296  0.59935195  1  -0.785163  0  -0.249646  -0.17693  0  3.511664  0
N  N160  1  0.20907084  0.04138145  0.53111957  1  -0.789627  0  -0.246803  -0.205476  0  3.470042  0
N  N161  1  0.41971774  0.12060050  0.63889057  1  -1.283945  0  -0.364102  -0.328484  0  3.583861  0
N  N162  1  0.56723734  0.42167299  0.80549914  1  -0.790931  0  -0.249863  -0.19882  0  3.531896  0
N  N163  1  0.70391670  0.43221644  0.86103876  1  -0.761137  0  -0.243493  -0.18292  0  3.49718  0
N  N164  1  0.62550283  0.30157423  0.76650331  1  -1.248113  0  -0.356249  -0.327881  0  3.552331  0
N  N165  1  0.07937371  0.53044226  0.93103030  1  -0.773874  0  -0.251295  -0.179418  0  3.516291  0
N  N166  1  0.16726469  0.48972047  0.95859802  1  -0.790679  0  -0.245525  -0.204847  0  3.467899  0
N  N167  1  0.29884705  0.51819454  0.87937381  1  -1.278161  0  -0.363947  -0.328101  0  3.585703  0
N  N168  1  0.85471387  0.61622776  0.42163288  1  -0.793038  0  -0.249294  -0.198884  0  3.531536  0
N  N169  1  0.72852150  0.57123707  0.43216659  1  -0.779777  0  -0.243776  -0.182747  0  3.498189  0
N  N170  1  0.67629199  0.53518526  0.30154465  1  -1.260376  0  -0.356299  -0.32881  0  3.549474  0
N  N171  1  0.45118818  0.59939378  0.53043349  1  -0.754307  0  -0.251328  -0.177936  0  3.513248  0
N  N172  1  0.32245777  0.53115603  0.48977617  1  -0.782531  0  -0.245963  -0.204728  0  3.469075  0
N  N173  1  0.21958829  0.63893046  0.51830947  1  -1.295078  0  -0.364038  -0.328557  0  3.586162  0
N  N174  1  0.23830089  0.80549708  0.38377868  1  -0.788914  0  -0.248072  -0.197747  0  3.531555  0
N  N175  1  0.15707267  0.86099695  0.42875657  1  -0.769089  0  -0.244618  -0.184014  0  3.498289  0
N  N176  1  0.14125995  0.76649920  0.46492221  1  -1.247894  0  -0.356127  -0.327426  0  3.552846  0
N  N177  1  0.85143443  0.93102713  0.40064890  1  -0.785258  0  -0.249667  -0.176902  0  3.511698  0
N  N178  1  0.79093121  0.95861864  0.46888075  1  -0.789642  0  -0.246788  -0.205463  0  3.469942  0
N  N179  1  0.58028342  0.87940020  0.36111051  1  -1.283795  0  -0.364035  -0.328334  0  3.583693  0
N  N180  1  0.43276141  0.57832770  0.19450074  1  -0.790895  0  -0.249839  -0.198784  0  3.531961  0
N  N181  1  0.29608205  0.56778426  0.13896164  1  -0.761273  0  -0.243482  -0.182911  0  3.49716  0
N  N182  1  0.37449623  0.69842708  0.23349792  1  -1.248123  0  -0.356276  -0.327939  0  3.55237  0
N  N183  1  0.92062745  0.46955843  0.06897026  1  -0.774076  0  -0.251303  -0.179403  0  3.516273  0
N  N184  1  0.83273678  0.51028084  0.04140232  1  -0.790537  0  -0.245485  -0.204803  0  3.467854  0
N  N185  1  0.70115441  0.48180677  0.12062705  1  -1.278122  0  -0.363942  -0.328055  0  3.585747  0
O  O186  1  0.30391596  0.98841398  0.37549838  1  -1.17446  0  -0.335764  -0.568896  0  2.308877  0
O  O187  1  0.11123045  0.05499683  0.36925495  1  -1.172354  0  -0.321019  -0.543014  0  2.156992  0
O  O188  1  0.98322771  0.21387019  0.38528537  1  -1.161755  0  -0.325779  -0.534882  0  2.356503  0
O  O189  1  0.25812624  0.26929259  0.41970064  1  -1.207365  0  -0.325248  -0.581088  0  2.263017  0
O  O190  1  0.31547913  0.38708123  0.01159287  1  -1.178998  0  -0.336398  -0.569568  0  2.311333  0
O  O191  1  0.05626751  0.31420443  0.94484848  1  -1.180182  0  -0.320782  -0.54297  0  2.158511  0
O  O192  1  0.76961169  0.17141233  0.78613624  1  -1.160549  0  -0.324759  -0.532298  0  2.356981  0
O  O193  1  0.98898255  0.15024346  0.73065929  1  -1.207796  0  -0.324428  -0.579746  0  2.265057  0
O  O194  1  0.92794739  0.62454054  0.61302725  1  -1.169029  0  -0.33674  -0.569005  0  2.313265  0
O  O195  1  0.74156714  0.63056510  0.68587589  1  -1.165761  0  -0.32073  -0.542019  0  2.15539  0
O  O196  1  0.59784275  0.61471363  0.82858092  1  -1.134783  0  -0.323954  -0.533077  0  2.358422  0
O  O197  1  0.83840456  0.58041285  0.84970843  1  -1.2084  0  -0.325353  -0.580884  0  2.264269  0
O  O198  1  0.69608609  0.01158610  0.62450247  1  -1.174436  0  -0.335786  -0.568904  0  2.308817  0
O  O199  1  0.88876980  0.94500204  0.63074417  1  -1.172381  0  -0.321014  -0.542999  0  2.15698  0
O  O200  1  0.01677373  0.78612868  0.61471644  1  -1.161775  0  -0.325802  -0.53488  0  2.356575  0
O  O201  1  0.74187551  0.73070688  0.58030199  1  -1.207327  0  -0.325258  -0.581035  0  2.262957  0
O  O202  1  0.68452292  0.61291886  0.98840537  1  -1.179008  0  -0.336359  -0.569485  0  2.311383  0
O  O203  1  0.94373365  0.68579626  0.05515207  1  -1.180152  0  -0.32074  -0.54291  0  2.158512  0
O  O204  1  0.23039038  0.82859019  0.21386419  1  -1.16057  0  -0.324755  -0.532333  0  2.356913  0
O  O205  1  0.01101951  0.84975663  0.26934000  1  -1.207765  0  -0.324507  -0.579832  0  2.264988  0
O  O206  1  0.07205377  0.37546015  0.38697330  1  -1.169029  0  -0.336745  -0.568941  0  2.31324  0
O  O207  1  0.25843583  0.36943681  0.31412431  1  -1.16578  0  -0.320722  -0.542004  0  2.155367  0
O  O208  1  0.40216411  0.38528645  0.17141868  1  -1.13507  0  -0.323951  -0.533092  0  2.358436  0
O  O209  1  0.16159990  0.41958723  0.15028996  1  -1.208348  0  -0.325433  -0.580986  0  2.264359  0
