# generated using pymatgen
data_Ag2H18C10N4O3
_symmetry_space_group_name_H-M   'P 1'
_cell_length_a   8.00458535
_cell_length_b   10.19333323
_cell_length_c   9.48684874
_cell_angle_alpha   100.37003858
_cell_angle_beta   104.00790529
_cell_angle_gamma   97.56531145
_symmetry_Int_Tables_number   1
_chemical_formula_structural   Ag2H18C10N4O3
_chemical_formula_sum   'Ag4 H36 C20 N8 O6'
_cell_volume   726.21963112
_cell_formula_units_Z   2
loop_
 _symmetry_equiv_pos_site_id
 _symmetry_equiv_pos_as_xyz
  1  'x, y, z'
loop_
 _atom_site_type_symbol
 _atom_site_label
 _atom_site_symmetry_multiplicity
 _atom_site_fract_x
 _atom_site_fract_y
 _atom_site_fract_z
 _atom_site_occupancy
 _atom_site_hle17_bader_spin_density
 _atom_site_hle17_ddec_charge
 _atom_site_hle17_ddec_spin_density
 _atom_site_hle17_ddec_sum_bond_order
 _atom_site_hle17_magmom
 _atom_site_hse06_10hf_bader_spin_density
 _atom_site_hse06_10hf_ddec_charge
 _atom_site_hse06_10hf_ddec_spin_density
 _atom_site_hse06_10hf_ddec_sum_bond_order
 _atom_site_hse06_10hf_magmom
 _atom_site_hse06_bader_spin_density
 _atom_site_hse06_ddec_charge
 _atom_site_hse06_ddec_spin_density
 _atom_site_hse06_ddec_sum_bond_order
 _atom_site_hse06_magmom
 _atom_site_pbe_bader_spin_density
 _atom_site_pbe_cm5_charge
 _atom_site_pbe_ddec_charge
 _atom_site_pbe_ddec_spin_density
 _atom_site_pbe_ddec_sum_bond_order
 _atom_site_pbe_magmom
Ag  Ag0  1  0.21757871  0.85346971  0.71581379  1  0  0.495089  0  1.365049  0  0  0.358405  0  1.790063  0  0  0.387905  0  1.744169  0  0  0.43954  0.337492  0  1.821193  0
Ag  Ag1  1  0.78484882  0.15252081  0.29667474  1  0  0.49422  0  1.358924  0  0  0.35764  0  1.782546  0  0  0.387327  0  1.736859  0  0  0.439572  0.336553  0  1.813552  0
Ag  Ag2  1  0.49789509  0.50553541  0.50925405  1  0  0.507195  0  1.481291  0  0  0.363111  0  1.904832  0  0  0.396618  0  1.86062  0  0  0.470911  0.339651  0  1.936477  0
Ag  Ag3  1  0.00002714  0.00391847  0.50817858  1  0  0.448027  0  1.667682  0  0  0.306737  0  2.152543  0  0  0.341959  0  2.096278  0  0  0.45314  0.285696  0  2.188728  0
H  H4  1  0.17515551  0.41177588  0.28923493  1  0  0.093997  0  0.971621  0  0  0.114417  0  1.037692  0  0  0.116791  0  1.036181  0  0  0.081823  0.113033  0  1.038091  0
H  H5  1  0.00104736  0.41161935  0.37506973  1  0  0.086023  0  0.972565  0  0  0.106185  0  1.042538  0  0  0.107338  0  1.042731  0  0  0.075657  0.10491  0  1.043283  0
H  H6  1  0.15151417  0.56336003  0.39971948  1  0  0.0907  0  0.961464  0  0  0.111716  0  1.028032  0  0  0.113316  0  1.027481  0  0  0.079111  0.110352  0  1.029031  0
H  H7  1  0.04453889  0.55609366  0.12469682  1  0  0.07301  0  0.960327  0  0  0.089298  0  1.025479  0  0  0.090674  0  1.024865  0  0  0.091926  0.087837  0  1.02679  0
H  H8  1  0.88292803  0.41134082  0.10371185  1  0  0.062218  0  0.943744  0  0  0.080188  0  1.00789  0  0  0.081943  0  1.006139  0  0  0.088948  0.078786  0  1.009503  0
H  H9  1  0.81135280  0.66461487  0.01573531  1  0  0.067802  0  0.931032  0  0  0.088577  0  0.989687  0  0  0.089262  0  0.990444  0  0  0.091911  0.088025  0  0.989135  0
H  H10  1  0.64654229  0.52782192  0.00752474  1  0  0.078692  0  0.93596  0  0  0.099982  0  0.992715  0  0  0.100232  0  0.994281  0  0  0.09807  0.099756  0  0.991753  0
H  H11  1  0.51613941  0.73216064  0.99120700  1  0  0.113229  0  0.972326  0  0  0.134707  0  1.034946  0  0  0.137311  0  1.032953  0  0  0.085928  0.13267  0  1.036632  0
H  H12  1  0.67027784  0.82735192  0.15986298  1  0  0.0738  0  0.990678  0  0  0.090841  0  1.070182  0  0  0.092133  0  1.069662  0  0  0.073956  0.089996  0  1.070307  0
H  H13  1  0.50989517  0.69165172  0.16409027  1  0  0.097456  0  0.94816  0  0  0.119942  0  1.006912  0  0  0.121532  0  1.006925  0  0  0.083432  0.118725  0  1.007092  0
H  H14  1  0.81716082  0.59395306  0.73278426  1  0  0.092958  0  0.971092  0  0  0.1134  0  1.037779  0  0  0.115806  0  1.036099  0  0  0.081273  0.111965  0  1.038341  0
H  H15  1  0.83875970  0.44253111  0.62056530  1  0  0.090428  0  0.961404  0  0  0.111814  0  1.027394  0  0  0.113392  0  1.026868  0  0  0.079184  0.110506  0  1.028325  0
H  H16  1  0.98878894  0.59423481  0.64417640  1  0  0.087218  0  0.971758  0  0  0.107245  0  1.041404  0  0  0.108346  0  1.04175  0  0  0.076051  0.106033  0  1.041993  0
H  H17  1  0.95046095  0.44720287  0.89381711  1  0  0.071975  0  0.961579  0  0  0.089068  0  1.02581  0  0  0.090364  0  1.025246  0  0  0.091811  0.087654  0  1.027067  0
H  H18  1  0.10971081  0.59358220  0.91576835  1  0  0.062237  0  0.944401  0  0  0.079784  0  1.008711  0  0  0.081574  0  1.006923  0  0  0.089213  0.078406  0  1.010255  0
H  H19  1  0.34907949  0.47926291  0.00905672  1  0  0.079622  0  0.934444  0  0  0.100661  0  0.99123  0  0  0.100952  0  0.992757  0  0  0.098436  0.10037  0  0.990346  0
H  H20  1  0.18642693  0.34081622  0.00040934  1  0  0.067278  0  0.931979  0  0  0.088376  0  0.989873  0  0  0.089129  0  0.990554  0  0  0.091783  0.087803  0  0.989331  0
H  H21  1  0.48303414  0.27643479  0.02316543  1  0  0.112984  0  0.972344  0  0  0.134549  0  1.035085  0  0  0.13711  0  1.033108  0  0  0.086318  0.13251  0  1.036791  0
H  H22  1  0.48744466  0.31866022  0.85066924  1  0  0.098185  0  0.949237  0  0  0.119908  0  1.008503  0  0  0.121444  0  1.008592  0  0  0.083041  0.118726  0  1.008632  0
H  H23  1  0.32946025  0.18108166  0.85423426  1  0  0.074218  0  0.989874  0  0  0.091284  0  1.069013  0  0  0.092574  0  1.068528  0  0  0.074252  0.090438  0  1.069101  0
H  H24  1  0.60230727  0.93424612  0.40715277  1  0  0.050496  0  0.968705  0  0  0.066914  0  1.038292  0  0  0.066375  0  1.039312  0  0  0.094122  0.067091  0  1.037739  0
H  H25  1  0.40370375  0.99231283  0.34094175  1  0  0.072756  0  0.91167  0  0  0.095608  0  0.962828  0  0  0.095761  0  0.963184  0  0  0.107617  0.095338  0  0.962717  0
H  H26  1  0.59478078  0.01672132  0.66924568  1  0  0.074391  0  0.911922  0  0  0.096447  0  0.964068  0  0  0.096746  0  0.964275  0  0  0.107617  0.096089  0  0.96404  0
H  H27  1  0.39511190  0.07333679  0.60242438  1  0  0.049808  0  0.967614  0  0  0.065825  0  1.037846  0  0  0.065448  0  1.038708  0  0  0.093367  0.065934  0  1.037323  0
H  H28  1  0.71102950  0.17835829  0.54975523  1  0  0.285567  0  0.927335  0  0  0.278458  0  0.977901  0  0  0.283587  0  0.976204  0  0  0.283723  0.274545  0  0.979679  0
H  H29  1  0.53614989  0.21361863  0.43598782  1  0  0.295241  0  0.918977  0  0  0.2816  0  0.98178  0  0  0.288757  0  0.97626  0  0  0.283989  0.275976  0  0.986628  0
H  H30  1  0.46483101  0.79502270  0.57471946  1  0  0.292359  0  0.922421  0  0  0.277939  0  0.987083  0  0  0.285177  0  0.981305  0  0  0.281564  0.272289  0  0.991996  0
H  H31  1  0.28793999  0.82884284  0.46145867  1  0  0.286565  0  0.926847  0  0  0.279285  0  0.977847  0  0  0.2845  0  0.975981  0  0  0.283497  0.275335  0  0.979679  0
H  H32  1  0.05021370  0.07980012  0.89356594  1  0  0.072582  0  0.954637  0  0  0.089744  0  1.019402  0  0  0.089823  0  1.020153  0  0  0.10472  0.089593  0  1.019176  0
H  H33  1  0.20233337  0.02569745  0.03189811  1  0  0.062724  0  0.909177  0  0  0.088511  0  0.957135  0  0  0.088029  0  0.958161  0  0  0.107142  0.089006  0  0.956484  0
H  H34  1  0.80289579  0.97826329  0.98274266  1  0  0.062503  0  0.907669  0  0  0.088579  0  0.955378  0  0  0.088076  0  0.956434  0  0  0.107766  0.089045  0  0.954777  0
H  H35  1  0.95526952  0.92517927  0.12188032  1  0  0.072369  0  0.957615  0  0  0.089558  0  1.022279  0  0  0.089651  0  1.023048  0  0  0.104014  0.089415  0  1.022002  0
H  H36  1  0.92064451  0.85067328  0.77656778  1  0  0.298965  0  0.929472  0  0  0.288191  0  0.984147  0  0  0.294364  0  0.980955  0  0  0.285444  0.283809  0  0.986409  0
H  H37  1  0.04421753  0.79323253  0.91102088  1  0  0.282547  0  0.896203  0  0  0.281679  0  0.937345  0  0  0.285666  0  0.936693  0  0  0.298477  0.279083  0  0.937504  0
H  H38  1  0.96090818  0.21124439  0.10241180  1  0  0.284771  0  0.895831  0  0  0.283804  0  0.937045  0  0  0.287802  0  0.936392  0  0  0.300262  0.281178  0  0.937258  0
H  H39  1  0.08287076  0.15482233  0.23847756  1  0  0.299104  0  0.927451  0  0  0.289319  0  0.980855  0  0  0.295534  0  0.977552  0  0  0.285854  0.28493  0  0.983119  0
C  C40  1  0.76339069  0.73391536  0.48244296  1  0  0.708459  0  3.924069  0  0  0.648631  0  4.209582  0  0  0.683834  0  4.211593  0  0  0.305928  0.625249  0  4.207109  0
C  C41  1  0.71539131  0.52874543  0.29874078  1  0  0.566204  0  3.794661  0  0  0.528319  0  4.061504  0  0  0.557465  0  4.065457  0  0  0.22943  0.508953  0  4.058007  0
C  C42  1  0.83713938  0.59734481  0.22117674  1  0  -0.125539  0  3.601615  0  0  -0.094775  0  3.821189  0  0  -0.104156  0  3.837263  0  0  -0.014891  -0.088514  0  3.809995  0
C  C43  1  0.94317982  0.73382278  0.31356668  1  0  0.55825  0  3.813875  0  0  0.519636  0  4.083468  0  0  0.548669  0  4.087098  0  0  0.226393  0.500105  0  4.080109  0
C  C44  1  0.07800826  0.47052490  0.31824161  1  0  -0.291042  0  3.724208  0  0  -0.367138  0  3.970619  0  0  -0.370479  0  3.982615  0  0  -0.261033  -0.364466  0  3.962507  0
C  C45  1  0.96237755  0.50401122  0.18215236  1  0  -0.09868  0  3.726815  0  0  -0.145183  0  3.986778  0  0  -0.144942  0  4.000794  0  0  -0.170883  -0.144723  0  3.977035  0
C  C46  1  0.72121480  0.62624495  0.07637531  1  0  -0.070433  0  3.621802  0  0  -0.110408  0  3.875055  0  0  -0.110598  0  3.889965  0  0  -0.151872  -0.110175  0  3.864831  0
C  C47  1  0.59795233  0.72534507  0.09961246  1  0  -0.297433  0  3.712735  0  0  -0.37536  0  3.958176  0  0  -0.378143  0  3.968832  0  0  -0.257523  -0.373305  0  3.950955  0
C  C48  1  0.23510842  0.27568223  0.53529743  1  0  0.709685  0  3.924777  0  0  0.650365  0  4.209531  0  0  0.685593  0  4.211465  0  0  0.306038  0.626963  0  4.207084  0
C  C49  1  0.27800854  0.48044968  0.71849558  1  0  0.56662  0  3.793656  0  0  0.527921  0  4.061606  0  0  0.557069  0  4.065519  0  0  0.230242  0.508602  0  4.058074  0
C  C50  1  0.15772037  0.40979706  0.79576015  1  0  -0.123202  0  3.596357  0  0  -0.092547  0  3.816865  0  0  -0.10205  0  3.833568  0  0  -0.014169  -0.086387  0  3.80573  0
C  C51  1  0.05355241  0.27306991  0.70258115  1  0  0.55815  0  3.808284  0  0  0.518233  0  4.080537  0  0  0.547154  0  4.084297  0  0  0.225368  0.498732  0  4.077141  0
C  C52  1  0.91338559  0.53512498  0.70183427  1  0  -0.290042  0  3.724399  0  0  -0.366562  0  3.971139  0  0  -0.369809  0  3.983052  0  0  -0.260221  -0.36394  0  3.963023  0
C  C53  1  0.03110103  0.50106839  0.83651827  1  0  -0.098027  0  3.724045  0  0  -0.144149  0  3.983315  0  0  -0.143932  0  3.997445  0  0  -0.169883  -0.143708  0  3.97365  0
C  C54  1  0.27547836  0.38071443  0.93967638  1  0  -0.072546  0  3.626859  0  0  -0.112151  0  3.880109  0  0  -0.112367  0  3.894869  0  0  -0.152646  -0.111899  0  3.869959  0
C  C55  1  0.40035306  0.28331396  0.91512952  1  0  -0.297334  0  3.716721  0  0  -0.374954  0  3.961887  0  0  -0.37764  0  3.972568  0  0  -0.257355  -0.372948  0  3.954632  0
C  C56  1  0.52318253  0.01045857  0.43334730  1  0  0.04318  0  3.641311  0  0  -0.014953  0  3.897282  0  0  -0.010772  0  3.912013  0  0  -0.082943  -0.017597  0  3.88736  0
C  C57  1  0.47518357  0.99770730  0.57681690  1  0  0.04289  0  3.639954  0  0  -0.015557  0  3.897103  0  0  -0.011531  0  3.911747  0  0  -0.083546  -0.018069  0  3.887176  0
C  C58  1  0.06718050  0.00206707  0.95984570  1  0  0.036084  0  3.641304  0  0  -0.022583  0  3.901463  0  0  -0.018811  0  3.916051  0  0  -0.078461  -0.025471  0  3.892538  0
C  C59  1  0.93793247  0.00250758  0.05507533  1  0  0.040119  0  3.637593  0  0  -0.018888  0  3.897739  0  0  -0.015075  0  3.912258  0  0  -0.078032  -0.021825  0  3.88888  0
N  N60  1  0.67565144  0.60412094  0.41578063  1  0  -0.628862  0  3.292335  0  0  -0.536501  0  3.581636  0  0  -0.573066  0  3.591445  0  0  -0.415362  -0.512327  0  3.574905  0
N  N61  1  0.89211827  0.79748922  0.42985303  1  0  -0.648322  0  3.332704  0  0  -0.55287  0  3.623439  0  0  -0.589642  0  3.632545  0  0  -0.422082  -0.528073  0  3.615848  0
N  N62  1  0.32027628  0.40615569  0.60226538  1  0  -0.627912  0  3.291515  0  0  -0.535047  0  3.580424  0  0  -0.571526  0  3.590183  0  0  -0.415421  -0.510914  0  3.573661  0
N  N63  1  0.10640049  0.21061737  0.58673248  1  0  -0.649725  0  3.332958  0  0  -0.553726  0  3.623466  0  0  -0.590528  0  3.632683  0  0  -0.421878  -0.52892  0  3.615787  0
N  N64  1  0.62293003  0.14738532  0.44558320  1  0  -0.600791  0  3.194161  0  0  -0.522065  0  3.442431  0  0  -0.546113  0  3.444869  0  0  -0.645222  -0.505796  0  3.441063  0
N  N65  1  0.37697256  0.86044076  0.56514769  1  0  -0.603742  0  3.19879  0  0  -0.523321  0  3.444135  0  0  -0.547566  0  3.44702  0  0  -0.645664  -0.506982  0  3.442674  0
N  N66  1  0.04162790  0.87001848  0.85474673  1  0  -0.593089  0  3.191447  0  0  -0.517958  0  3.44394  0  0  -0.540695  0  3.447133  0  0  -0.637475  -0.502121  0  3.441517  0
N  N67  1  0.96257495  0.13494494  0.15937021  1  0  -0.596146  0  3.191749  0  0  -0.522069  0  3.444965  0  0  -0.54489  0  3.448107  0  0  -0.638546  -0.506157  0  3.44258  0
O  O68  1  0.72993258  0.79646800  0.59669591  1  0  -0.629004  0  1.944069  0  0  -0.573247  0  2.17261  0  0  -0.596154  0  2.162435  0  0  -0.316014  -0.55676  0  2.178441  0
O  O69  1  0.65058636  0.40566793  0.25256758  1  0  -0.580639  0  1.940506  0  0  -0.533024  0  2.18294  0  0  -0.555232  0  2.173291  0  0  -0.308973  -0.517359  0  2.188451  0
O  O70  1  0.07153378  0.78898245  0.27758332  1  0  -0.577866  0  1.900241  0  0  -0.529517  0  2.117011  0  0  -0.550477  0  2.109532  0  0  -0.315837  -0.515272  0  2.121543  0
O  O71  1  0.27091783  0.21404903  0.42182081  1  0  -0.629746  0  1.945867  0  0  -0.574881  0  2.175372  0  0  -0.597792  0  2.165005  0  0  -0.315557  -0.558365  0  2.181337  0
O  O72  1  0.33990443  0.60405044  0.76468690  1  0  -0.583141  0  1.947889  0  0  -0.534331  0  2.192781  0  0  -0.556586  0  2.182848  0  0  -0.310165  -0.51867  0  2.198519  0
O  O73  1  0.92530377  0.21646097  0.73755358  1  0  -0.577689  0  1.892301  0  0  -0.528634  0  2.109234  0  0  -0.549541  0  2.101821  0  0  -0.316212  -0.51441  0  2.1137  0
