# generated using pymatgen
data_MgB2H16(C2N)4
_symmetry_space_group_name_H-M   'P 1'
_cell_length_a   7.47295656
_cell_length_b   7.47296813
_cell_length_c   10.31970097
_cell_angle_alpha   90.00002001
_cell_angle_beta   89.99994287
_cell_angle_gamma   91.82307520
_symmetry_Int_Tables_number   1
_chemical_formula_structural   MgB2H16(C2N)4
_chemical_formula_sum   'Mg2 B4 H32 C16 N8'
_cell_volume   576.01370651
_cell_formula_units_Z   2
loop_
 _symmetry_equiv_pos_site_id
 _symmetry_equiv_pos_as_xyz
  1  'x, y, z'
loop_
 _atom_site_type_symbol
 _atom_site_label
 _atom_site_symmetry_multiplicity
 _atom_site_fract_x
 _atom_site_fract_y
 _atom_site_fract_z
 _atom_site_occupancy
 _atom_site_pbe_bader_spin_density
 _atom_site_pbe_cm5_charge
 _atom_site_pbe_ddec_charge
 _atom_site_pbe_ddec_spin_density
 _atom_site_pbe_ddec_sum_bond_order
 _atom_site_pbe_magmom
Mg  Mg0  1  0.24999834  0.74999995  0.75000042  1  0  0.754096  1.12646  0  1.545472  0
Mg  Mg1  1  0.75000011  0.24999925  0.25000022  1  0  0.754106  1.126368  0  1.545569  0
B  B2  1  0.49197756  0.50802334  0.75000030  1  0  -0.612356  -0.336565  0  3.993986  0
B  B3  1  0.00802453  0.99197780  0.75000151  1  0  -0.612328  -0.336517  0  3.99398  0
B  B4  1  0.50802215  0.49197449  0.25000228  1  0  -0.612336  -0.33652  0  3.993945  0
B  B5  1  0.99197813  0.00802534  0.25000108  1  0  -0.61233  -0.336525  0  3.993952  0
H  H6  1  0.85522816  0.61673981  0.80880809  1  0  0.125757  0.103388  0  1.021984  0
H  H7  1  0.64476915  0.88325367  0.80880820  1  0  0.125716  0.103275  0  1.022004  0
H  H8  1  0.11674215  0.35523459  0.69118476  1  0  0.125681  0.103136  0  1.022079  0
H  H9  1  0.38325788  0.14476651  0.69119239  1  0  0.125751  0.103382  0  1.022013  0
H  H10  1  0.14477049  0.38326341  0.19118868  1  0  0.125703  0.103281  0  1.02195  0
H  H11  1  0.35523190  0.11674414  0.19118760  1  0  0.12572  0.103279  0  1.021953  0
H  H12  1  0.88325383  0.64476868  0.30880813  1  0  0.125758  0.103357  0  1.022053  0
H  H13  1  0.61674043  0.85523001  0.30881601  1  0  0.125721  0.103202  0  1.022045  0
H  H14  1  0.32422858  0.53310434  0.01621845  1  0  0.128425  0.112366  0  1.000758  0
H  H15  1  0.17577205  0.96690055  0.01622146  1  0  0.12842  0.112365  0  1.000784  0
H  H16  1  0.03309743  0.82423106  0.48377671  1  0  0.128406  0.112359  0  1.000848  0
H  H17  1  0.46689679  0.67576611  0.48378041  1  0  0.128432  0.112408  0  1.000673  0
H  H18  1  0.67576873  0.46689890  0.98378123  1  0  0.12842  0.112386  0  1.000787  0
H  H19  1  0.82423160  0.03309586  0.98377628  1  0  0.12841  0.112367  0  1.000825  0
H  H20  1  0.96690242  0.17576945  0.51622200  1  0  0.128408  0.11234  0  1.000798  0
H  H21  1  0.53309609  0.32422918  0.51622120  1  0  0.128406  0.112339  0  1.000824  0
H  H22  1  0.47560520  0.62115366  0.83464425  1  0  0.032962  -0.127524  0  1.213007  0
H  H23  1  0.02439670  0.87884618  0.83464444  1  0  0.032961  -0.127526  0  1.213008  0
H  H24  1  0.12115455  0.97560327  0.66535754  1  0  0.032961  -0.127522  0  1.213007  0
H  H25  1  0.37884484  0.52439521  0.66535739  1  0  0.032973  -0.127508  0  1.212984  0
H  H26  1  0.52439591  0.37884549  0.16535833  1  0  0.032966  -0.127513  0  1.21299  0
H  H27  1  0.97560589  0.12115562  0.16535717  1  0  0.032969  -0.127515  0  1.212986  0
H  H28  1  0.87884663  0.02439722  0.33464504  1  0  0.032958  -0.127522  0  1.213001  0
H  H29  1  0.62115494  0.47560397  0.33464423  1  0  0.032964  -0.127529  0  1.213007  0
H  H30  1  0.47082901  0.36210988  0.80193009  1  0  0.011958  -0.080241  0  1.105134  0
H  H31  1  0.02917347  0.13788988  0.80192925  1  0  0.011959  -0.080236  0  1.105136  0
H  H32  1  0.86211147  0.97082821  0.69807237  1  0  0.01196  -0.080243  0  1.10516  0
H  H33  1  0.63788901  0.52917185  0.69807142  1  0  0.011965  -0.080236  0  1.105148  0
H  H34  1  0.52917218  0.63789061  0.19807152  1  0  0.011954  -0.080233  0  1.105135  0
H  H35  1  0.97082772  0.86211061  0.19807236  1  0  0.011964  -0.080232  0  1.105141  0
H  H36  1  0.13789105  0.02917225  0.30193021  1  0  0.011954  -0.080251  0  1.10514  0
H  H37  1  0.36211084  0.47082866  0.30193019  1  0  0.011958  -0.080242  0  1.105147  0
C  C38  1  0.92156514  0.56404286  0.89393650  1  0  0.06933  0.071499  0  3.8796  0
C  C39  1  0.57843226  0.93595467  0.89393764  1  0  0.069321  0.071603  0  3.879679  0
C  C40  1  0.06404447  0.42157157  0.60605635  1  0  0.069409  0.071809  0  3.879676  0
C  C41  1  0.43595433  0.07842952  0.60606490  1  0  0.069355  0.071581  0  3.879627  0
C  C42  1  0.07843217  0.43596039  0.10606124  1  0  0.069351  0.071656  0  3.879538  0
C  C43  1  0.42157019  0.06404445  0.10606010  1  0  0.06936  0.071688  0  3.879579  0
C  C44  1  0.93595284  0.57843167  0.39393654  1  0  0.069282  0.071539  0  3.879718  0
C  C45  1  0.56404397  0.92156701  0.39394447  1  0  0.069355  0.071767  0  3.879562  0
C  C46  1  0.17914374  0.51852387  0.00812911  1  0  0.072428  0.074932  0  3.862946  0
C  C47  1  0.32085803  0.98147698  0.00813106  1  0  0.072456  0.074959  0  3.863023  0
C  C48  1  0.01852463  0.67914754  0.49186414  1  0  0.072431  0.074919  0  3.863011  0
C  C49  1  0.48147781  0.82085350  0.49187368  1  0  0.072419  0.074876  0  3.862867  0
C  C50  1  0.82085344  0.48147669  0.99186862  1  0  0.072397  0.07492  0  3.862922  0
C  C51  1  0.67914576  0.01852212  0.99186668  1  0  0.072416  0.074919  0  3.863092  0
C  C52  1  0.98147944  0.32085691  0.50812682  1  0  0.072429  0.074967  0  3.862986  0
C  C53  1  0.51852457  0.17914429  0.50813569  1  0  0.072403  0.074905  0  3.86298  0
N  N54  1  0.10083968  0.58306699  0.90150775  1  0  -0.323199  -0.267783  0  3.462712  0
N  N55  1  0.39915932  0.91693025  0.90150962  1  0  -0.32319  -0.267797  0  3.462725  0
N  N56  1  0.08306721  0.60084106  0.59848541  1  0  -0.323164  -0.267766  0  3.462724  0
N  N57  1  0.41692953  0.89915611  0.59849405  1  0  -0.323247  -0.267887  0  3.462723  0
N  N58  1  0.89916024  0.41693486  0.09848999  1  0  -0.32317  -0.267798  0  3.46274  0
N  N59  1  0.60084306  0.08306753  0.09848715  1  0  -0.32319  -0.267815  0  3.462721  0
N  N60  1  0.91693123  0.39915814  0.40150748  1  0  -0.3232  -0.26782  0  3.462747  0
N  N61  1  0.58306864  0.10083774  0.40151531  1  0  -0.32316  -0.267732  0  3.462676  0
