# generated using pymatgen
data_ZnPH13(C3O)7
_symmetry_space_group_name_H-M   'P 1'
_cell_length_a   14.64385325
_cell_length_b   16.25456529
_cell_length_c   23.73498721
_cell_angle_alpha   89.99988065
_cell_angle_beta   90.00000019
_cell_angle_gamma   90.00001540
_symmetry_Int_Tables_number   1
_chemical_formula_structural   ZnPH13(C3O)7
_chemical_formula_sum   'Zn8 P8 H104 C168 O56'
_cell_volume   5649.62639769
_cell_formula_units_Z   8
loop_
 _symmetry_equiv_pos_site_id
 _symmetry_equiv_pos_as_xyz
  1  'x, y, z'
loop_
 _atom_site_type_symbol
 _atom_site_label
 _atom_site_symmetry_multiplicity
 _atom_site_fract_x
 _atom_site_fract_y
 _atom_site_fract_z
 _atom_site_occupancy
 _atom_site_pbe_bader_charge
 _atom_site_pbe_bader_spin_density
 _atom_site_pbe_cm5_charge
 _atom_site_pbe_ddec_charge
 _atom_site_pbe_ddec_spin_density
 _atom_site_pbe_ddec_sum_bond_order
 _atom_site_pbe_magmom
Zn  Zn0  1  0.31285427  0.93385423  0.64732431  1  1.338525  0  0.673038  0.940069  0  2.356239  0
Zn  Zn1  1  0.81285308  0.56614621  0.85267501  1  1.337112  0  0.673059  0.940134  0  2.356168  0
Zn  Zn2  1  0.18714679  0.06614599  0.64732324  1  1.337111  0  0.673067  0.940131  0  2.356188  0
Zn  Zn3  1  0.68714503  0.43385475  0.85267552  1  1.338528  0  0.672986  0.939996  0  2.356315  0
Zn  Zn4  1  0.68714634  0.06614589  0.35267552  1  1.337097  0  0.673008  0.940036  0  2.356257  0
Zn  Zn5  1  0.18714548  0.43385453  0.14732440  1  1.337124  0  0.67302  0.940108  0  2.356143  0
Zn  Zn6  1  0.81285450  0.93385413  0.35267574  1  1.338516  0  0.673023  0.940076  0  2.356226  0
Zn  Zn7  1  0.31285422  0.56614661  0.14732472  1  1.33848  0  0.673033  0.940103  0  2.356233  0
P  P8  1  0.42200789  0.76414506  0.61063471  1  2.756693  0  0.269803  0.838271  0  4.805099  0
P  P9  1  0.92200880  0.73585480  0.88936461  1  2.75695  0  0.269798  0.838267  0  4.805042  0
P  P10  1  0.07799112  0.23585467  0.61063551  1  2.756683  0  0.269839  0.83828  0  4.805198  0
P  P11  1  0.57799067  0.26414543  0.88936410  1  2.756816  0  0.269842  0.838362  0  4.805035  0
P  P12  1  0.57799203  0.23585506  0.38936469  1  2.75668  0  0.269831  0.83828  0  4.805148  0
P  P13  1  0.07799112  0.26414471  0.11063522  1  2.756942  0  0.269799  0.838307  0  4.805129  0
P  P14  1  0.92200812  0.76414484  0.38936516  1  2.756696  0  0.269832  0.838299  0  4.805133  0
P  P15  1  0.42200926  0.73585654  0.11063530  1  2.756803  0  0.269831  0.838385  0  4.80504  0
H  H16  1  0.04667563  0.50614572  0.46092342  1  0.666857  0  0.304006  0.359973  0  0.980705  0
H  H17  1  0.54667867  0.99385249  0.03907662  1  0.666878  0  0.304001  0.360015  0  0.980679  0
H  H18  1  0.45332611  0.49385138  0.46092301  1  0.666904  0  0.304049  0.360069  0  0.980564  0
H  H19  1  0.95332286  0.00614787  0.03907649  1  0.666993  0  0.30401  0.35999  0  0.980733  0
H  H20  1  0.95332703  0.49385194  0.53907599  1  0.666896  0  0.304031  0.360055  0  0.980554  0
H  H21  1  0.45332331  0.00614518  0.96092404  1  0.666864  0  0.304019  0.360005  0  0.980638  0
H  H22  1  0.54667450  0.50614505  0.53907598  1  0.666831  0  0.304011  0.360005  0  0.9806  0
H  H23  1  0.04667297  0.99385102  0.96092334  1  0.666819  0  0.304036  0.360049  0  0.980566  0
H  H24  1  0.39159785  0.67557872  0.50279060  1  0.08673  0  0.106293  0.106977  0  1.001548  0
H  H25  1  0.89159879  0.82442113  0.99720913  1  0.086719  0  0.106287  0.106977  0  1.00154  0
H  H26  1  0.10840389  0.32442134  0.50279043  1  0.086767  0  0.106296  0.106958  0  1.001566  0
H  H27  1  0.60840001  0.17557877  0.99720875  1  0.086709  0  0.106283  0.106983  0  1.001536  0
H  H28  1  0.60840412  0.32442264  0.49720880  1  0.086801  0  0.106305  0.106998  0  1.001538  0
H  H29  1  0.10840251  0.17557653  0.00279153  1  0.086766  0  0.106276  0.106941  0  1.00158  0
H  H30  1  0.89159672  0.67557879  0.49720939  1  0.086757  0  0.106294  0.106981  0  1.001531  0
H  H31  1  0.39159582  0.82442381  0.00279065  1  0.086792  0  0.106296  0.106986  0  1.001548  0
H  H32  1  0.25919963  0.59356610  0.46839545  1  0.125404  0  0.114144  0.122021  0  0.98525  0
H  H33  1  0.75920195  0.90643462  0.03160460  1  0.12541  0  0.114165  0.122018  0  0.98521  0
H  H34  1  0.24080417  0.40643160  0.46839558  1  0.125459  0  0.114159  0.122045  0  0.985252  0
H  H35  1  0.74079889  0.09356637  0.03160433  1  0.125422  0  0.114168  0.122067  0  0.985192  0
H  H36  1  0.74080440  0.40643218  0.53160354  1  0.125476  0  0.114173  0.122063  0  0.985247  0
H  H37  1  0.24080071  0.09356673  0.96839565  1  0.125413  0  0.114137  0.121995  0  0.985277  0
H  H38  1  0.75919849  0.59356545  0.53160425  1  0.125429  0  0.114139  0.121991  0  0.985277  0
H  H39  1  0.25919558  0.90643314  0.96839549  1  0.125431  0  0.114149  0.122037  0  0.985264  0
H  H40  1  0.11754703  0.63769007  0.62444227  1  0.10446  0  0.114748  0.118283  0  0.983533  0
H  H41  1  0.61754593  0.86230910  0.87555747  1  0.104454  0  0.114709  0.118207  0  0.983501  0
H  H42  1  0.38245472  0.36230716  0.62444373  1  0.104489  0  0.114709  0.118224  0  0.983601  0
H  H43  1  0.88245355  0.13769240  0.87555757  1  0.104291  0  0.114727  0.118247  0  0.983526  0
H  H44  1  0.88245495  0.36230698  0.37555587  1  0.104478  0  0.114694  0.118195  0  0.983626  0
H  H45  1  0.38245605  0.13769102  0.12444320  1  0.104439  0  0.114722  0.118255  0  0.983509  0
H  H46  1  0.61754589  0.63769174  0.37555736  1  0.104454  0  0.114729  0.118253  0  0.983571  0
H  H47  1  0.11754569  0.86230834  0.12444436  1  0.104477  0  0.114715  0.118218  0  0.983604  0
H  H48  1  0.24858837  0.72358344  0.65842790  1  0.101093  0  0.116927  0.122043  0  0.987653  0
H  H49  1  0.74858861  0.77641576  0.84157142  1  0.101075  0  0.116934  0.122097  0  0.987618  0
H  H50  1  0.25141065  0.27641676  0.65842990  1  0.101028  0  0.116902  0.122039  0  0.987654  0
H  H51  1  0.75141087  0.22358523  0.84157097  1  0.101061  0  0.11694  0.122092  0  0.987628  0
H  H52  1  0.75141156  0.27641668  0.34156982  1  0.101012  0  0.116909  0.122032  0  0.987672  0
H  H53  1  0.25141269  0.22358313  0.15842925  1  0.101044  0  0.11691  0.12204  0  0.987648  0
H  H54  1  0.74858723  0.72358460  0.34157161  1  0.101116  0  0.116926  0.122055  0  0.987648  0
H  H55  1  0.24858906  0.77641674  0.15842970  1  0.101036  0  0.1169  0.122025  0  0.987626  0
H  H56  1  0.37712560  0.87748196  0.52182354  1  0.099185  0  0.108365  0.116948  0  1.011113  0
H  H57  1  0.87712579  0.62251911  0.97817535  1  0.099178  0  0.108384  0.116969  0  1.01112  0
H  H58  1  0.12287410  0.12251803  0.52182450  1  0.099181  0  0.10838  0.116969  0  1.011122  0
H  H59  1  0.62287369  0.37748146  0.97817511  1  0.099206  0  0.10839  0.116989  0  1.011112  0
H  H60  1  0.62287570  0.12251816  0.47817586  1  0.099159  0  0.10837  0.116926  0  1.011116  0
H  H61  1  0.12287345  0.37748162  0.02182447  1  0.099202  0  0.108344  0.116913  0  1.011181  0
H  H62  1  0.87712515  0.87748271  0.47817574  1  0.09917  0  0.108381  0.116942  0  1.011128  0
H  H63  1  0.37712556  0.62251866  0.02182514  1  0.099178  0  0.108382  0.116968  0  1.011118  0
H  H64  1  0.47335575  0.94597669  0.44839224  1  0.120075  0  0.110854  0.118793  0  0.989464  0
H  H65  1  0.97335455  0.55402470  0.05160739  1  0.120116  0  0.110863  0.118798  0  0.9895  0
H  H66  1  0.02664464  0.05402353  0.44839287  1  0.120089  0  0.110854  0.118782  0  0.989495  0
H  H67  1  0.52664492  0.44597623  0.05160704  1  0.120119  0  0.110844  0.118762  0  0.989482  0
H  H68  1  0.52664555  0.05402405  0.55160759  1  0.120104  0  0.11088  0.118827  0  0.989443  0
H  H69  1  0.02664333  0.44597604  0.94839244  1  0.120104  0  0.110849  0.1188  0  0.98947  0
H  H70  1  0.97335598  0.94597659  0.55160695  1  0.120117  0  0.110855  0.118813  0  0.989463  0
H  H71  1  0.47335569  0.55402389  0.94839363  1  0.120133  0  0.110818  0.118758  0  0.989539  0
H  H72  1  0.70529604  0.80315584  0.49945704  1  0.097098  0  0.100898  0.104912  0  1.024482  0
H  H73  1  0.20529580  0.69684487  0.00054385  1  0.097099  0  0.100881  0.104876  0  1.024515  0
H  H74  1  0.79470343  0.19684434  0.49945621  1  0.097085  0  0.100898  0.104915  0  1.024463  0
H  H75  1  0.29470322  0.30315610  0.00054371  1  0.097023  0  0.100892  0.1049  0  1.024476  0
H  H76  1  0.29470525  0.19684428  0.50054363  1  0.097058  0  0.100904  0.10493  0  1.02448  0
H  H77  1  0.79470277  0.30315526  0.99945640  1  0.097077  0  0.100892  0.104903  0  1.024465  0
H  H78  1  0.20529513  0.80315455  0.50054278  1  0.097057  0  0.100909  0.104917  0  1.024463  0
H  H79  1  0.70529603  0.69684526  0.99945654  1  0.097087  0  0.100894  0.104896  0  1.024482  0
H  H80  1  0.61118214  0.73328981  0.57312808  1  0.086105  0  0.10022  0.101332  0  1.0193  0
H  H81  1  0.11118260  0.76671059  0.92687166  1  0.086096  0  0.100219  0.101341  0  1.019277  0
H  H82  1  0.88881665  0.26671015  0.57312841  1  0.086098  0  0.100218  0.10133  0  1.019305  0
H  H83  1  0.38881642  0.23329002  0.92687204  1  0.086088  0  0.100221  0.101329  0  1.019298  0
H  H84  1  0.38881847  0.26671031  0.42687175  1  0.08611  0  0.100222  0.101337  0  1.019297  0
H  H85  1  0.88881664  0.23329015  0.07312859  1  0.086086  0  0.100219  0.101355  0  1.019282  0
H  H86  1  0.11118055  0.73328935  0.42687184  1  0.086116  0  0.100235  0.101364  0  1.01927  0
H  H87  1  0.61118283  0.76671072  0.07312821  1  0.086082  0  0.100219  0.101337  0  1.019311  0
H  H88  1  0.44058358  0.58078178  0.62716403  1  0.087664  0  0.097118  0.096374  0  1.031639  0
H  H89  1  0.94058386  0.91921870  0.87283487  1  0.087691  0  0.097125  0.096377  0  1.031634  0
H  H90  1  0.05941817  0.41921851  0.62716498  1  0.087656  0  0.097144  0.096393  0  1.031571  0
H  H91  1  0.55941767  0.08078159  0.87283462  1  0.087684  0  0.097155  0.096419  0  1.031542  0
H  H92  1  0.55941976  0.41921711  0.37283496  1  0.087654  0  0.097136  0.096379  0  1.031589  0
H  H93  1  0.05941812  0.08078143  0.12716538  1  0.087675  0  0.097144  0.096395  0  1.03158  0
H  H94  1  0.94058176  0.58078038  0.37283568  1  0.087621  0  0.097158  0.096383  0  1.031583  0
H  H95  1  0.44058295  0.91921915  0.12716436  1  0.087663  0  0.09718  0.096421  0  1.031582  0
H  H96  1  0.53355432  0.50307675  0.69760988  1  0.098217  0  0.109754  0.116734  0  0.989065  0
H  H97  1  0.03355348  0.99692302  0.80238818  1  0.098214  0  0.109763  0.116787  0  0.98899  0
H  H98  1  0.96644653  0.49692407  0.69760988  1  0.098196  0  0.109744  0.116761  0  0.989018  0
H  H99  1  0.46644554  0.00307674  0.80238931  1  0.098215  0  0.109772  0.116797  0  0.989057  0
H  H100  1  0.46644766  0.49692338  0.30239037  1  0.098189  0  0.109767  0.116774  0  0.989076  0
H  H101  1  0.96644645  0.00307526  0.19761081  1  0.098181  0  0.109776  0.116803  0  0.98896  0
H  H102  1  0.03355272  0.50307606  0.30238994  1  0.098184  0  0.109772  0.116786  0  0.98905  0
H  H103  1  0.53355371  0.99692461  0.19761052  1  0.098175  0  0.109796  0.116822  0  0.988975  0
H  H104  1  0.65142906  0.72829155  0.75709068  1  0.066264  0  0.106794  0.111849  0  1.005924  0
H  H105  1  0.15142884  0.77170824  0.74290906  1  0.066248  0  0.106791  0.111843  0  1.005964  0
H  H106  1  0.84856905  0.27171031  0.75709017  1  0.066318  0  0.106802  0.11188  0  1.005999  0
H  H107  1  0.34856881  0.22829047  0.74290902  1  0.066231  0  0.106777  0.111847  0  1.005986  0
H  H108  1  0.34856745  0.27171165  0.24291041  1  0.065947  0  0.106801  0.111885  0  1.005992  0
H  H109  1  0.84856836  0.22828942  0.25709077  1  0.066242  0  0.106806  0.111887  0  1.005981  0
H  H110  1  0.15143020  0.72829043  0.24291134  1  0.065987  0  0.106795  0.111869  0  1.005979  0
H  H111  1  0.65143043  0.77171027  0.25709165  1  0.066272  0  0.106799  0.111833  0  1.005967  0
H  H112  1  0.55535668  0.80860200  0.68913146  1  0.052573  0  0.113359  0.11693  0  0.978108  0
H  H113  1  0.05535644  0.69139838  0.81086786  1  0.052574  0  0.113359  0.116953  0  0.978046  0
H  H114  1  0.94464143  0.19139883  0.68913190  1  0.052586  0  0.113375  0.116947  0  0.978082  0
H  H115  1  0.44464121  0.30860135  0.81086813  1  0.052578  0  0.11337  0.116951  0  0.978069  0
H  H116  1  0.44463983  0.19139812  0.31086879  1  0.05258  0  0.113375  0.116933  0  0.978085  0
H  H117  1  0.94464076  0.30860051  0.18913154  1  0.0526  0  0.113386  0.116963  0  0.978067  0
H  H118  1  0.05535782  0.80860129  0.31087003  1  0.052587  0  0.113359  0.116913  0  0.978174  0
H  H119  1  0.55535803  0.69139877  0.18913211  1  0.052594  0  0.113374  0.116951  0  0.978084  0
C  C120  1  0.32883227  0.70297827  0.58326588  1  -0.561691  0  -0.011409  -0.126778  0  3.972359  0
C  C121  1  0.82883388  0.79702156  0.91673386  1  -0.561983  0  -0.011386  -0.126715  0  3.972407  0
C  C122  1  0.17116743  0.29702030  0.58326659  1  -0.561476  0  -0.011374  -0.126627  0  3.972396  0
C  C123  1  0.67116559  0.20297920  0.91673344  1  -0.560967  0  -0.011383  -0.126664  0  3.97244  0
C  C124  1  0.67116834  0.29702062  0.41673311  1  -0.561651  0  -0.011379  -0.126677  0  3.972392  0
C  C125  1  0.17116604  0.20297795  0.08326638  1  -0.561976  0  -0.011369  -0.12665  0  3.972221  0
C  C126  1  0.82883114  0.70297859  0.41673408  1  -0.56146  0  -0.011444  -0.12677  0  3.972282  0
C  C127  1  0.32883297  0.79702215  0.08326680  1  -0.56176  0  -0.011413  -0.126754  0  3.972341  0
C  C128  1  0.33195166  0.66683405  0.52965812  1  -0.023602  0  -0.076648  -0.079321  0  3.979227  0
C  C129  1  0.83195329  0.83316517  0.97034162  1  -0.023576  0  -0.076657  -0.079384  0  3.979278  0
C  C130  1  0.16805008  0.33316469  0.52965878  1  -0.023715  0  -0.07667  -0.079359  0  3.979372  0
C  C131  1  0.66804687  0.16683481  0.97034125  1  -0.023557  0  -0.076665  -0.079438  0  3.97933  0
C  C132  1  0.66805100  0.33316546  0.47034002  1  -0.023559  0  -0.076732  -0.079449  0  3.979427  0
C  C133  1  0.16804869  0.16683495  0.02965905  1  -0.023555  0  -0.076647  -0.079364  0  3.979309  0
C  C134  1  0.83194985  0.66683420  0.47034189  1  -0.023764  0  -0.076619  -0.079294  0  3.979225  0
C  C135  1  0.33194964  0.83316592  0.02965942  1  -0.023591  0  -0.076652  -0.079361  0  3.979331  0
C  C136  1  0.25789806  0.62104693  0.51021723  1  -0.057584  0  -0.074717  -0.082711  0  3.941842  0
C  C137  1  0.75790038  0.87895288  0.98978208  1  -0.057653  0  -0.074749  -0.082656  0  3.941839  0
C  C138  1  0.24210437  0.37895125  0.51021783  1  -0.057502  0  -0.074734  -0.082688  0  3.941964  0
C  C139  1  0.74209978  0.12104827  0.98978263  1  -0.057452  0  -0.074762  -0.082719  0  3.941795  0
C  C140  1  0.74210392  0.37895196  0.48978175  1  -0.057485  0  -0.074689  -0.082664  0  3.941859  0
C  C141  1  0.24210091  0.12104601  0.01021774  1  -0.057616  0  -0.074717  -0.082621  0  3.941827  0
C  C142  1  0.75789693  0.62104702  0.48978242  1  -0.057636  0  -0.074726  -0.0827  0  3.941932  0
C  C143  1  0.25789673  0.87895370  0.01021762  1  -0.057492  0  -0.074752  -0.082707  0  3.941952  0
C  C144  1  0.18101734  0.61040494  0.54470599  1  -0.068367  0  -0.013372  -0.047848  0  3.99512  0
C  C145  1  0.68102034  0.88959548  0.95529417  1  -0.068333  0  -0.013337  -0.047927  0  3.995138  0
C  C146  1  0.31898646  0.38959253  0.54470572  1  -0.068279  0  -0.013373  -0.048075  0  3.995334  0
C  C147  1  0.81898187  0.11040578  0.95529431  1  -0.068324  0  -0.013336  -0.047833  0  3.995068  0
C  C148  1  0.81898669  0.38959334  0.45529342  1  -0.068246  0  -0.01341  -0.048036  0  3.995273  0
C  C149  1  0.31898368  0.11040465  0.04470608  1  -0.068337  0  -0.013374  -0.048006  0  3.995165  0
C  C150  1  0.68101689  0.61040513  0.45529326  1  -0.068353  0  -0.013355  -0.047901  0  3.995202  0
C  C151  1  0.18101396  0.88959372  0.04470594  1  -0.06826  0  -0.013377  -0.048034  0  3.995222  0
C  C152  1  0.10094073  0.56245043  0.52492636  1  1.530037  0  0.240491  0.579949  0  4.121986  0
C  C153  1  0.60093965  0.93755058  0.97507338  1  1.530013  0  0.240456  0.580017  0  4.122131  0
C  C154  1  0.39906102  0.43754833  0.52492519  1  1.529602  0  0.240488  0.580101  0  4.122083  0
C  C155  1  0.89905983  0.06245062  0.97507442  1  1.530004  0  0.240444  0.579821  0  4.122179  0
C  C156  1  0.89906261  0.43754846  0.47507431  1  1.529604  0  0.240485  0.580047  0  4.1222  0
C  C157  1  0.39905891  0.06244831  0.02492476  1  1.529624  0  0.240437  0.579969  0  4.121917  0
C  C158  1  0.60093891  0.56244995  0.47507295  1  1.529608  0  0.240468  0.580054  0  4.122126  0
C  C159  1  0.10093805  0.93755012  0.02492456  1  1.529623  0  0.24047  0.580029  0  4.122208  0
C  C160  1  0.17822436  0.64618988  0.59849365  1  0.035725  0  -0.06811  -0.075404  0  3.930108  0
C  C161  1  0.67822463  0.85380992  0.90150651  1  0.035797  0  -0.068057  -0.075214  0  3.930026  0
C  C162  1  0.32177738  0.35380927  0.59849470  1  0.035565  0  -0.068047  -0.075182  0  3.930084  0
C  C163  1  0.82177554  0.14619212  0.90150660  1  0.035972  0  -0.068061  -0.075282  0  3.930072  0
C  C164  1  0.82177830  0.35380901  0.40150492  1  0.035518  0  -0.068032  -0.075197  0  3.930067  0
C  C165  1  0.32177667  0.14618959  0.09849416  1  0.035719  0  -0.06808  -0.075275  0  3.93004  0
C  C166  1  0.67822323  0.64619085  0.40150555  1  0.035711  0  -0.068095  -0.075337  0  3.930136  0
C  C167  1  0.17822234  0.85381046  0.09849491  1  0.035631  0  -0.068064  -0.075218  0  3.930008  0
C  C168  1  0.25147012  0.69300009  0.61756377  1  -0.019772  0  -0.063748  -0.053806  0  3.933861  0
C  C169  1  0.75147105  0.80699911  0.88243639  1  -0.019747  0  -0.063795  -0.053991  0  3.933876  0
C  C170  1  0.24853026  0.30699900  0.61756447  1  -0.019656  0  -0.063751  -0.053918  0  3.933922  0
C  C171  1  0.74852843  0.19300114  0.88243640  1  -0.020771  0  -0.063789  -0.053983  0  3.933944  0
C  C172  1  0.74853118  0.30700003  0.38243521  1  -0.019655  0  -0.063723  -0.053833  0  3.933772  0
C  C173  1  0.24853093  0.19300040  0.11756386  1  -0.019704  0  -0.063772  -0.053924  0  3.933773  0
C  C174  1  0.75146898  0.69300113  0.38243620  1  -0.019826  0  -0.063741  -0.053855  0  3.933817  0
C  C175  1  0.25146945  0.80700082  0.11756427  1  -0.019712  0  -0.063702  -0.053804  0  3.933725  0
C  C176  1  0.48841597  0.80114830  0.55217205  1  -0.673205  0  -0.027517  -0.156366  0  4.016953  0
C  C177  1  0.98841687  0.69885219  0.94782769  1  -0.672822  0  -0.027472  -0.156239  0  4.016972  0
C  C178  1  0.01158373  0.19885222  0.55217205  1  -0.673236  0  -0.027478  -0.156233  0  4.017034  0
C  C179  1  0.51158329  0.30114848  0.94782713  1  -0.673235  0  -0.027522  -0.156384  0  4.016953  0
C  C180  1  0.51158464  0.19885244  0.44782820  1  -0.6732  0  -0.027503  -0.156256  0  4.01705  0
C  C181  1  0.01158306  0.30114793  0.05217255  1  -0.672824  0  -0.027529  -0.156395  0  4.016975  0
C  C182  1  0.98841552  0.80114790  0.44782777  1  -0.673222  0  -0.027479  -0.156224  0  4.017074  0
C  C183  1  0.48841595  0.69885226  0.05217269  1  -0.673188  0  -0.027485  -0.156299  0  4.016903  0
C  C184  1  0.44865868  0.86021483  0.51643615  1  0.004678  0  -0.074654  -0.06547  0  3.953648  0
C  C185  1  0.94865888  0.63978626  0.98356275  1  0.004253  0  -0.074625  -0.065478  0  3.953591  0
C  C186  1  0.05134033  0.13978518  0.51643709  1  0.004691  0  -0.074718  -0.065607  0  3.953652  0
C  C187  1  0.55133992  0.36021430  0.98356252  1  0.004678  0  -0.074697  -0.065577  0  3.9536  0
C  C188  1  0.55134125  0.13978591  0.48356283  1  0.004639  0  -0.074594  -0.065398  0  3.953551  0
C  C189  1  0.05133968  0.36021324  0.01643708  1  0.004259  0  -0.074598  -0.065413  0  3.953517  0
C  C190  1  0.94865823  0.86021494  0.48356316  1  0.004658  0  -0.074624  -0.065483  0  3.953605  0
C  C191  1  0.44865933  0.63978583  0.01643730  1  0.004628  0  -0.074631  -0.06547  0  3.953512  0
C  C192  1  0.50204901  0.89885635  0.47579865  1  -0.046085  0  -0.075295  -0.081569  0  3.936612  0
C  C193  1  0.00204805  0.60114431  0.02420140  1  -0.046097  0  -0.07537  -0.081677  0  3.936548  0
C  C194  1  0.99795047  0.10114329  0.47579922  1  -0.046052  0  -0.075272  -0.081522  0  3.936493  0
C  C195  1  0.49795097  0.39885597  0.02420070  1  -0.046071  0  -0.075296  -0.081518  0  3.93641  0
C  C196  1  0.49795229  0.10114377  0.52420118  1  -0.046103  0  -0.075392  -0.081729  0  3.936543  0
C  C197  1  0.99795052  0.39885643  0.97579927  1  -0.046065  0  -0.075324  -0.081604  0  3.936419  0
C  C198  1  0.00204809  0.89885683  0.52420061  1  -0.046124  0  -0.075365  -0.081638  0  3.9365  0
C  C199  1  0.50204896  0.60114415  0.97579955  1  -0.046101  0  -0.075316  -0.081625  0  3.936486  0
C  C200  1  0.59493371  0.87926064  0.47037923  1  -0.049534  0  -0.0074  -0.011512  0  3.927125  0
C  C201  1  0.09493276  0.62074004  0.02962123  1  -0.049437  0  -0.007359  -0.0114  0  3.927016  0
C  C202  1  0.90506577  0.12073963  0.47037936  1  -0.049535  0  -0.007391  -0.01148  0  3.927062  0
C  C203  1  0.40506626  0.37926022  0.02962098  1  -0.049521  0  -0.007391  -0.011488  0  3.927026  0
C  C204  1  0.40506759  0.12073948  0.52962101  1  -0.049434  0  -0.007391  -0.011465  0  3.927084  0
C  C205  1  0.90506581  0.37926009  0.97037902  1  -0.049534  0  -0.007422  -0.011551  0  3.927091  0
C  C206  1  0.09493348  0.87926049  0.52962047  1  -0.049435  0  -0.007408  -0.011549  0  3.927183  0
C  C207  1  0.59493367  0.62073990  0.97037927  1  -0.04953  0  -0.007381  -0.011446  0  3.927104  0
C  C208  1  0.65360202  0.92474886  0.42869854  1  1.594368  0  0.213965  0.586614  0  4.18311  0
C  C209  1  0.15360105  0.57525184  0.07130235  1  1.594648  0  0.213951  0.586601  0  4.183071  0
C  C210  1  0.84639814  0.07525154  0.42869788  1  1.594649  0  0.213954  0.586594  0  4.183087  0
C  C211  1  0.34639865  0.42474830  0.07130245  1  1.594648  0  0.213943  0.586585  0  4.183092  0
C  C212  1  0.34639928  0.07525249  0.57130255  1  1.594365  0  0.21392  0.586563  0  4.183104  0
C  C213  1  0.84639819  0.42474767  0.92869790  1  1.594368  0  0.213976  0.586663  0  4.183123  0
C  C214  1  0.15360179  0.92474858  0.57130068  1  1.594628  0  0.213913  0.586511  0  4.183269  0
C  C215  1  0.65360128  0.57525183  0.92869864  1  1.594631  0  0.213909  0.586555  0  4.183155  0
C  C216  1  0.63338943  0.81847460  0.50475596  1  -0.003397  0  -0.084522  -0.089456  0  3.961336  0
C  C217  1  0.13338849  0.68152642  0.99524463  1  -0.003412  0  -0.084532  -0.089458  0  3.961353  0
C  C218  1  0.86661073  0.18152557  0.50475599  1  -0.003586  0  -0.084511  -0.089445  0  3.961319  0
C  C219  1  0.36661052  0.31847398  0.99524404  1  -0.003285  0  -0.08451  -0.089429  0  3.961311  0
C  C220  1  0.36661187  0.18152614  0.49524429  1  -0.003353  0  -0.084508  -0.089463  0  3.961313  0
C  C221  1  0.86661007  0.31847432  0.00475604  1  -0.003359  0  -0.084507  -0.089413  0  3.961282  0
C  C222  1  0.13338851  0.81847394  0.49524384  1  -0.00362  0  -0.084503  -0.089385  0  3.961326  0
C  C223  1  0.63338940  0.68152614  0.00475621  1  -0.003349  0  -0.084514  -0.089441  0  3.96133  0
C  C224  1  0.58061164  0.77950455  0.54566479  1  -0.045899  0  -0.085667  -0.089192  0  4.010899  0
C  C225  1  0.08061209  0.72049522  0.95433537  1  -0.045947  0  -0.085674  -0.089247  0  4.010951  0
C  C226  1  0.91938852  0.22049488  0.54566519  1  -0.045683  0  -0.085716  -0.089289  0  4.01105  0
C  C227  1  0.41938693  0.27950531  0.95433484  1  -0.045947  0  -0.085636  -0.089163  0  4.010912  0
C  C228  1  0.41938897  0.22049495  0.45433504  1  -0.045921  0  -0.085707  -0.089278  0  4.01102  0
C  C229  1  0.91938716  0.27950429  0.04566488  1  -0.045924  0  -0.085627  -0.089189  0  4.01083  0
C  C230  1  0.08061073  0.77950463  0.45433548  1  -0.045714  0  -0.085721  -0.089327  0  4.011033  0
C  C231  1  0.58061232  0.72049666  0.04566498  1  -0.045947  0  -0.085672  -0.089222  0  4.010856  0
C  C232  1  0.49261020  0.69952008  0.65370493  1  -0.60386  0  -0.025945  -0.150755  0  4.02328  0
C  C233  1  0.99260977  0.80047979  0.84629397  1  -0.603683  0  -0.025918  -0.15067  0  4.023163  0
C  C234  1  0.00739086  0.30048074  0.65370564  1  -0.603865  0  -0.025924  -0.150728  0  4.023297  0
C  C235  1  0.50738971  0.19951995  0.84629397  1  -0.603654  0  -0.025916  -0.150687  0  4.023188  0
C  C236  1  0.50739109  0.30048127  0.34629447  1  -0.603865  0  -0.025914  -0.150748  0  4.023307  0
C  C237  1  0.00739084  0.19951971  0.15370586  1  -0.603871  0  -0.025926  -0.150748  0  4.023252  0
C  C238  1  0.99260975  0.69951999  0.34629503  1  -0.603854  0  -0.025954  -0.150761  0  4.023291  0
C  C239  1  0.49261022  0.80048078  0.15370543  1  -0.603861  0  -0.025945  -0.150805  0  4.023357  0
C  C240  1  0.48653734  0.61356330  0.65550782  1  -0.108631  0  -0.083619  -0.079951  0  3.998386  0
C  C241  1  0.98653761  0.88643657  0.84449108  1  -0.108767  0  -0.083643  -0.079985  0  3.998371  0
C  C242  1  0.01346305  0.38643690  0.65550882  1  -0.108625  0  -0.083683  -0.080004  0  3.998467  0
C  C243  1  0.51346255  0.11356318  0.84449079  1  -0.108697  0  -0.083696  -0.080036  0  3.99834  0
C  C244  1  0.51346259  0.38643743  0.34449117  1  -0.108639  0  -0.083686  -0.079992  0  3.998485  0
C  C245  1  0.01346300  0.11356294  0.15550875  1  -0.108614  0  -0.083689  -0.080008  0  3.998414  0
C  C246  1  0.98653620  0.61356261  0.34449227  1  -0.108613  0  -0.08369  -0.080027  0  3.998238  0
C  C247  1  0.48653738  0.88643756  0.15550819  1  -0.108631  0  -0.083693  -0.080011  0  3.998345  0
C  C248  1  0.53843829  0.56983646  0.69469430  1  0.038213  0  -0.077486  -0.082055  0  3.934681  0
C  C249  1  0.03843743  0.93016331  0.80530333  1  0.037956  0  -0.077528  -0.082184  0  3.934721  0
C  C250  1  0.96156256  0.43016436  0.69469482  1  0.037946  0  -0.077495  -0.082142  0  3.934693  0
C  C251  1  0.46156227  0.06983644  0.80530479  1  0.03795  0  -0.077506  -0.082177  0  3.934774  0
C  C252  1  0.46156301  0.43016428  0.30530510  1  0.038174  0  -0.077536  -0.082156  0  3.9348  0
C  C253  1  0.96156250  0.06983559  0.19469523  1  0.03796  0  -0.077533  -0.08218  0  3.934673  0
C  C254  1  0.03843737  0.56983514  0.30530542  1  0.038207  0  -0.077522  -0.082099  0  3.934593  0
C  C255  1  0.53843834  0.93016491  0.19469504  1  0.037974  0  -0.077555  -0.08218  0  3.934656  0
C  C256  1  0.59694066  0.61169726  0.73150744  1  0.006068  0  -0.005493  -0.007672  0  3.932897  0
C  C257  1  0.09693978  0.88830251  0.76849146  1  0.005768  0  -0.005504  -0.007604  0  3.932857  0
C  C258  1  0.90305951  0.38830283  0.73150760  1  0.005997  0  -0.005477  -0.007565  0  3.932872  0
C  C259  1  0.40305855  0.11169735  0.76849201  1  0.005988  0  -0.005498  -0.007585  0  3.932905  0
C  C260  1  0.40305927  0.38830470  0.26849323  1  0.006073  0  -0.005487  -0.007617  0  3.932941  0
C  C261  1  0.90305946  0.11169638  0.23150795  1  0.005977  0  -0.005488  -0.007624  0  3.932915  0
C  C262  1  0.09694042  0.61169606  0.26849307  1  0.006075  0  -0.005479  -0.007639  0  3.932889  0
C  C263  1  0.59694070  0.88830401  0.23150823  1  0.005981  0  -0.005508  -0.007641  0  3.932943  0
C  C264  1  0.65058432  0.56669508  0.77580199  1  1.585678  0  0.213174  0.582948  0  4.193898  0
C  C265  1  0.15058414  0.93330410  0.72419732  1  1.585768  0  0.213159  0.582979  0  4.193869  0
C  C266  1  0.84941584  0.43330673  0.77580125  1  1.585682  0  0.213137  0.582869  0  4.194054  0
C  C267  1  0.34941488  0.06669405  0.72419836  1  1.585681  0  0.213179  0.582934  0  4.193914  0
C  C268  1  0.34941561  0.43330751  0.22419952  1  1.585667  0  0.213223  0.582963  0  4.193964  0
C  C269  1  0.84941579  0.06669356  0.27580166  1  1.585679  0  0.213191  0.582958  0  4.193866  0
C  C270  1  0.15058477  0.56669462  0.22419900  1  1.585666  0  0.213178  0.582967  0  4.193898  0
C  C271  1  0.65058505  0.93330730  0.27580188  1  1.585689  0  0.213218  0.582906  0  4.193974  0
C  C272  1  0.60461966  0.69749840  0.72835043  1  -0.06016  0  -0.079451  -0.08838  0  3.960873  0
C  C273  1  0.10461944  0.80250200  0.77164804  1  -0.05987  0  -0.079433  -0.088392  0  3.960966  0
C  C274  1  0.89537914  0.30250171  0.72835071  1  -0.059897  0  -0.079465  -0.088454  0  3.960928  0
C  C275  1  0.39537889  0.19749847  0.77164890  1  -0.059858  0  -0.079448  -0.088423  0  3.960999  0
C  C276  1  0.39537754  0.30250173  0.27164981  1  -0.059828  0  -0.079468  -0.088474  0  3.960918  0
C  C277  1  0.89537912  0.19749751  0.22835052  1  -0.059818  0  -0.079464  -0.088446  0  3.960924  0
C  C278  1  0.10462147  0.69749718  0.27165038  1  -0.059873  0  -0.079463  -0.088426  0  3.960962  0
C  C279  1  0.60462036  0.80250289  0.22835093  1  -0.059854  0  -0.079464  -0.088383  0  3.960908  0
C  C280  1  0.55221269  0.74157776  0.69016247  1  0.054407  0  -0.075024  -0.071011  0  3.983007  0
C  C281  1  0.05221383  0.75842201  0.80983600  1  0.054441  0  -0.075042  -0.07106  0  3.983001  0
C  C282  1  0.94778747  0.25842247  0.69016282  1  0.054425  0  -0.075016  -0.070993  0  3.98294  0
C  C283  1  0.44778587  0.24157772  0.80983637  1  0.054439  0  -0.075031  -0.071036  0  3.983041  0
C  C284  1  0.44778655  0.25842298  0.30983820  1  0.054444  0  -0.075015  -0.07093  0  3.982932  0
C  C285  1  0.94778678  0.24157688  0.19016256  1  0.05442  0  -0.075028  -0.070997  0  3.982954  0
C  C286  1  0.05221451  0.74157704  0.30983827  1  0.054418  0  -0.074991  -0.070957  0  3.983079  0
C  C287  1  0.55221338  0.75842301  0.19016303  1  0.054433  0  -0.075021  -0.070989  0  3.982973  0
O  O288  1  0.38864715  0.83340554  0.64784597  1  -1.420043  0  -0.349226  -0.612593  0  2.343171  0
O  O289  1  0.88864736  0.66659431  0.85215377  1  -1.420055  0  -0.349251  -0.612649  0  2.343169  0
O  O290  1  0.11135050  0.16659407  0.64784561  1  -1.420066  0  -0.349224  -0.612602  0  2.343238  0
O  O291  1  0.61135212  0.33340542  0.85215316  1  -1.420073  0  -0.349241  -0.612629  0  2.343231  0
O  O292  1  0.61135278  0.16659458  0.35215343  1  -1.420056  0  -0.349226  -0.61259  0  2.343173  0
O  O293  1  0.11135189  0.33340458  0.14784606  1  -1.420036  0  -0.349222  -0.612606  0  2.343211  0
O  O294  1  0.88864738  0.83340544  0.35215296  1  -1.420051  0  -0.349231  -0.612602  0  2.343195  0
O  O295  1  0.38864644  0.66659655  0.14784667  1  -1.420024  0  -0.349219  -0.612635  0  2.343099  0
O  O296  1  0.10392560  0.54017985  0.47142098  1  -1.183253  0  -0.319699  -0.473416  0  2.31668  0
O  O297  1  0.60392930  0.95982207  0.02857907  1  -1.183235  0  -0.319692  -0.473503  0  2.3166  0
O  O298  1  0.39607683  0.45981723  0.47142146  1  -1.183277  0  -0.319681  -0.473506  0  2.3168  0
O  O299  1  0.89607290  0.04018016  0.02857972  1  -1.183248  0  -0.319718  -0.47342  0  2.316729  0
O  O300  1  0.89607706  0.45981782  0.52857759  1  -1.183232  0  -0.319696  -0.47352  0  2.316825  0
O  O301  1  0.39607336  0.04017744  0.97142329  1  -1.183273  0  -0.319637  -0.473406  0  2.316807  0
O  O302  1  0.60392514  0.54017859  0.52857753  1  -1.183189  0  -0.319711  -0.473508  0  2.316679  0
O  O303  1  0.10392225  0.95981688  0.97142221  1  -1.183305  0  -0.319668  -0.473488  0  2.31695  0
O  O304  1  0.03635049  0.54539916  0.55733212  1  -1.163332  0  -0.284889  -0.504248  0  2.193694  0
O  O305  1  0.53635283  0.95460060  0.94266804  1  -1.163314  0  -0.284874  -0.504247  0  2.193995  0
O  O306  1  0.46365331  0.45460011  0.55733345  1  -1.162937  0  -0.284967  -0.504365  0  2.193607  0
O  O307  1  0.96364802  0.04540008  0.94266742  1  -1.163225  0  -0.284854  -0.504166  0  2.193803  0
O  O308  1  0.96365422  0.45459911  0.44266602  1  -1.162995  0  -0.284923  -0.504304  0  2.193696  0
O  O309  1  0.46365188  0.04539583  0.05733474  1  -1.162896  0  -0.284863  -0.504232  0  2.193415  0
O  O310  1  0.53635072  0.54539817  0.44266680  1  -1.162962  0  -0.284879  -0.504284  0  2.19376  0
O  O311  1  0.03634713  0.95460311  0.05733367  1  -1.163059  0  -0.284911  -0.504287  0  2.193614  0
O  O312  1  0.61606682  0.98390089  0.40232393  1  -1.154922  0  -0.309192  -0.548832  0  2.328519  0
O  O313  1  0.11606584  0.51610041  0.09767695  1  -1.154942  0  -0.309212  -0.548842  0  2.328527  0
O  O314  1  0.88393402  0.01610020  0.40232336  1  -1.154933  0  -0.30921  -0.548846  0  2.328542  0
O  O315  1  0.38393386  0.48389964  0.09767698  1  -1.154934  0  -0.309224  -0.548854  0  2.32852  0
O  O316  1  0.38393515  0.01610046  0.59767674  1  -1.154654  0  -0.309188  -0.548798  0  2.328465  0
O  O317  1  0.88393341  0.48389910  0.90232287  1  -1.1549  0  -0.309207  -0.548854  0  2.328581  0
O  O318  1  0.11606591  0.98390053  0.59767520  1  -1.154909  0  -0.30917  -0.5488  0  2.328554  0
O  O319  1  0.61606539  0.51610048  0.90232369  1  -1.154924  0  -0.309194  -0.548827  0  2.32852  0
O  O320  1  0.73603797  0.90090942  0.42353908  1  -1.174597  0  -0.314653  -0.56661  0  2.342932  0
O  O321  1  0.23603632  0.59909191  0.07646180  1  -1.174839  0  -0.314629  -0.566632  0  2.342978  0
O  O322  1  0.76396288  0.09909223  0.42353881  1  -1.174862  0  -0.314646  -0.566602  0  2.342951  0
O  O323  1  0.26396337  0.40090821  0.07646194  1  -1.174848  0  -0.314635  -0.566613  0  2.342934  0
O  O324  1  0.26396401  0.09909255  0.57646116  1  -1.174841  0  -0.314625  -0.566588  0  2.342951  0
O  O325  1  0.76396156  0.40090821  0.92353803  1  -1.174614  0  -0.31466  -0.56664  0  2.342927  0
O  O326  1  0.23603705  0.90090913  0.57646059  1  -1.174867  0  -0.314632  -0.566559  0  2.342984  0
O  O327  1  0.73603656  0.59909130  0.92353873  1  -1.174841  0  -0.314631  -0.566603  0  2.342945  0
O  O328  1  0.63459330  0.49041373  0.78211846  1  -1.159905  0  -0.311889  -0.535142  0  2.280914  0
O  O329  1  0.13459436  0.00958516  0.71788030  1  -1.159776  0  -0.31189  -0.535228  0  2.280973  0
O  O330  1  0.86540482  0.50958868  0.78211761  1  -1.159979  0  -0.311872  -0.535145  0  2.280991  0
O  O331  1  0.36540466  0.99041178  0.71788213  1  -1.159946  0  -0.31191  -0.535219  0  2.280912  0
O  O332  1  0.36540527  0.50958886  0.21788221  1  -1.159999  0  -0.311892  -0.535155  0  2.280953  0
O  O333  1  0.86540557  0.99041128  0.28211826  1  -1.159975  0  -0.311932  -0.535212  0  2.280862  0
O  O334  1  0.13459375  0.49041329  0.21788180  1  -1.159917  0  -0.311902  -0.535201  0  2.280883  0
O  O335  1  0.63459322  0.00958834  0.28211812  1  -1.159992  0  -0.311918  -0.535162  0  2.280953  0
O  O336  1  0.70700936  0.60983984  0.80398188  1  -1.157682  0  -0.314306  -0.5609  0  2.347767  0
O  O337  1  0.20700849  0.89015996  0.69601659  1  -1.157763  0  -0.314277  -0.560866  0  2.347731  0
O  O338  1  0.79299012  0.39016188  0.80398120  1  -1.157674  0  -0.314287  -0.560864  0  2.347785  0
O  O339  1  0.29298984  0.10983889  0.69601841  1  -1.157667  0  -0.314293  -0.560853  0  2.347765  0
O  O340  1  0.29299057  0.39016274  0.19601921  1  -1.157573  0  -0.314331  -0.560934  0  2.347725  0
O  O341  1  0.79299076  0.10983831  0.30398197  1  -1.157619  0  -0.314275  -0.56086  0  2.347777  0
O  O342  1  0.20700913  0.60983948  0.19601863  1  -1.157649  0  -0.314277  -0.560873  0  2.347784  0
O  O343  1  0.70700872  0.89016123  0.30398268  1  -1.157677  0  -0.314307  -0.560851  0  2.347734  0
