# generated using pymatgen
data_H10PbC18(NO)4
_symmetry_space_group_name_H-M   'P 1'
_cell_length_a   6.88570828
_cell_length_b   8.64658959
_cell_length_c   13.93524505
_cell_angle_alpha   101.39690017
_cell_angle_beta   99.84390654
_cell_angle_gamma   100.06672288
_symmetry_Int_Tables_number   1
_chemical_formula_structural   H10PbC18(NO)4
_chemical_formula_sum   'H20 Pb2 C36 N8 O8'
_cell_volume   782.43251883
_cell_formula_units_Z   2
loop_
 _symmetry_equiv_pos_site_id
 _symmetry_equiv_pos_as_xyz
  1  'x, y, z'
loop_
 _atom_site_type_symbol
 _atom_site_label
 _atom_site_symmetry_multiplicity
 _atom_site_fract_x
 _atom_site_fract_y
 _atom_site_fract_z
 _atom_site_occupancy
 _atom_site_hle17_bader_spin_density
 _atom_site_hle17_ddec_charge
 _atom_site_hle17_ddec_spin_density
 _atom_site_hle17_ddec_sum_bond_order
 _atom_site_hle17_magmom
 _atom_site_hse06_10hf_bader_spin_density
 _atom_site_hse06_10hf_ddec_charge
 _atom_site_hse06_10hf_ddec_spin_density
 _atom_site_hse06_10hf_ddec_sum_bond_order
 _atom_site_hse06_10hf_magmom
 _atom_site_hse06_bader_spin_density
 _atom_site_hse06_ddec_charge
 _atom_site_hse06_ddec_spin_density
 _atom_site_hse06_ddec_sum_bond_order
 _atom_site_hse06_magmom
 _atom_site_pbe_bader_spin_density
 _atom_site_pbe_cm5_charge
 _atom_site_pbe_ddec_charge
 _atom_site_pbe_ddec_spin_density
 _atom_site_pbe_ddec_sum_bond_order
 _atom_site_pbe_magmom
H  H0  1  0.48360690  0.79302166  0.16778223  1  0  0.097769  0  0.950952  0  0  0.104729  0  1.016771  0  0  0.10721  0  1.014633  0  0  0.121857  0.10287  0  1.018321  0
H  H1  1  0.51644699  0.20727540  0.83230013  1  0  0.097722  0  0.951079  0  0  0.104652  0  1.01696  0  0  0.107125  0  1.014823  0  0  0.121902  0.102783  0  1.018499  0
H  H2  1  0.37853749  0.56538779  0.50308779  1  0  0.098819  0  0.961867  0  0  0.106997  0  1.030228  0  0  0.110172  0  1.027202  0  0  0.107822  0.104674  0  1.032401  0
H  H3  1  0.62158815  0.43464265  0.49680979  1  0  0.098531  0  0.962213  0  0  0.106848  0  1.030441  0  0  0.110003  0  1.027447  0  0  0.107785  0.104582  0  1.032556  0
H  H4  1  0.20123388  0.41826625  0.17970581  1  0  0.092869  0  0.958255  0  0  0.100669  0  1.022924  0  0  0.103006  0  1.02067  0  0  0.12129  0.098917  0  1.024528  0
H  H5  1  0.79845055  0.58164031  0.82021115  1  0  0.093097  0  0.958254  0  0  0.100845  0  1.022861  0  0  0.10318  0  1.020614  0  0  0.121471  0.099093  0  1.024464  0
H  H6  1  0.97389527  0.95972894  0.76248418  1  0  0.099635  0  0.94879  0  0  0.105028  0  1.014388  0  0  0.108727  0  1.011473  0  0  0.117572  0.102234  0  1.016707  0
H  H7  1  0.02629340  0.04023761  0.23753045  1  0  0.099596  0  0.948526  0  0  0.104906  0  1.014257  0  0  0.10851  0  1.011443  0  0  0.117568  0.102184  0  1.016503  0
H  H8  1  0.39039212  0.94036579  0.32212627  1  0  0.117918  0  0.944777  0  0  0.123102  0  1.011952  0  0  0.127285  0  1.0092  0  0  0.11067  0.120042  0  1.014155  0
H  H9  1  0.60980185  0.05988042  0.67798648  1  0  0.117765  0  0.944724  0  0  0.123262  0  1.011551  0  0  0.127456  0  1.00878  0  0  0.110735  0.120188  0  1.01377  0
H  H10  1  0.24528370  0.79209856  0.76658124  1  0  0.097248  0  0.955102  0  0  0.102959  0  1.019814  0  0  0.106035  0  1.017678  0  0  0.117972  0.10062  0  1.021526  0
H  H11  1  0.75505848  0.20796586  0.23338388  1  0  0.097138  0  0.955348  0  0  0.103016  0  1.019898  0  0  0.106102  0  1.017757  0  0  0.118022  0.100684  0  1.021621  0
H  H12  1  0.43911069  0.41795224  0.33611154  1  0  0.120686  0  0.941028  0  0  0.125477  0  1.009168  0  0  0.129945  0  1.005979  0  0  0.111031  0.122226  0  1.011661  0
H  H13  1  0.56082252  0.58205589  0.66373346  1  0  0.120548  0  0.941484  0  0  0.12529  0  1.009697  0  0  0.129784  0  1.006446  0  0  0.111092  0.122032  0  1.012203  0
H  H14  1  0.60375749  0.94530185  0.49154123  1  0  0.09596  0  0.974088  0  0  0.10503  0  1.040115  0  0  0.108139  0  1.037069  0  0  0.107432  0.102801  0  1.042224  0
H  H15  1  0.39657881  0.05491206  0.50856136  1  0  0.096747  0  0.973723  0  0  0.105446  0  1.040056  0  0  0.108596  0  1.036919  0  0  0.107516  0.103216  0  1.042169  0
H  H16  1  0.32758309  0.09625447  0.17219090  1  0  0.110794  0  0.944725  0  0  0.119809  0  1.006496  0  0  0.123922  0  1.004169  0  0  0.104359  0.116923  0  1.008258  0
H  H17  1  0.67200933  0.90360280  0.82781623  1  0  0.110415  0  0.944927  0  0  0.119357  0  1.006883  0  0  0.12346  0  1.004569  0  0  0.104166  0.116481  0  1.008626  0
H  H18  1  0.23755905  0.97265881  0.94289497  1  0  0.117253  0  0.930064  0  0  0.126462  0  0.990558  0  0  0.130305  0  0.988417  0  0  0.107006  0.12374  0  0.992211  0
H  H19  1  0.76232237  0.02732549  0.05711781  1  0  0.117343  0  0.930079  0  0  0.126532  0  0.990515  0  0  0.130367  0  0.988385  0  0  0.106975  0.123812  0  0.992169  0
Pb  Pb20  1  0.79292426  0.55399455  0.08584985  1  0  1.232419  0  1.500414  0  0  1.03643  0  1.897224  0  0  1.098008  0  1.856232  0  0  0.615246  0.991223  0  1.927382  0
Pb  Pb21  1  0.20657636  0.44593200  0.91416195  1  0  1.232416  0  1.500736  0  0  1.036456  0  1.897558  0  0  1.098051  0  1.856517  0  0  0.615297  0.991249  0  1.927721  0
C  C22  1  0.12340961  0.64236947  0.43195889  1  0  -0.038048  0  3.744052  0  0  -0.02762  0  3.980737  0  0  -0.032371  0  4.004705  0  0  0.001642  -0.024692  0  3.964771  0
C  C23  1  0.87659704  0.35759524  0.56800804  1  0  -0.038753  0  3.744199  0  0  -0.028327  0  3.981003  0  0  -0.033078  0  4.004974  0  0  0.001344  -0.025405  0  3.965052  0
C  C24  1  0.00005335  0.63916051  0.33900664  1  0  0.160145  0  3.73149  0  0  0.146277  0  3.978597  0  0  0.152567  0  3.998497  0  0  0.13284  0.142081  0  3.965048  0
C  C25  1  0.99989440  0.36082432  0.66097729  1  0  0.160196  0  3.731168  0  0  0.145996  0  3.978824  0  0  0.152281  0  3.998741  0  0  0.13251  0.141801  0  3.965262  0
C  C26  1  0.83292297  0.72209483  0.33630924  1  0  0.151803  0  3.73359  0  0  0.140552  0  3.978667  0  0  0.146395  0  3.999001  0  0  0.130541  0.136669  0  3.964819  0
C  C27  1  0.16711036  0.27797605  0.66369626  1  0  0.151515  0  3.734133  0  0  0.140441  0  3.979251  0  0  0.146256  0  3.999609  0  0  0.130717  0.136572  0  3.965385  0
C  C28  1  0.56708942  0.79717193  0.24252311  1  0  0.144876  0  3.667612  0  0  0.111984  0  3.921193  0  0  0.119715  0  3.938926  0  0  0.067492  0.107039  0  3.908982  0
C  C29  1  0.43300992  0.20306391  0.75754097  1  0  0.14479  0  3.668567  0  0  0.111862  0  3.922325  0  0  0.119604  0  3.940058  0  0  0.067356  0.106938  0  3.910088  0
C  C30  1  0.79377877  0.80425959  0.42689848  1  0  -0.040038  0  3.756248  0  0  -0.0297  0  3.99095  0  0  -0.034262  0  4.015226  0  0  -0.000774  -0.026902  0  3.974819  0
C  C31  1  0.20632799  0.19581003  0.57313092  1  0  -0.039216  0  3.756326  0  0  -0.02898  0  3.99097  0  0  -0.033507  0  4.015173  0  0  -0.000601  -0.026203  0  3.974869  0
C  C32  1  0.92033218  0.80751307  0.52245577  1  0  0.117394  0  3.784197  0  0  0.115451  0  4.030025  0  0  0.117584  0  4.052033  0  0  0.115744  0.113908  0  4.015268  0
C  C33  1  0.07972738  0.19242019  0.47754749  1  0  0.117112  0  3.784433  0  0  0.115126  0  4.030213  0  0  0.117299  0  4.052145  0  0  0.115834  0.113553  0  4.015507  0
C  C34  1  0.08132144  0.72558739  0.52494430  1  0  0.121808  0  3.783398  0  0  0.11774  0  4.031142  0  0  0.120254  0  4.05295  0  0  0.116673  0.11596  0  4.016515  0
C  C35  1  0.91875608  0.27437257  0.47503367  1  0  0.122139  0  3.783551  0  0  0.118365  0  4.030919  0  0  0.120863  0  4.052712  0  0  0.116934  0.116601  0  4.016297  0
C  C36  1  0.28383527  0.56148810  0.43122812  1  0  -0.036608  0  3.690305  0  0  -0.064058  0  3.943079  0  0  -0.061231  0  3.961288  0  0  -0.065815  -0.065573  0  3.930644  0
C  C37  1  0.71618482  0.43850843  0.56869012  1  0  -0.036388  0  3.690641  0  0  -0.063892  0  3.943392  0  0  -0.061056  0  3.961607  0  0  -0.065598  -0.065458  0  3.930929  0
C  C38  1  0.18503011  0.48271948  0.25237073  1  0  0.148321  0  3.674937  0  0  0.115501  0  3.928172  0  0  0.12361  0  3.945806  0  0  0.065823  0.110322  0  3.916014  0
C  C39  1  0.81476738  0.51721560  0.74757360  1  0  0.147674  0  3.675635  0  0  0.115102  0  3.928572  0  0  0.123208  0  3.946225  0  0  0.065564  0.109915  0  3.916408  0
C  C40  1  0.00051831  0.88873696  0.69358724  1  0  0.077843  0  3.679935  0  0  0.054302  0  3.941308  0  0  0.056385  0  3.95765  0  0  0.056625  0.052897  0  3.930299  0
C  C41  1  0.99964609  0.11123248  0.30641568  1  0  0.078339  0  3.679381  0  0  0.054977  0  3.940755  0  0  0.057147  0  3.957102  0  0  0.056708  0.053513  0  3.929743  0
C  C42  1  0.51729944  0.88059662  0.32889342  1  0  -0.107159  0  3.710075  0  0  -0.119962  0  3.967199  0  0  -0.126786  0  3.988376  0  0  -0.077198  -0.115628  0  3.953067  0
C  C43  1  0.48288234  0.11968390  0.67120541  1  0  -0.106691  0  3.711056  0  0  -0.11979  0  3.968046  0  0  -0.126616  0  3.989228  0  0  -0.077218  -0.115455  0  3.953901  0
C  C44  1  0.15488937  0.80046946  0.69607823  1  0  0.084767  0  3.68311  0  0  0.061358  0  3.944228  0  0  0.063965  0  3.960782  0  0  0.056355  0.05962  0  3.933058  0
C  C45  1  0.84532177  0.19954441  0.30390763  1  0  0.083837  0  3.683169  0  0  0.060242  0  3.94438  0  0  0.062842  0  3.96091  0  0  0.056142  0.058488  0  3.933249  0
C  C46  1  0.31608380  0.48133328  0.34104948  1  0  -0.110977  0  3.705947  0  0  -0.125284  0  3.964102  0  0  -0.132398  0  3.985573  0  0  -0.080363  -0.120762  0  3.949748  0
C  C47  1  0.68382552  0.51862737  0.65884568  1  0  -0.110622  0  3.706218  0  0  -0.124961  0  3.964289  0  0  -0.132063  0  3.98576  0  0  -0.080736  -0.120456  0  3.949976  0
C  C48  1  0.63207591  0.88336002  0.42118208  1  0  -0.034535  0  3.698031  0  0  -0.064028  0  3.951847  0  0  -0.061218  0  3.969853  0  0  -0.06596  -0.065567  0  3.939562  0
C  C49  1  0.36814092  0.11680845  0.57889407  1  0  -0.035798  0  3.698809  0  0  -0.064953  0  3.952638  0  0  -0.062174  0  3.970677  0  0  -0.066208  -0.066478  0  3.94034  0
C  C50  1  0.45259947  0.24800022  0.07819162  1  0  0.664297  0  3.948777  0  0  0.619891  0  4.237742  0  0  0.654453  0  4.230937  0  0  0.1983  0.596531  0  4.241143  0
C  C51  1  0.54724841  0.75184374  0.92181144  1  0  0.664031  0  3.949088  0  0  0.619399  0  4.238312  0  0  0.653963  0  4.231515  0  0  0.198086  0.596038  0  4.241705  0
C  C52  1  0.33124959  0.09858636  0.09443669  1  0  -0.161756  0  3.643506  0  0  -0.182086  0  3.90268  0  0  -0.187532  0  3.916025  0  0  -0.087081  -0.178552  0  3.893787  0
C  C53  1  0.66850398  0.90132325  0.90557396  1  0  -0.16123  0  3.642994  0  0  -0.181548  0  3.90218  0  0  -0.186987  0  3.915524  0  0  -0.087181  -0.178021  0  3.89329  0
C  C54  1  0.23172532  0.97095789  0.02041922  1  0  -0.136908  0  3.636006  0  0  -0.156203  0  3.894498  0  0  -0.160902  0  3.908849  0  0  -0.080918  -0.153183  0  3.884958  0
C  C55  1  0.76810484  0.02895676  0.97958482  1  0  -0.137691  0  3.636166  0  0  -0.156799  0  3.894593  0  0  -0.161499  0  3.908929  0  0  -0.080984  -0.153778  0  3.885067  0
C  C56  1  0.11064153  0.82252032  0.03833661  1  0  0.670545  0  3.943241  0  0  0.625466  0  4.232707  0  0  0.659754  0  4.226888  0  0  0.198539  0.602263  0  4.235449  0
C  C57  1  0.88933801  0.17733006  0.96169043  1  0  0.670948  0  3.942065  0  0  0.625682  0  4.231718  0  0  0.659969  0  4.225895  0  0  0.19885  0.602482  0  4.234461  0
N  N58  1  0.88303538  0.89123335  0.60779619  1  0  -0.296696  0  3.053493  0  0  -0.267537  0  3.321497  0  0  -0.275632  0  3.336938  0  0  -0.299913  -0.261744  0  3.310911  0
N  N59  1  0.11702802  0.10868762  0.39221803  1  0  -0.296957  0  3.053951  0  0  -0.267882  0  3.321993  0  0  -0.275996  0  3.337378  0  0  -0.30001  -0.26208  0  3.31145  0
N  N60  1  0.19643368  0.72092519  0.61285820  1  0  -0.293082  0  3.045209  0  0  -0.264728  0  3.314509  0  0  -0.272592  0  3.329237  0  0  -0.298901  -0.259144  0  3.304428  0
N  N61  1  0.80372501  0.27905552  0.38711480  1  0  -0.292451  0  3.045557  0  0  -0.264233  0  3.314969  0  0  -0.272091  0  3.329705  0  0  -0.299043  -0.258653  0  3.304895  0
N  N62  1  0.71950167  0.72062242  0.24654166  1  0  -0.329632  0  3.186089  0  0  -0.258436  0  3.433629  0  0  -0.278063  0  3.454594  0  0  -0.283854  -0.244863  0  3.419034  0
N  N63  1  0.28054639  0.27956952  0.75348606  1  0  -0.329222  0  3.186048  0  0  -0.25822  0  3.433742  0  0  -0.277817  0  3.454646  0  0  -0.283777  -0.244662  0  3.419155  0
N  N64  1  0.03268769  0.55894119  0.25165791  1  0  -0.329498  0  3.192461  0  0  -0.257499  0  3.440096  0  0  -0.277321  0  3.460802  0  0  -0.281625  -0.243831  0  3.425694  0
N  N65  1  0.96711503  0.44102153  0.74831187  1  0  -0.329054  0  3.192357  0  0  -0.256987  0  3.439838  0  0  -0.276821  0  3.460559  0  0  -0.28108  -0.243312  0  3.425428  0
O  O66  1  0.55656948  0.35081722  0.15722041  1  0  -0.64234  0  1.920883  0  0  -0.583626  0  2.152746  0  0  -0.611162  0  2.144779  0  0  -0.310584  -0.563987  0  2.157375  0
O  O67  1  0.44330758  0.64907123  0.84278639  1  0  -0.642113  0  1.921443  0  0  -0.5833  0  2.153309  0  0  -0.610825  0  2.145359  0  0  -0.310315  -0.563665  0  2.157919  0
O  O68  1  0.08213217  0.82205125  0.12627090  1  0  -0.643288  0  1.91519  0  0  -0.586177  0  2.145251  0  0  -0.613925  0  2.138307  0  0  -0.313196  -0.566386  0  2.149181  0
O  O69  1  0.91793678  0.17780758  0.87375604  1  0  -0.643548  0  1.914905  0  0  -0.586258  0  2.145022  0  0  -0.61404  0  2.138085  0  0  -0.313325  -0.566446  0  2.148937  0
O  O70  1  0.44828235  0.26709138  0.98915860  1  0  -0.70581  0  1.995416  0  0  -0.633984  0  2.229232  0  0  -0.665623  0  2.224254  0  0  -0.316622  -0.611435  0  2.231853  0
O  O71  1  0.55159455  0.73271586  0.01083005  1  0  -0.705488  0  1.995847  0  0  -0.633625  0  2.229984  0  0  -0.665281  0  2.225018  0  0  -0.316407  -0.61107  0  2.232607  0
O  O72  1  0.03890814  0.70273079  0.96233936  1  0  -0.716835  0  1.990911  0  0  -0.644243  0  2.226208  0  0  -0.676397  0  2.221127  0  0  -0.320066  -0.62126  0  2.228888  0
O  O73  1  0.96111966  0.29710309  0.03768963  1  0  -0.716635  0  1.989863  0  0  -0.644091  0  2.225249  0  0  -0.676235  0  2.220184  0  0  -0.320053  -0.621116  0  2.22792  0
