# generated using pymatgen
data_ZnH11C14N7O6
_symmetry_space_group_name_H-M   'P 1'
_cell_length_a   9.27925829
_cell_length_b   9.75303533
_cell_length_c   11.14993390
_cell_angle_alpha   87.28487932
_cell_angle_beta   83.69857174
_cell_angle_gamma   65.72666730
_symmetry_Int_Tables_number   1
_chemical_formula_structural   ZnH11C14N7O6
_chemical_formula_sum   'Zn2 H22 C28 N14 O12'
_cell_volume   914.31099402
_cell_formula_units_Z   2
loop_
 _symmetry_equiv_pos_site_id
 _symmetry_equiv_pos_as_xyz
  1  'x, y, z'
loop_
 _atom_site_type_symbol
 _atom_site_label
 _atom_site_symmetry_multiplicity
 _atom_site_fract_x
 _atom_site_fract_y
 _atom_site_fract_z
 _atom_site_occupancy
 _atom_site_hle17_bader_spin_density
 _atom_site_hle17_ddec_charge
 _atom_site_hle17_ddec_spin_density
 _atom_site_hle17_ddec_sum_bond_order
 _atom_site_hle17_magmom
 _atom_site_hse06_10hf_bader_spin_density
 _atom_site_hse06_10hf_ddec_charge
 _atom_site_hse06_10hf_ddec_spin_density
 _atom_site_hse06_10hf_ddec_sum_bond_order
 _atom_site_hse06_10hf_magmom
 _atom_site_hse06_bader_spin_density
 _atom_site_hse06_ddec_charge
 _atom_site_hse06_ddec_spin_density
 _atom_site_hse06_ddec_sum_bond_order
 _atom_site_hse06_magmom
 _atom_site_pbe_bader_spin_density
 _atom_site_pbe_cm5_charge
 _atom_site_pbe_ddec_charge
 _atom_site_pbe_ddec_spin_density
 _atom_site_pbe_ddec_sum_bond_order
 _atom_site_pbe_magmom
Zn  Zn0  1  0.62036876  0.99883254  0.30870424  1  0  1.016884  0  1.861528  0  0  0.829697  0  2.335362  0  0  0.875668  0  2.281518  0  0  0.701106  0.7973  0  2.372767  0
Zn  Zn1  1  0.37962542  0.00118517  0.69129839  1  0  1.016851  0  1.861717  0  0  0.829606  0  2.33565  0  0  0.875485  0  2.28188  0  0  0.701095  0.797206  0  2.373055  0
H  H2  1  0.90319288  0.21648169  0.85002499  1  0  0.114686  0  0.914155  0  0  0.125236  0  0.982148  0  0  0.126762  0  0.980337  0  0  0.128665  0.124099  0  0.982846  0
H  H3  1  0.09682701  0.78349550  0.14996662  1  0  0.114671  0  0.914138  0  0  0.125135  0  0.982107  0  0  0.126522  0  0.980245  0  0  0.128686  0.123999  0  0.98281  0
H  H4  1  0.82049134  0.34808802  0.97091293  1  0  0.102301  0  0.89238  0  0  0.12205  0  0.944812  0  0  0.122689  0  0.943466  0  0  0.128128  0.121434  0  0.945314  0
H  H5  1  0.17954488  0.65189631  0.02907851  1  0  0.10252  0  0.892383  0  0  0.12211  0  0.944843  0  0  0.122592  0  0.943447  0  0  0.12816  0.121496  0  0.945343  0
H  H6  1  0.54434769  0.40071845  0.91631766  1  0  0.084575  0  0.909961  0  0  0.102941  0  0.968342  0  0  0.103302  0  0.968284  0  0  0.120842  0.10263  0  0.968431  0
H  H7  1  0.45567437  0.59927829  0.08368613  1  0  0.084583  0  0.910014  0  0  0.103003  0  0.968347  0  0  0.103333  0  0.968297  0  0  0.120851  0.102696  0  0.968435  0
H  H8  1  0.66123466  0.44397439  0.79618696  1  0  0.104154  0  0.9468  0  0  0.11754  0  1.012799  0  0  0.117716  0  1.013797  0  0  0.120114  0.117099  0  1.012572  0
H  H9  1  0.33879303  0.55601197  0.20380071  1  0  0.10411  0  0.946935  0  0  0.11766  0  1.012728  0  0  0.117784  0  1.013794  0  0  0.120093  0.117215  0  1.012513  0
H  H10  1  0.82801796  0.81732463  0.05120444  1  0  0.105955  0  0.920094  0  0  0.119507  0  0.971572  0  0  0.121436  0  0.969515  0  0  0.141981  0.117997  0  0.973188  0
H  H11  1  0.17197563  0.18267284  0.94880923  1  0  0.105957  0  0.920134  0  0  0.119455  0  0.971667  0  0  0.121311  0  0.969628  0  0  0.141947  0.117947  0  0.973279  0
H  H12  1  0.65286500  0.27088816  0.15463895  1  0  0.108549  0  0.972072  0  0  0.111567  0  1.045372  0  0  0.114858  0  1.040382  0  0  0.138552  0.109021  0  1.048656  0
H  H13  1  0.34714795  0.72910922  0.84534685  1  0  0.108665  0  0.971875  0  0  0.11168  0  1.045174  0  0  0.114772  0  1.040175  0  0  0.138599  0.109109  0  1.048488  0
H  H14  1  0.72399891  0.00857357  0.56873158  1  0  0.114332  0  0.954777  0  0  0.123162  0  1.013182  0  0  0.125958  0  1.01016  0  0  0.138835  0.121001  0  1.015508  0
H  H15  1  0.27599721  0.99141794  0.43126244  1  0  0.114335  0  0.954773  0  0  0.123072  0  1.013284  0  0  0.125866  0  1.010266  0  0  0.138819  0.120914  0  1.015611  0
H  H16  1  0.39801527  0.25358026  0.85573169  1  0  0.116983  0  0.912419  0  0  0.128732  0  0.971634  0  0  0.131443  0  0.967924  0  0  0.150714  0.12674  0  0.974197  0
H  H17  1  0.60198668  0.74642738  0.14426985  1  0  0.116971  0  0.91243  0  0  0.128722  0  0.971644  0  0  0.131428  0  0.967949  0  0  0.150704  0.126729  0  0.974208  0
H  H18  1  0.11398031  0.49148144  0.26998770  1  0  0.115465  0  0.936661  0  0  0.121846  0  1.00089  0  0  0.126667  0  0.996127  0  0  0.109738  0.118298  0  1.004359  0
H  H19  1  0.88598306  0.50853013  0.73002362  1  0  0.11551  0  0.936538  0  0  0.121931  0  1.000763  0  0  0.126768  0  0.995969  0  0  0.109749  0.118365  0  1.004257  0
H  H20  1  0.96901455  0.78338243  0.57908933  1  0  0.129861  0  0.92987  0  0  0.13622  0  0.992522  0  0  0.140337  0  0.98872  0  0  0.121104  0.133243  0  0.995234  0
H  H21  1  0.03097805  0.21663646  0.42091699  1  0  0.129921  0  0.92994  0  0  0.13625  0  0.99262  0  0  0.140367  0  0.988821  0  0  0.121132  0.133283  0  0.995324  0
H  H22  1  0.40915754  0.38495929  0.56218228  1  0  0.12671  0  0.942524  0  0  0.129654  0  1.012237  0  0  0.133881  0  1.008867  0  0  0.115355  0.12665  0  1.014551  0
H  H23  1  0.59082922  0.61504354  0.43782099  1  0  0.126686  0  0.942513  0  0  0.129662  0  1.012211  0  0  0.133884  0  1.008845  0  0  0.115338  0.126667  0  1.014491  0
C  C24  1  0.79950273  0.26918123  0.91558428  1  0  -0.033565  0  3.612388  0  0  -0.115298  0  3.881408  0  0  -0.103084  0  3.894916  0  0  -0.037502  -0.117288  0  3.874533  0
C  C25  1  0.20051912  0.73078929  0.08441289  1  0  -0.033655  0  3.612634  0  0  -0.114916  0  3.88114  0  0  -0.101392  0  3.89392  0  0  -0.037423  -0.116915  0  3.874286  0
C  C26  1  0.65000412  0.35221483  0.85143014  1  0  -0.02733  0  3.618626  0  0  -0.109005  0  3.883947  0  0  -0.105152  0  3.892409  0  0  -0.039778  -0.110887  0  3.876668  0
C  C27  1  0.35000307  0.64776884  0.14855696  1  0  -0.027288  0  3.618819  0  0  -0.109204  0  3.884149  0  0  -0.105431  0  3.89238  0  0  -0.039779  -0.111081  0  3.876868  0
C  C28  1  0.79848091  0.93700229  0.04844095  1  0  0.199004  0  3.695709  0  0  0.146052  0  3.985234  0  0  0.15777  0  3.995116  0  0  0.147898  0.1388  0  3.976512  0
C  C29  1  0.20152509  0.06299626  0.95155531  1  0  0.199049  0  3.695731  0  0  0.14613  0  3.985221  0  0  0.157641  0  3.994849  0  0  0.147939  0.138874  0  3.976504  0
C  C30  1  0.70937881  0.16601876  0.10501499  1  0  0.191502  0  3.639034  0  0  0.110823  0  3.903977  0  0  0.135192  0  3.918077  0  0  0.166114  0.101065  0  3.897122  0
C  C31  1  0.29063206  0.83398091  0.89497447  1  0  0.19148  0  3.638613  0  0  0.110779  0  3.903619  0  0  0.136634  0  3.916795  0  0  0.166113  0.101041  0  3.896769  0
C  C32  1  0.66859352  0.08527610  0.64434969  1  0  0.221186  0  3.645409  0  0  0.169386  0  3.930096  0  0  0.180929  0  3.941674  0  0  0.158669  0.161804  0  3.922672  0
C  C33  1  0.33139880  0.91471436  0.35565371  1  0  0.221193  0  3.645425  0  0  0.169445  0  3.930104  0  0  0.180977  0  3.941708  0  0  0.158694  0.161861  0  3.922683  0
C  C34  1  0.50130013  0.20664552  0.79061989  1  0  0.179682  0  3.643138  0  0  0.093223  0  3.914127  0  0  0.108338  0  3.924671  0  0  0.168543  0.083663  0  3.906577  0
C  C35  1  0.49869437  0.79336419  0.20937867  1  0  0.179608  0  3.642905  0  0  0.093171  0  3.913904  0  0  0.108259  0  3.924485  0  0  0.16849  0.083611  0  3.906355  0
C  C36  1  0.27541524  0.42495053  0.40765111  1  0  -0.053491  0  3.728361  0  0  -0.027658  0  3.965417  0  0  -0.038272  0  3.988587  0  0  -0.012187  -0.021147  0  3.949957  0
C  C37  1  0.72456292  0.57505207  0.59234941  1  0  -0.05329  0  3.728143  0  0  -0.027407  0  3.96515  0  0  -0.038015  0  3.988312  0  0  -0.01195  -0.020896  0  3.949682  0
C  C38  1  0.13661466  0.51999054  0.35725499  1  0  -0.047911  0  3.671533  0  0  -0.089673  0  3.924798  0  0  -0.085399  0  3.942631  0  0  -0.063019  -0.091853  0  3.912487  0
C  C39  1  0.86336881  0.48000999  0.64275051  1  0  -0.047932  0  3.671441  0  0  -0.089814  0  3.924718  0  0  -0.085534  0  3.942513  0  0  -0.063089  -0.091985  0  3.912424  0
C  C40  1  0.02713291  0.65041904  0.41617870  1  0  -0.054877  0  3.748469  0  0  -0.030123  0  3.987398  0  0  -0.040883  0  4.011661  0  0  -0.011278  -0.02355  0  3.971299  0
C  C41  1  0.97286324  0.34959188  0.58382233  1  0  -0.055135  0  3.749039  0  0  -0.030247  0  3.987856  0  0  -0.041003  0  4.01211  0  0  -0.011346  -0.023675  0  3.971772  0
C  C42  1  0.05304167  0.68389222  0.53007686  1  0  -0.066778  0  3.656225  0  0  -0.107026  0  3.91169  0  0  -0.101892  0  3.927395  0  0  -0.057717  -0.109755  0  3.900797  0
C  C43  1  0.94694536  0.31611979  0.46993216  1  0  -0.066836  0  3.656464  0  0  -0.107129  0  3.911925  0  0  -0.101999  0  3.927632  0  0  -0.057746  -0.109868  0  3.901035  0
C  C44  1  0.18981450  0.58607679  0.58037456  1  0  0.064246  0  3.70096  0  0  0.060419  0  3.95858  0  0  0.054348  0  3.981575  0  0  0.080119  0.064016  0  3.942931  0
C  C45  1  0.81016474  0.41392605  0.41963840  1  0  0.064228  0  3.701174  0  0  0.060478  0  3.958694  0  0  0.054414  0  3.981681  0  0  0.080105  0.064074  0  3.943048  0
C  C46  1  0.30328699  0.45839638  0.52076453  1  0  -0.06563  0  3.65031  0  0  -0.106651  0  3.908697  0  0  -0.101364  0  3.924144  0  0  -0.063138  -0.109503  0  3.897956  0
C  C47  1  0.69669327  0.54160408  0.47924039  1  0  -0.065638  0  3.650727  0  0  -0.106724  0  3.909082  0  0  -0.101436  0  3.924527  0  0  -0.063167  -0.109569  0  3.898337  0
C  C48  1  0.39104893  0.28891957  0.33727479  1  0  0.63336  0  3.936606  0  0  0.586632  0  4.228268  0  0  0.620036  0  4.222886  0  0  0.194745  0.563817  0  4.231655  0
C  C49  1  0.60893539  0.71109107  0.66272381  1  0  0.633324  0  3.936719  0  0  0.586629  0  4.22833  0  0  0.620024  0  4.22297  0  0  0.194706  0.563812  0  4.231715  0
C  C50  1  0.88392059  0.75121371  0.35481832  1  0  0.635008  0  3.928998  0  0  0.586894  0  4.222116  0  0  0.620641  0  4.216664  0  0  0.19941  0.564131  0  4.225067  0
C  C51  1  0.11607404  0.24880047  0.64517639  1  0  0.635321  0  3.928852  0  0  0.587131  0  4.222016  0  0  0.620884  0  4.216549  0  0  0.199424  0.564368  0  4.224971  0
N  N52  1  0.78421765  0.15120567  0.99347067  1  0  0.02907  0  3.583958  0  0  0.150939  0  3.776093  0  0  0.110653  0  3.841077  0  0  -0.135896  0.158535  0  3.758409  0
N  N53  1  0.21579827  0.84878281  0.00652251  1  0  0.028969  0  3.583734  0  0  0.150663  0  3.775939  0  0  0.108116  0  3.840986  0  0  -0.136011  0.158262  0  3.758254  0
N  N54  1  0.84061726  0.00598333  0.95485273  1  0  -0.244238  0  2.82292  0  0  -0.255101  0  3.093774  0  0  -0.253079  0  3.11356  0  0  -0.219917  -0.250582  0  3.084672  0
N  N55  1  0.15939967  0.99400305  0.04514853  1  0  -0.244312  0  2.822832  0  0  -0.255152  0  3.093709  0  0  -0.251869  0  3.112931  0  0  -0.219968  -0.250633  0  3.08461  0
N  N56  1  0.71701300  0.03159087  0.14314349  1  0  -0.411937  0  3.265153  0  0  -0.331083  0  3.57135  0  0  -0.352146  0  3.57633  0  0  -0.348029  -0.316447  0  3.565268  0
N  N57  1  0.28298422  0.96841996  0.85685116  1  0  -0.411974  0  3.265109  0  0  -0.33105  0  3.571225  0  0  -0.352349  0  3.575838  0  0  -0.348038  -0.316414  0  3.565134  0
N  N58  1  0.62209573  0.24935921  0.77676613  1  0  0.042326  0  3.583176  0  0  0.164896  0  3.770897  0  0  0.154776  0  3.794495  0  0  -0.135148  0.170404  0  3.757073  0
N  N59  1  0.37790691  0.75063474  0.22323071  1  0  0.042421  0  3.58253  0  0  0.164877  0  3.770463  0  0  0.154772  0  3.793999  0  0  -0.135073  0.170385  0  3.756641  0
N  N60  1  0.73019711  0.17331786  0.68410889  1  0  -0.254478  0  2.815799  0  0  -0.257134  0  3.078211  0  0  -0.266199  0  3.093033  0  0  -0.214647  -0.250874  0  3.068432  0
N  N61  1  0.26980792  0.82666602  0.31589276  1  0  -0.254578  0  2.815691  0  0  -0.257203  0  3.078111  0  0  -0.266328  0  3.092988  0  0  -0.214734  -0.250944  0  3.068332  0
N  N62  1  0.52694938  0.10257079  0.70774464  1  0  -0.403545  0  3.261529  0  0  -0.32301  0  3.573815  0  0  -0.344899  0  3.582537  0  0  -0.345209  -0.308452  0  3.568285  0
N  N63  1  0.47303859  0.89743666  0.29226185  1  0  -0.40352  0  3.261203  0  0  -0.322929  0  3.573402  0  0  -0.344823  0  3.582138  0  0  -0.345157  -0.308373  0  3.567871  0
N  N64  1  0.21212697  0.61571283  0.70257603  1  0  0.509247  0  3.891082  0  0  0.539804  0  4.182629  0  0  0.561286  0  4.190964  0  0  0.059007  0.525449  0  4.176913  0
N  N65  1  0.78787775  0.38427903  0.29742879  1  0  0.509116  0  3.89149  0  0  0.539707  0  4.18297  0  0  0.561192  0  4.191281  0  0  0.059013  0.525351  0  4.17726  0
O  O66  1  0.50005586  0.18953989  0.39734701  1  0  -0.646179  0  2.007111  0  0  -0.574998  0  2.276758  0  0  -0.603949  0  2.262595  0  0  -0.339881  -0.554354  0  2.28576  0
O  O67  1  0.49991629  0.81045920  0.60265428  1  0  -0.646283  0  2.007096  0  0  -0.575105  0  2.27674  0  0  -0.604059  0  2.262599  0  0  -0.3399  -0.554464  0  2.28574  0
O  O68  1  0.37619098  0.28000156  0.22817037  1  0  -0.617989  0  1.876387  0  0  -0.579073  0  2.085212  0  0  -0.600795  0  2.077142  0  0  -0.340059  -0.563832  0  2.090943  0
O  O69  1  0.62380689  0.72003197  0.77182387  1  0  -0.617949  0  1.876547  0  0  -0.579029  0  2.085333  0  0  -0.600791  0  2.077311  0  0  -0.340066  -0.563786  0  2.09106  0
O  O70  1  0.79496047  0.87768704  0.40837761  1  0  -0.638376  0  2.036418  0  0  -0.563776  0  2.298444  0  0  -0.592573  0  2.283694  0  0  -0.327836  -0.543584  0  2.307689  0
O  O71  1  0.20504054  0.12232516  0.59162646  1  0  -0.638414  0  2.036554  0  0  -0.563752  0  2.298593  0  0  -0.59256  0  2.283858  0  0  -0.327782  -0.543557  0  2.307837  0
O  O72  1  0.85876106  0.71063678  0.25703655  1  0  -0.628742  0  1.901188  0  0  -0.591035  0  2.12769  0  0  -0.614432  0  2.120178  0  0  -0.333971  -0.57474  0  2.132207  0
O  O73  1  0.14122909  0.28938981  0.74295882  1  0  -0.628981  0  1.900937  0  0  -0.591233  0  2.127436  0  0  -0.614631  0  2.119914  0  0  -0.334063  -0.574934  0  2.131951  0
O  O74  1  0.09675696  0.70607764  0.76586439  1  0  -0.348288  0  1.719575  0  0  -0.333372  0  1.915013  0  0  -0.343391  0  1.910411  0  0  -0.121687  -0.326699  0  1.918185  0
O  O75  1  0.90325733  0.29392911  0.23413691  1  0  -0.348214  0  1.719619  0  0  -0.333292  0  1.915022  0  0  -0.343277  0  1.910399  0  0  -0.121671  -0.326618  0  1.918198  0
O  O76  1  0.34680668  0.54690096  0.73825199  1  0  -0.401676  0  1.77881  0  0  -0.383176  0  1.997574  0  0  -0.397358  0  1.994427  0  0  -0.14272  -0.373616  0  1.999768  0
O  O77  1  0.65319886  0.45308176  0.26174787  1  0  -0.401545  0  1.778998  0  0  -0.38314  0  1.997813  0  0  -0.397347  0  1.9947  0  0  -0.142717  -0.373586  0  2.00001  0
