# generated using pymatgen
data_ZnH4C17N2(ClO2)4
_symmetry_space_group_name_H-M   'P 1'
_cell_length_a   7.95361826
_cell_length_b   8.81296911
_cell_length_c   23.35742284
_cell_angle_alpha   74.38363696
_cell_angle_beta   82.53114290
_cell_angle_gamma   80.20290774
_symmetry_Int_Tables_number   1
_chemical_formula_structural   ZnH4C17N2(ClO2)4
_chemical_formula_sum   'Zn2 H8 C34 N4 Cl8 O16'
_cell_volume   1547.68099259
_cell_formula_units_Z   2
loop_
 _symmetry_equiv_pos_site_id
 _symmetry_equiv_pos_as_xyz
  1  'x, y, z'
loop_
 _atom_site_type_symbol
 _atom_site_label
 _atom_site_symmetry_multiplicity
 _atom_site_fract_x
 _atom_site_fract_y
 _atom_site_fract_z
 _atom_site_occupancy
 _atom_site_pbe_bader_charge
 _atom_site_pbe_bader_spin_density
 _atom_site_pbe_cm5_charge
 _atom_site_pbe_ddec_charge
 _atom_site_pbe_ddec_spin_density
 _atom_site_pbe_ddec_sum_bond_order
 _atom_site_pbe_magmom
Zn  Zn0  1  0.66277024  0.46911596  0.50609424  1  1.288697  0  0.664585  0.81981  0  2.449495  0
Zn  Zn1  1  0.31356924  0.48906050  0.51611617  1  1.291301  0  0.662298  0.822465  0  2.421681  0
H  H2  1  0.11553145  0.85366050  0.93147682  1  0.138583  0  0.117726  0.136958  0  0.98382  0
H  H3  1  0.93389476  0.52317306  0.04149073  1  0.110045  0  0.118988  0.139051  0  0.981733  0
H  H4  1  0.54372063  0.31519885  0.32780273  1  0.106454  0  0.118373  0.13228  0  0.976118  0
H  H5  1  0.58336455  0.73157751  0.63569754  1  0.11374  0  0.114742  0.127192  0  0.995749  0
H  H6  1  0.29177306  0.01853105  0.50392218  1  0.132232  0  0.112318  0.135277  0  0.983316  0
H  H7  1  0.68054775  0.94170162  0.51810866  1  0.121806  0  0.113805  0.135077  0  0.982902  0
H  H8  1  0.61038273  0.10601510  0.22976376  1  0.612509  0  0.306839  0.34915  0  0.95245  0
H  H9  1  0.66679320  0.01008986  0.75749185  1  0.626857  0  0.342357  0.382423  0  0.856194  0
C  C10  1  0.43683124  0.78251004  0.50248491  1  1.548442  0  0.209561  0.635324  0  4.159273  0
C  C11  1  0.42510186  0.42059533  0.73657002  1  0.103285  0  0.024016  0.082097  0  4.017592  0
C  C12  1  0.48515241  0.75120512  0.23165695  1  0.15326  0  0.017295  0.019488  0  4.005961  0
C  C13  1  0.43896256  0.46573023  0.78893997  1  0.094897  0  0.018583  0.020356  0  3.99785  0
C  C14  1  0.50739029  0.62501409  0.20431517  1  0.35891  0  0.10686  0.146441  0  3.970621  0
C  C15  1  0.49916078  0.60893668  0.78573633  1  0.41477  0  0.102924  0.147055  0  3.965046  0
C  C16  1  0.41928268  0.94951357  0.50656767  1  -0.090053  0  -0.080099  -0.172121  0  3.869085  0
C  C17  1  0.55338440  0.01138622  0.51561496  1  -0.012296  0  -0.071296  -0.149286  0  3.858155  0
C  C18  1  0.49807560  0.52721497  0.39548556  1  1.619749  0  0.216094  0.613918  0  4.178133  0
C  C19  1  0.47540348  0.47269105  0.62327143  1  1.60695  0  0.216486  0.615688  0  4.166914  0
C  C20  1  0.66777592  0.58670840  0.86701343  1  1.333033  0  0.239595  0.455556  0  4.079469  0
C  C21  1  0.53885607  0.17832994  0.51936302  1  1.570473  0  0.219079  0.651546  0  4.129181  0
C  C22  1  0.35675963  0.71076842  0.11493496  1  1.37254  0  0.245474  0.461622  0  4.06964  0
C  C23  1  0.36605681  0.73082337  0.86491864  1  1.386161  0  0.241732  0.447314  0  4.107437  0
C  C24  1  0.67330090  0.61346942  0.11127296  1  1.365662  0  0.246003  0.449911  0  4.100645  0
C  C25  1  0.37287676  0.73656554  0.92733001  1  -0.061464  0  -0.001428  -0.03882  0  3.979599  0
C  C26  1  0.66946577  0.61875852  0.04767130  1  0.022412  0  0.001921  -0.030336  0  3.973771  0
C  C27  1  0.52293561  0.67255922  0.95743154  1  0.052653  0  0.00793  0.044193  0  3.966379  0
C  C28  1  0.51712006  0.67549220  0.01845191  1  -0.027124  0  0.009892  0.048941  0  3.959862  0
C  C29  1  0.67462795  0.60697293  0.92762514  1  0.026109  0  -0.005931  -0.117341  0  3.914607  0
C  C30  1  0.36319618  0.73286807  0.04938922  1  0.053482  0  -0.003692  -0.112123  0  3.902855  0
C  C31  1  0.22744885  0.80251070  0.95623825  1  0.073857  0  -0.072315  -0.146306  0  3.941843  0
C  C32  1  0.52762373  0.46676882  0.23903469  1  0.067311  0  -0.00175  -0.078831  0  3.922773  0
C  C33  1  0.81895631  0.56401691  0.01770376  1  0.075813  0  -0.069434  -0.141866  0  3.933975  0
C  C34  1  0.22046658  0.80062445  0.01699730  1  0.064543  0  0.037029  0.151071  0  4.002381  0
C  C35  1  0.82293814  0.55603174  0.95816903  1  0.049957  0  0.037008  0.154263  0  3.999644  0
C  C36  1  0.54650560  0.32960241  0.21143163  1  1.521029  0  0.234736  0.596137  0  4.081395  0
C  C37  1  0.61647871  0.86122259  0.71997556  1  1.498664  0  0.234489  0.593177  0  4.093221  0
C  C38  1  0.54950394  0.70677367  0.73002426  1  0.080208  0  -0.003641  -0.086032  0  3.926103  0
C  C39  1  0.52590253  0.43756426  0.30096971  1  -0.003608  0  -0.070667  -0.084549  0  3.904421  0
C  C40  1  0.54023544  0.65699141  0.67860834  1  0.035003  0  -0.065374  -0.0782  0  3.901037  0
C  C41  1  0.50030284  0.56214340  0.32862625  1  0.067877  0  -0.004911  -0.049144  0  3.950751  0
C  C42  1  0.47840395  0.51641118  0.68119871  1  0.068043  0  -0.00884  -0.053275  0  3.9427  0
C  C43  1  0.47825064  0.71953637  0.29416933  1  0.096257  0  0.020818  0.07696  0  4.019193  0
N  N44  1  0.51051970  0.64499639  0.84131086  1  -1.167759  0  -0.242637  -0.233545  0  3.659195  0
N  N45  1  0.51484443  0.65867276  0.14065098  1  -1.137141  0  -0.240271  -0.238402  0  3.654682  0
N  N46  1  0.04950024  0.44410392  0.52628272  1  -0.134095  0  -0.080048  0.027862  0  3.289104  0
N  N47  1  0.92679758  0.51255373  0.49596565  1  -0.204456  0  -0.080908  0.030026  0  3.291658  0
Cl  Cl48  1  0.03103182  0.88549525  0.04699569  1  -0.149232  0  0.029695  -0.024209  0  1.53566  0
Cl  Cl49  1  0.01607853  0.48121654  0.92725563  1  -0.136704  0  0.023927  -0.033583  0  1.642169  0
Cl  Cl50  1  0.44410346  0.87242815  0.32895254  1  -0.168847  0  0.019652  -0.027994  0  1.557294  0
Cl  Cl51  1  0.35049537  0.24614671  0.74045708  1  -0.157342  0  0.026138  -0.025728  0  1.570973  0
Cl  Cl52  1  0.46807393  0.94396662  0.18842043  1  -0.16628  0  0.040021  -0.021296  0  1.645161  0
Cl  Cl53  1  0.38737904  0.34229451  0.85740094  1  -0.16908  0  0.011229  -0.033948  0  1.607437  0
Cl  Cl54  1  0.00190263  0.28132082  0.57986883  1  0.253317  0  0.244326  0.188041  0  1.478538  0
Cl  Cl55  1  0.97328210  0.67519800  0.44212280  1  0.247202  0  0.238394  0.182492  0  1.485652  0
O  O56  1  0.58694195  0.70357456  0.50317891  1  -1.170607  0  -0.322635  -0.570462  0  2.386044  0
O  O57  1  0.22534700  0.73203320  0.14717504  1  -1.075473  0  -0.262533  -0.413503  0  2.129526  0
O  O58  1  0.24250897  0.79033671  0.83582632  1  -1.096726  0  -0.279134  -0.434693  0  2.073227  0
O  O59  1  0.80331840  0.56917287  0.13780968  1  -1.088362  0  -0.267137  -0.420017  0  2.078118  0
O  O60  1  0.50320807  0.33511892  0.16238086  1  -1.131415  0  -0.295055  -0.481809  0  2.080067  0
O  O61  1  0.61568491  0.19281776  0.24836255  1  -1.115286  0  -0.338893  -0.487068  0  2.280404  0
O  O62  1  0.65735260  0.94280869  0.67038671  1  -1.134323  0  -0.293965  -0.487394  0  2.064318  0
O  O63  1  0.62808478  0.90528433  0.77062753  1  -1.118931  0  -0.330819  -0.478546  0  2.277412  0
O  O64  1  0.39000003  0.25182510  0.52919579  1  -1.165114  0  -0.321655  -0.566645  0  2.369848  0
O  O65  1  0.29887231  0.72911832  0.50017720  1  -1.138511  0  -0.323814  -0.552045  0  2.304707  0
O  O66  1  0.67931823  0.23660719  0.51067134  1  -1.132348  0  -0.319589  -0.539548  0  2.28988  0
O  O67  1  0.64031843  0.52076445  0.41566298  1  -1.146327  0  -0.315303  -0.539372  0  2.311516  0
O  O68  1  0.33049476  0.48243487  0.60437605  1  -1.147252  0  -0.313173  -0.536081  0  2.298347  0
O  O69  1  0.35474054  0.50591149  0.42508488  1  -1.148523  0  -0.318341  -0.557074  0  2.336488  0
O  O70  1  0.62179957  0.43794088  0.59726551  1  -1.155965  0  -0.319638  -0.556937  0  2.349348  0
O  O71  1  0.78529690  0.51968736  0.83922866  1  -1.073454  0  -0.268012  -0.421035  0  2.123253  0
