# generated using pymatgen
data_Zn2H40C65(NO7)4
_symmetry_space_group_name_H-M   'P 1'
_cell_length_a   9.97691863
_cell_length_b   10.91798265
_cell_length_c   27.96537033
_cell_angle_alpha   87.58096466
_cell_angle_beta   90.53125070
_cell_angle_gamma   93.00914858
_symmetry_Int_Tables_number   1
_chemical_formula_structural   Zn2H40C65(NO7)4
_chemical_formula_sum   'Zn2 H40 C65 N4 O28'
_cell_volume   3039.21988083
_cell_formula_units_Z   1
loop_
 _symmetry_equiv_pos_site_id
 _symmetry_equiv_pos_as_xyz
  1  'x, y, z'
loop_
 _atom_site_type_symbol
 _atom_site_label
 _atom_site_symmetry_multiplicity
 _atom_site_fract_x
 _atom_site_fract_y
 _atom_site_fract_z
 _atom_site_occupancy
 _atom_site_pbe_bader_charge
 _atom_site_pbe_bader_spin_density
 _atom_site_pbe_cm5_charge
 _atom_site_pbe_ddec_charge
 _atom_site_pbe_ddec_spin_density
 _atom_site_pbe_ddec_sum_bond_order
 _atom_site_pbe_magmom
Zn  Zn0  1  0.63822416  0.51221657  0.50068109  1  1.30218  0  0.679849  0.853566  0  2.344514  0
Zn  Zn1  1  0.34694232  0.49401141  0.49828343  1  1.310499  0  0.683142  0.855627  0  2.37534  0
H  H2  1  0.66571224  0.40002930  0.65960772  1  0.081213  0  0.108595  0.108981  0  0.996066  0
H  H3  1  0.63854025  0.39204354  0.74840173  1  0.051122  0  0.114545  0.126017  0  0.971953  0
H  H4  1  0.33781776  0.32379280  0.25986078  1  0.074087  0  0.120872  0.146597  0  0.967188  0
H  H5  1  0.52203577  0.17816601  0.12287885  1  0.109396  0  0.111948  0.112672  0  1.003712  0
H  H6  1  0.48800294  0.17951056  0.03509623  1  0.055016  0  0.106697  0.106967  0  1.00645  0
H  H7  1  0.45420144  0.18455579  0.96733680  1  0.070068  0  0.10834  0.109806  0  1.014998  0
H  H8  1  0.33621730  0.63644062  0.64478423  1  0.074119  0  0.107151  0.10703  0  1.028083  0
H  H9  1  0.31011560  0.63177759  0.73347512  1  0.07164  0  0.112462  0.124192  0  0.977982  0
H  H10  1  0.42288093  0.79499144  0.03653990  1  0.096321  0  0.112082  0.126411  0  0.998924  0
H  H11  1  0.66061119  0.57589228  0.35253680  1  0.136185  0  0.11235  0.108838  0  1.048626  0
H  H12  1  0.47784923  0.80594179  0.96651449  1  0.087945  0  0.112758  0.12823  0  0.999268  0
H  H13  1  0.27081773  0.09776739  0.53359587  1  0.106372  0  0.109893  0.127807  0  1.00701  0
H  H14  1  0.76067116  0.91528547  0.44994311  1  0.088604  0  0.107824  0.069925  0  0.976684  0
H  H15  1  0.80373206  0.12381137  0.51959358  1  0.053638  0  0.107872  0.113225  0  0.984024  0
H  H16  1  0.86849915  0.41584502  0.60343690  1  0.09933  0  0.11354  0.143248  0  0.976432  0
H  H17  1  0.82017095  0.28935166  0.56694144  1  0.094314  0  0.112345  0.141288  0  0.979338  0
H  H18  1  0.06079290  0.24619137  0.55422343  1  0.120972  0  0.124816  0.133371  0  0.945817  0
H  H19  1  0.66216253  0.80388234  0.82962937  1  0.083236  0  0.103606  0.116629  0  1.016568  0
H  H20  1  0.72051367  0.83865269  0.88937439  1  0.047333  0  0.094746  0.091354  0  0.992078  0
H  H21  1  0.65838657  0.95770818  0.84976997  1  0.136968  0  0.110587  0.13541  0  1.011582  0
H  H22  1  0.49557901  0.81681611  0.19424735  1  0.150481  0  0.10688  0.128202  0  1.031579  0
H  H23  1  0.50691206  0.95933100  0.15957859  1  0.078848  0  0.110227  0.120426  0  0.978639  0
H  H24  1  0.62527145  0.84441464  0.14995216  1  0.019533  0  0.09649  0.093273  0  0.993318  0
H  H25  1  0.80731416  0.66469672  0.20783485  1  0.6251  0  0.350736  0.386176  0  0.84516  0
H  H26  1  0.32452563  0.72730304  0.57492274  1  0.078237  0  0.094305  0.101661  0  1.056755  0
H  H27  1  0.14840068  0.74319968  0.57915323  1  0.081413  0  0.101119  0.106604  0  0.994232  0
H  H28  1  0.26169226  0.85490770  0.60562278  1  0.074457  0  0.096318  0.095948  0  0.980792  0
H  H29  1  0.99789346  0.98228415  0.51088056  1  0.037249  0  0.087304  0.082114  0  1.006283  0
H  H30  1  0.96889989  0.84818438  0.47653457  1  0.02654  0  0.085748  0.073255  0  1.04324  0
H  H31  1  0.99777451  0.83350216  0.53990388  1  0.04709  0  0.101074  0.107667  0  1.015532  0
H  H32  1  0.90129219  0.27687259  0.41549022  1  0.603284  0  0.341203  0.383917  0  0.854052  0
H  H33  1  0.19933453  0.78671478  0.43881324  1  0.11875  0  0.107343  0.12273  0  1.010602  0
H  H34  1  0.05191580  0.76178510  0.40146573  1  0.084068  0  0.10128  0.099492  0  1.031405  0
H  H35  1  0.21525440  0.74118128  0.37805592  1  0.093843  0  0.121538  0.137464  0  0.947036  0
H  H36  1  0.86205055  0.59682448  0.34398543  1  0.67436  0  0.311305  0.380775  0  0.933655  0
H  H37  1  0.19747354  0.47632391  0.65334953  1  0.608595  0  0.324001  0.365507  0  0.912288  0
H  H38  1  0.42211228  0.99064439  0.87703046  1  0.64375  0  0.322749  0.368501  0  0.930187  0
H  H39  1  0.46737660  0.20621753  0.39845567  1  0.133626  0  0.103321  0.120492  0  1.020102  0
H  H40  1  0.31738681  0.11311448  0.38806629  1  0.065869  0  0.105862  0.112482  0  0.971687  0
H  H41  1  0.30981690  0.24927301  0.42195350  1  0.096734  0  0.099623  0.116462  0  1.019678  0
C  C42  1  0.47598622  0.26780630  0.51333223  1  1.587889  0  0.217314  0.59666  0  4.178187  0
C  C43  1  0.51248001  0.51758324  0.59309087  1  1.582763  0  0.215233  0.592701  0  4.166693  0
C  C44  1  0.47993684  0.73460840  0.49769970  1  1.595387  0  0.219228  0.607693  0  4.177453  0
C  C45  1  0.49851676  0.45831133  0.40937368  1  1.592309  0  0.219626  0.613201  0  4.17355  0
C  C46  1  0.43679288  0.39347827  0.82117644  1  1.311757  0  0.241442  0.431328  0  4.115603  0
C  C47  1  0.47346669  0.62218560  0.81978272  1  1.301372  0  0.240481  0.440319  0  4.095462  0
C  C48  1  0.38610308  0.57920231  0.71721089  1  -0.053462  0  -0.084533  -0.15138  0  3.987649  0
C  C49  1  0.40084151  0.58163709  0.66771382  1  -0.072159  0  -0.087757  -0.112963  0  4.00799  0
C  C50  1  0.58756631  0.44997063  0.67597583  1  -0.056421  0  -0.075346  -0.072833  0  3.959414  0
C  C51  1  0.57276100  0.44590249  0.72550745  1  0.031356  0  -0.078183  -0.146236  0  3.960664  0
C  C52  1  0.47224612  0.51060093  0.74593085  1  0.363321  0  0.09205  0.192409  0  4.007471  0
C  C53  1  0.45436835  0.50247524  0.89872823  1  -0.034118  0  0.007631  0.058414  0  3.990987  0
C  C54  1  0.44817326  0.39172623  0.87376789  1  -0.032933  0  -0.004564  -0.091674  0  3.959687  0
C  C55  1  0.45084883  0.27881722  0.89903708  1  0.002553  0  0.010283  -0.004579  0  3.9358  0
C  C56  1  0.46954090  0.61771547  0.87267586  1  0.022057  0  -0.017281  -0.183865  0  3.949982  0
C  C57  1  0.50112126  0.51694205  0.64661427  1  0.057263  0  -0.009277  -0.015228  0  3.949348  0
C  C58  1  0.50137364  0.44047911  0.35660232  1  0.021575  0  -0.019036  -0.140017  0  3.925677  0
C  C59  1  0.46574644  0.37563855  0.02740597  1  -0.065217  0  0.004804  0.044034  0  3.982008  0
C  C60  1  0.44684951  0.60165538  0.02751520  1  -0.041247  0  0.004593  0.060442  0  3.99988  0
C  C61  1  0.46136871  0.48617565  0.05256640  1  0.007345  0  -0.002062  -0.014998  0  3.937317  0
C  C62  1  0.48476486  0.26535096  0.05334180  1  0.064048  0  -0.084679  -0.124235  0  3.983831  0
C  C63  1  0.50270399  0.26316263  0.10273047  1  -0.059814  0  -0.070619  -0.069377  0  3.990999  0
C  C64  1  0.49678132  0.36986314  0.12787820  1  -0.011096  0  -0.013545  -0.074306  0  3.997365  0
C  C65  1  0.47218476  0.48324000  0.10362110  1  -0.026216  0  0.005471  0.056224  0  3.991682  0
C  C66  1  0.45872738  0.59092494  0.13024608  1  0.013155  0  -0.022829  -0.195762  0  3.951536  0
C  C67  1  0.44737717  0.57636976  0.18276443  1  1.327791  0  0.23977  0.454156  0  4.094139  0
C  C68  1  0.52101631  0.36153397  0.17992530  1  1.34084  0  0.238784  0.436426  0  4.117897  0
C  C69  1  0.41005510  0.38020628  0.27982435  1  0.053164  0  -0.086767  -0.2654  0  3.92092  0
C  C70  1  0.41281134  0.36318780  0.33006190  1  0.573108  0  0.122769  0.299963  0  3.982421  0
C  C71  1  0.59372940  0.51741518  0.33150127  1  0.030265  0  -0.065864  -0.054942  0  3.950377  0
C  C72  1  0.60158556  0.52653665  0.28158990  1  -0.015469  0  -0.02835  -0.156653  0  3.995208  0
C  C73  1  0.50119749  0.45970332  0.25581641  1  0.399958  0  0.104239  0.212966  0  3.98985  0
C  C74  1  0.45354097  0.38052643  0.97519248  1  -0.022756  0  0.005896  0.050558  0  3.990103  0
C  C75  1  0.45216971  0.49668379  0.94996396  1  0.008425  0  0.001542  -0.011844  0  3.931756  0
C  C76  1  0.45269687  0.60786722  0.97509431  1  0.115035  0  0.007772  0.067107  0  3.987009  0
C  C77  1  0.45182165  0.27438721  0.94909628  1  0.066744  0  -0.077878  -0.146613  0  3.941892  0
C  C78  1  0.48328241  0.72489993  0.89893436  1  0.52063  0  0.104539  0.268294  0  4.017366  0
C  C79  1  0.43511231  0.70510353  0.05395558  1  0.058697  0  -0.08802  -0.227533  0  3.935748  0
C  C80  1  0.44251261  0.70313580  0.10449877  1  0.503079  0  0.108269  0.268214  0  4.027764  0
C  C81  1  0.46832140  0.71881486  0.94889716  1  -0.091251  0  -0.089173  -0.232766  0  3.943639  0
C  C82  1  0.59196835  0.07185776  0.50208539  1  -0.017494  0  -0.005544  0.043602  0  3.932995  0
C  C83  1  0.47730772  0.13203062  0.51290495  1  -0.012968  0  -0.008256  -0.039407  0  3.985508  0
C  C84  1  0.36206424  0.05644769  0.52264235  1  0.04142  0  -0.086052  -0.202625  0  3.945464  0
C  C85  1  0.36077218  0.92868250  0.51980312  1  0.46149  0  0.090471  0.23094  0  4.018351  0
C  C86  1  0.47618135  0.86840478  0.50592308  1  -0.025788  0  -0.010351  -0.144734  0  3.914755  0
C  C87  1  0.59043131  0.94566674  0.49872061  1  0.021363  0  -0.002333  0.017471  0  3.909158  0
C  C88  1  0.73739149  0.94521223  0.48601495  1  0.547245  0  0.025728  0.132643  0  3.813037  0
C  C89  1  0.73891805  0.09413759  0.48993070  1  0.023193  0  -0.084189  -0.245357  0  3.838514  0
C  C90  1  0.05208647  0.43409140  0.52625433  1  0.58004  0  0.144614  0.190419  0  3.894756  0
C  C91  1  0.07262709  0.55559214  0.45922659  1  1.10979  0  0.239436  0.342322  0  3.982243  0
C  C92  1  0.93021113  0.56257188  0.45750369  1  0.548038  0  0.128967  -0.017204  0  3.837918  0
C  C93  1  0.91546724  0.45106880  0.52735496  1  0.555813  0  0.131331  0.176409  0  3.903689  0
C  C94  1  0.89213254  0.36750310  0.57126700  1  -0.005862  0  -0.133036  -0.239168  0  3.779921  0
C  C95  1  0.04709328  0.33812679  0.56722557  1  -0.012487  0  -0.059819  -0.171745  0  3.777146  0
C  C96  1  0.64874766  0.86015531  0.86052883  1  0.305441  0  -0.139921  -0.177883  0  3.841043  0
C  C97  1  0.52102898  0.86054565  0.15934295  1  0.344058  0  -0.13577  -0.175936  0  3.870407  0
C  C98  1  0.71850788  0.59870676  0.26250695  1  1.451966  0  0.235625  0.598219  0  4.089249  0
C  C99  1  0.24589937  0.79385800  0.57541059  1  0.311034  0  -0.143855  -0.177789  0  3.90866  0
C  C100  1  0.95135133  0.88825403  0.51133108  1  0.439146  0  -0.150213  -0.170721  0  3.98005  0
C  C101  1  0.76960850  0.16825628  0.44468351  1  1.485411  0  0.228371  0.614951  0  4.086377  0
C  C102  1  0.15316504  0.73277686  0.41018450  1  0.301772  0  -0.126806  -0.170623  0  3.818892  0
C  C103  1  0.86625024  0.61978506  0.41310222  1  1.599117  0  0.235376  0.563452  0  4.171139  0
C  C104  1  0.13752200  0.35511228  0.61049948  1  1.541139  0  0.233608  0.611691  0  4.082558  0
C  C105  1  0.47957618  0.16067019  0.87614697  1  1.589456  0  0.238002  0.592428  0  4.127319  0
C  C106  1  0.35846389  0.20714364  0.39230496  1  0.294457  0  -0.138557  -0.181029  0  3.851054  0
N  N107  1  0.46149025  0.50839934  0.79729357  1  -1.134188  0  -0.230165  -0.204345  0  3.56632  0
N  N108  1  0.49347473  0.46675949  0.20437986  1  -1.180797  0  -0.234168  -0.206003  0  3.577908  0
N  N109  1  0.13531800  0.48866198  0.49424144  1  -1.210093  0  -0.286622  -0.271985  0  3.400319  0
N  N110  1  0.85036201  0.51378630  0.49335060  1  -1.180564  0  -0.269447  -0.182502  0  3.420104  0
O  O111  1  0.58942769  0.32560146  0.50786239  1  -1.170462  0  -0.310215  -0.546572  0  2.342784  0
O  O112  1  0.36243230  0.31438975  0.51762875  1  -1.167007  0  -0.317257  -0.542525  0  2.332379  0
O  O113  1  0.62790362  0.50454394  0.57554565  1  -1.159301  0  -0.313009  -0.539102  0  2.283305  0
O  O114  1  0.40369562  0.53130527  0.56965562  1  -1.179787  0  -0.316729  -0.570745  0  2.35627  0
O  O115  1  0.59441095  0.68952233  0.50154481  1  -1.141377  0  -0.300494  -0.516891  0  2.371064  0
O  O116  1  0.37025756  0.67726100  0.48659314  1  -1.160246  0  -0.313159  -0.547836  0  2.397152  0
O  O117  1  0.60993140  0.48964253  0.42891669  1  -1.169788  0  -0.315505  -0.552474  0  2.375392  0
O  O118  1  0.38459919  0.44884482  0.42939937  1  -1.15899  0  -0.308068  -0.545391  0  2.381992  0
O  O119  1  0.40632562  0.30101686  0.79907688  1  -1.081192  0  -0.260803  -0.414334  0  2.091714  0
O  O120  1  0.56049250  0.26879847  0.20105590  1  -1.105727  0  -0.287385  -0.44902  0  2.065063  0
O  O121  1  0.48510790  0.71823165  0.79515666  1  -1.093524  0  -0.264573  -0.424233  0  2.135928  0
O  O122  1  0.39809260  0.65163913  0.20810927  1  -1.101671  0  -0.270558  -0.433485  0  2.123213  0
O  O123  1  0.51297601  0.84041254  0.87919596  1  -1.074315  0  -0.194645  -0.203314  0  2.569969  0
O  O124  1  0.43199195  0.81608487  0.12212621  1  -1.069279  0  -0.188214  -0.168591  0  2.55707  0
O  O125  1  0.81434640  0.63788134  0.28710628  1  -1.163687  0  -0.291913  -0.511977  0  2.132316  0
O  O126  1  0.72090709  0.62039581  0.21424948  1  -1.140899  0  -0.329035  -0.484169  0  2.263138  0
O  O127  1  0.24130551  0.86537227  0.53110291  1  -1.079887  0  -0.20712  -0.201234  0  2.583369  0
O  O128  1  0.81217037  0.88595515  0.52168014  1  -1.061995  0  -0.226215  -0.185193  0  2.535389  0
O  O129  1  0.70016884  0.16887954  0.40848375  1  -1.148022  0  -0.293967  -0.496898  0  2.086161  0
O  O130  1  0.89014161  0.23427660  0.44693496  1  -1.11136  0  -0.347404  -0.502086  0  2.201084  0
O  O131  1  0.15419700  0.60420429  0.42524468  1  -1.069535  0  -0.164049  -0.150785  0  2.616799  0
O  O132  1  0.79852875  0.70954450  0.41336467  1  -1.109389  0  -0.265835  -0.446876  0  2.117382  0
O  O133  1  0.90006229  0.55966854  0.37464010  1  -1.160628  0  -0.330136  -0.483379  0  2.277694  0
O  O134  1  0.20905139  0.27732635  0.62739180  1  -1.114667  0  -0.283795  -0.466079  0  2.04188  0
O  O135  1  0.12779125  0.46806641  0.62832348  1  -1.112468  0  -0.341073  -0.493705  0  2.236726  0
O  O136  1  0.58616051  0.14784525  0.85625741  1  -1.11883  0  -0.28082  -0.472701  0  2.081262  0
O  O137  1  0.38690076  0.06946767  0.88656069  1  -1.14291  0  -0.338884  -0.483068  0  2.228545  0
O  O138  1  0.32924238  0.27156887  0.34738685  1  -1.066324  0  -0.175988  -0.151079  0  2.539607  0
