# generated using pymatgen
data_Hg2H18C23S3N9O2
_symmetry_space_group_name_H-M   'P 1'
_cell_length_a   9.03012548
_cell_length_b   11.93713176
_cell_length_c   14.48330000
_cell_angle_alpha   85.57248829
_cell_angle_beta   74.73789141
_cell_angle_gamma   87.54495870
_symmetry_Int_Tables_number   1
_chemical_formula_structural   Hg2H18C23S3N9O2
_chemical_formula_sum   'Hg4 H36 C46 S6 N18 O4'
_cell_volume   1501.24263068
_cell_formula_units_Z   2
loop_
 _symmetry_equiv_pos_site_id
 _symmetry_equiv_pos_as_xyz
  1  'x, y, z'
loop_
 _atom_site_type_symbol
 _atom_site_label
 _atom_site_symmetry_multiplicity
 _atom_site_fract_x
 _atom_site_fract_y
 _atom_site_fract_z
 _atom_site_occupancy
 _atom_site_hle17_bader_spin_density
 _atom_site_hle17_ddec_charge
 _atom_site_hle17_ddec_spin_density
 _atom_site_hle17_ddec_sum_bond_order
 _atom_site_hle17_magmom
 _atom_site_hse06_10hf_bader_spin_density
 _atom_site_hse06_10hf_ddec_charge
 _atom_site_hse06_10hf_ddec_spin_density
 _atom_site_hse06_10hf_ddec_sum_bond_order
 _atom_site_hse06_10hf_magmom
 _atom_site_hse06_bader_spin_density
 _atom_site_hse06_ddec_charge
 _atom_site_hse06_ddec_spin_density
 _atom_site_hse06_ddec_sum_bond_order
 _atom_site_hse06_magmom
 _atom_site_pbe_bader_charge
 _atom_site_pbe_bader_spin_density
 _atom_site_pbe_cm5_charge
 _atom_site_pbe_ddec_charge
 _atom_site_pbe_ddec_spin_density
 _atom_site_pbe_ddec_sum_bond_order
 _atom_site_pbe_magmom
Hg  Hg0  1  0.65187009  0.47909574  0.85670452  1  0  0.516834  0  2.211927  0  0  0.381241  0  2.700695  0  0  0.41687  0  2.682378  0  0.61162  0  0.451524  0.357288  0  2.712663  0
Hg  Hg1  1  0.34813219  0.52090694  0.14329591  1  0  0.516849  0  2.211885  0  0  0.381249  0  2.700653  0  0  0.416878  0  2.682337  0  0.611526  0  0.451542  0.357295  0  2.712623  0
Hg  Hg2  1  0.88128378  0.14525584  0.96019151  1  0  0.863729  0  1.912842  0  0  0.67887  0  2.368003  0  0  0.738014  0  2.332075  0  0.983043  0  0.673243  0.637808  0  2.391882  0
Hg  Hg3  1  0.11871396  0.85474516  0.03980976  1  0  0.863811  0  1.912762  0  0  0.678974  0  2.367901  0  0  0.738122  0  2.33197  0  0.983055  0  0.67328  0.637912  0  2.391783  0
H  H4  1  0.98597083  0.59361092  0.82693914  1  0  0.078331  0  0.964473  0  0  0.086355  0  1.032411  0  0  0.087638  0  1.03209  0  0.107606  0  0.109387  0.085332  0  1.03274  0
H  H5  1  0.01403045  0.40638672  0.17306108  1  0  0.07838  0  0.96447  0  0  0.086386  0  1.032452  0  0  0.087665  0  1.03214  0  0.10757  0  0.10939  0.085395  0  1.032746  0
H  H6  1  0.22285720  0.64303164  0.69603831  1  0  0.107813  0  0.970766  0  0  0.112665  0  1.041386  0  0  0.115972  0  1.040145  0  0.126807  0  0.104816  0.11034  0  1.042342  0
H  H7  1  0.77714291  0.35696684  0.30396066  1  0  0.107801  0  0.970744  0  0  0.112642  0  1.041375  0  0  0.11595  0  1.040137  0  0.126809  0  0.104802  0.110316  0  1.042331  0
H  H8  1  0.09016359  0.40191715  0.52677513  1  0  0.119835  0  0.962093  0  0  0.128084  0  1.024873  0  0  0.131206  0  1.024071  0  0.131558  0  0.108638  0.125865  0  1.025574  0
H  H9  1  0.90984005  0.59807880  0.47322549  1  0  0.119836  0  0.962024  0  0  0.128089  0  1.024798  0  0  0.13121  0  1.023998  0  0.131581  0  0.108645  0.12587  0  1.025499  0
H  H10  1  0.85622580  0.36514283  0.66250478  1  0  0.085142  0  0.95547  0  0  0.095023  0  1.017332  0  0  0.096434  0  1.016609  0  0.13061  0  0.113606  0.09397  0  1.017907  0
H  H11  1  0.14377546  0.63485565  0.33749470  1  0  0.085163  0  0.955472  0  0  0.095041  0  1.017333  0  0  0.096453  0  1.016608  0  0.130679  0  0.113617  0.093988  0  1.017908  0
H  H12  1  0.31814353  0.50712508  0.45442146  1  0  0.079921  0  0.930715  0  0  0.086201  0  1.001829  0  0  0.089184  0  0.999075  0  0.117339  0  0.11691  0.083953  0  1.003982  0
H  H13  1  0.68185770  0.49287424  0.54557797  1  0  0.079917  0  0.9307  0  0  0.086207  0  1.001812  0  0  0.089191  0  0.999062  0  0.11736  0  0.116896  0.083958  0  1.003966  0
H  H14  1  0.58560517  0.78039640  0.48921922  1  0  0.087421  0  0.939326  0  0  0.091667  0  1.009829  0  0  0.094756  0  1.007504  0  0.123127  0  0.116918  0.08943  0  1.011593  0
H  H15  1  0.41439259  0.21960376  0.51078142  1  0  0.087472  0  0.939337  0  0  0.091737  0  1.009808  0  0  0.094829  0  1.007485  0  0.123165  0  0.11695  0.089499  0  1.011574  0
H  H16  1  0.03231176  0.91715267  0.25010108  1  0  0.097174  0  0.926749  0  0  0.109256  0  0.982191  0  0  0.110991  0  0.980914  0  0.124017  0  0.126035  0.107853  0  0.983284  0
H  H17  1  0.96768371  0.08284749  0.74990269  1  0  0.097146  0  0.926739  0  0  0.109243  0  0.982181  0  0  0.11098  0  0.980902  0  0.123989  0  0.12601  0.107838  0  0.983275  0
H  H18  1  0.82537750  0.87791832  0.40218876  1  0  0.124226  0  0.922371  0  0  0.136623  0  0.974034  0  0  0.139906  0  0.973089  0  0.124595  0  0.120408  0.134238  0  0.974916  0
H  H19  1  0.17461802  0.12208016  0.59781442  1  0  0.124242  0  0.922423  0  0  0.136653  0  0.974062  0  0  0.139939  0  0.973111  0  0.124579  0  0.120445  0.134268  0  0.974945  0
H  H20  1  0.63761602  0.64377461  0.25219710  1  0  0.115188  0  0.955257  0  0  0.117858  0  1.028234  0  0  0.121568  0  1.026467  0  0.142749  0  0.108157  0.115146  0  1.029712  0
H  H21  1  0.36238046  0.35622975  0.74780210  1  0  0.115212  0  0.95518  0  0  0.117865  0  1.028179  0  0  0.121575  0  1.02641  0  0.142689  0  0.108158  0.11515  0  1.029661  0
H  H22  1  0.85221776  0.69221703  0.10586934  1  0  0.091042  0  0.967923  0  0  0.097699  0  1.036634  0  0  0.099464  0  1.035139  0  0.156131  0  0.112243  0.096306  0  1.037814  0
H  H23  1  0.14778228  0.30778397  0.89413225  1  0  0.090986  0  0.967976  0  0  0.097652  0  1.036667  0  0  0.099426  0  1.035147  0  0.156072  0  0.112232  0.096264  0  1.037831  0
H  H24  1  0.88235706  0.20172045  0.16223977  1  0  0.092241  0  0.95053  0  0  0.105514  0  1.008263  0  0  0.106901  0  1.007103  0  0.130138  0  0.120253  0.104289  0  1.009338  0
H  H25  1  0.11764407  0.79828223  0.83775808  1  0  0.092234  0  0.950475  0  0  0.105503  0  1.00823  0  0  0.106888  0  1.00707  0  0.129985  0  0.120241  0.104277  0  1.009304  0
H  H26  1  0.74065547  0.14638458  0.33414288  1  0  0.121247  0  0.937406  0  0  0.127853  0  1.000107  0  0  0.132046  0  0.997404  0  0.105207  0  0.115441  0.124783  0  1.002303  0
H  H27  1  0.25934569  0.85361726  0.66585571  1  0  0.121168  0  0.937502  0  0  0.127813  0  1.000156  0  0  0.132001  0  0.99746  0  0.105202  0  0.115413  0.124742  0  1.002353  0
H  H28  1  0.40672781  0.99070047  0.22137904  1  0  0.131321  0  0.969931  0  0  0.13931  0  1.028797  0  0  0.142512  0  1.028255  0  0.184667  0  0.112657  0.136944  0  1.029406  0
H  H29  1  0.59327217  0.00930221  0.77862245  1  0  0.131183  0  0.969988  0  0  0.139219  0  1.028825  0  0  0.142423  0  1.028278  0  0.184665  0  0.112616  0.136852  0  1.029436  0
H  H30  1  0.56256112  0.04851471  0.05737153  1  0  0.099142  0  0.95036  0  0  0.104176  0  1.018987  0  0  0.10709  0  1.015977  0  0.155068  0  0.119368  0.101877  0  1.02134  0
H  H31  1  0.43743653  0.95148882  0.94262960  1  0  0.099201  0  0.950241  0  0  0.104187  0  1.018919  0  0  0.107113  0  1.015897  0  0.154672  0  0.119386  0.10189  0  1.02127  0
H  H32  1  0.37365176  0.97579239  0.39629645  1  0  0.094426  0  0.906891  0  0  0.101692  0  0.971237  0  0  0.106343  0  0.965541  0  0.134298  0  0.124129  0.098258  0  0.975434  0
H  H33  1  0.62635166  0.02421029  0.60370378  1  0  0.09442  0  0.906822  0  0  0.101668  0  0.971193  0  0  0.106321  0  0.965496  0  0.134249  0  0.124109  0.098235  0  0.975391  0
H  H34  1  0.15448851  0.25870531  0.08753817  1  0  0.123075  0  0.994059  0  0  0.136522  0  1.06802  0  0  0.138663  0  1.066961  0  0.074228  0  0.080022  0.135003  0  1.068777  0
H  H35  1  0.84551037  0.74129569  0.91246223  1  0  0.123059  0  0.994108  0  0  0.136476  0  1.068093  0  0  0.138613  0  1.067037  0  0.074249  0  0.080012  0.134958  0  1.068844  0
H  H36  1  0.34763822  0.21285739  0.08293522  1  0  0.12442  0  0.968619  0  0  0.140049  0  1.03882  0  0  0.141935  0  1.039107  0  0.047862  0  0.082438  0.138731  0  1.038644  0
H  H37  1  0.65236069  0.78714277  0.91706454  1  0  0.124419  0  0.96858  0  0  0.140045  0  1.038783  0  0  0.141929  0  1.039071  0  0.047856  0  0.082435  0.138725  0  1.038609  0
H  H38  1  0.20447582  0.19491105  0.19199334  1  0  0.137132  0  0.932706  0  0  0.158771  0  0.987192  0  0  0.160495  0  0.987476  0  0.058632  0  0.095275  0.157696  0  0.986848  0
H  H39  1  0.79552309  0.80508911  0.80800641  1  0  0.13715  0  0.932682  0  0  0.158793  0  0.987161  0  0  0.160518  0  0.987444  0  0.058629  0  0.095277  0.157718  0  0.986817  0
C  C40  1  0.65779524  0.22754274  0.78303945  1  0  0.243942  0  3.941839  0  0  0.232871  0  4.258174  0  0  0.249557  0  4.272065  0  0.611927  0  0.12856  0.221393  0  4.248634  0
C  C41  1  0.34220484  0.77245658  0.21695948  1  0  0.243979  0  3.941837  0  0  0.232916  0  4.258149  0  0  0.249601  0  4.272043  0  0.612097  0  0.128624  0.221439  0  4.248606  0
C  C42  1  0.83552707  0.42512561  0.01943079  1  0  0.268369  0  3.950818  0  0  0.249732  0  4.261623  0  0  0.268888  0  4.276264  0  0.607894  0  0.131159  0.236676  0  4.251428  0
C  C43  1  0.16448351  0.57486866  0.98056742  1  0  0.268491  0  3.951055  0  0  0.249854  0  4.261845  0  0  0.269008  0  4.276488  0  0.60778  0  0.13124  0.2368  0  4.251648  0
C  C44  1  0.65738224  0.66367417  0.67865356  1  0  0.239511  0  3.960351  0  0  0.230211  0  4.272239  0  0  0.246652  0  4.287579  0  0.639919  0  0.123951  0.218966  0  4.261776  0
C  C45  1  0.34261787  0.33632430  0.32134403  1  0  0.239443  0  3.960498  0  0  0.230136  0  4.272393  0  0  0.246577  0  4.287734  0  0.639583  0  0.12392  0.218894  0  4.261928  0
C  C46  1  0.01199637  0.55514139  0.75832305  1  0  0.114488  0  3.702783  0  0  0.087247  0  3.947555  0  0  0.09277  0  3.968742  0  0.438088  0  0.041994  0.083737  0  3.933169  0
C  C47  1  0.98800495  0.44485541  0.24167515  1  0  0.114383  0  3.702853  0  0  0.08712  0  3.947675  0  0  0.092642  0  3.968859  0  0.438045  0  0.041962  0.083586  0  3.933279  0
C  C48  1  0.14273249  0.58243280  0.68598764  1  0  -0.125843  0  3.668128  0  0  -0.142314  0  3.904568  0  0  -0.148749  0  3.925418  0  0.024578  0  -0.070781  -0.13811  0  3.890534  0
C  C49  1  0.85726994  0.41756483  0.31401169  1  0  -0.125809  0  3.668108  0  0  -0.14223  0  3.904553  0  0  -0.148678  0  3.925385  0  0.024351  0  -0.070765  -0.138029  0  3.890529  0
C  C50  1  0.17119517  0.52985616  0.59924314  1  0  0.096999  0  3.769259  0  0  0.113147  0  3.996506  0  0  0.115992  0  4.018225  0  -0.044875  0  0.013813  0.1114  0  3.981753  0
C  C51  1  0.82880732  0.47013980  0.40075906  1  0  0.097068  0  3.769167  0  0  0.113168  0  3.996484  0  0  0.116058  0  4.018143  0  -0.044556  0  0.013823  0.111421  0  3.98173  0
C  C52  1  0.06874931  0.44809286  0.59138892  1  0  -0.14881  0  3.68607  0  0  -0.165699  0  3.928151  0  0  -0.173617  0  3.950748  0  -0.007765  0  -0.074755  -0.160448  0  3.912849  0
C  C53  1  0.93125206  0.55190226  0.40861075  1  0  -0.148819  0  3.686022  0  0  -0.165691  0  3.928094  0  0  -0.173623  0  3.950681  0  -0.007854  0  -0.074752  -0.160439  0  3.91279  0
C  C54  1  0.93934880  0.42685444  0.66680313  1  0  0.12319  0  3.691816  0  0  0.092661  0  3.942901  0  0  0.099465  0  3.962765  0  0.437444  0  0.043899  0.088311  0  3.92924  0
C  C55  1  0.06065484  0.57314152  0.33319749  1  0  0.123082  0  3.692008  0  0  0.092554  0  3.943096  0  0  0.099356  0  3.962963  0  0.437312  0  0.043833  0.088203  0  3.929433  0
C  C56  1  0.30012254  0.55738878  0.51707070  1  0  0.106477  0  3.629703  0  0  0.072041  0  3.892412  0  0  0.078527  0  3.90438  0  0.633475  0  0.085443  0.067682  0  3.884291  0
C  C57  1  0.69987530  0.44260886  0.48292870  1  0  0.106506  0  3.629699  0  0  0.072055  0  3.892461  0  0  0.078524  0  3.904424  0  0.633487  0  0.085478  0.067699  0  3.884337  0
C  C58  1  0.59366503  0.73199180  0.42672014  1  0  0.093398  0  3.619094  0  0  0.060495  0  3.879956  0  0  0.064794  0  3.893147  0  0.647825  0  0.082139  0.057662  0  3.87086  0
C  C59  1  0.40633047  0.26800752  0.57328023  1  0  0.093307  0  3.619174  0  0  0.060418  0  3.879973  0  0  0.064709  0  3.893174  0  0.647741  0  0.082088  0.057584  0  3.870878  0
C  C60  1  0.94155591  0.85829947  0.25422647  1  0  0.131475  0  3.677456  0  0  0.094922  0  3.928508  0  0  0.104008  0  3.947828  0  0.483281  0  0.054946  0.089021  0  3.915419  0
C  C61  1  0.05844068  0.14170153  0.74577638  1  0  0.131472  0  3.677468  0  0  0.09489  0  3.928506  0  0  0.103972  0  3.947829  0  0.483231  0  0.054902  0.08899  0  3.915419  0
C  C62  1  0.82693489  0.83546249  0.33797148  1  0  -0.139087  0  3.671721  0  0  -0.158083  0  3.917819  0  0  -0.166691  0  3.93921  0  -0.011236  0  -0.068244  -0.152484  0  3.903361  0
C  C63  1  0.17306175  0.16453683  0.66203077  1  0  -0.139082  0  3.671671  0  0  -0.158077  0  3.917767  0  0  -0.166685  0  3.939164  0  -0.011165  0  -0.068205  -0.15248  0  3.903306  0
C  C64  1  0.71452928  0.75720223  0.33911567  1  0  0.105359  0  3.761607  0  0  0.120591  0  3.991934  0  0  0.124887  0  4.014251  0  -0.019744  0  0.019604  0.117943  0  3.976654  0
C  C65  1  0.28546499  0.24279961  0.66088474  1  0  0.105353  0  3.761512  0  0  0.120559  0  3.991852  0  0  0.124852  0  4.014175  0  -0.019703  0  0.019542  0.117914  0  3.976571  0
C  C66  1  0.72288817  0.70468694  0.25412568  1  0  -0.126711  0  3.676173  0  0  -0.144895  0  3.920307  0  0  -0.152767  0  3.942043  0  -0.016437  0  -0.068026  -0.139969  0  3.906001  0
C  C67  1  0.27710497  0.29531406  0.74587566  1  0  -0.126681  0  3.676099  0  0  -0.144853  0  3.920231  0  0  -0.152725  0  3.941966  0  -0.016207  0  -0.067986  -0.139929  0  3.905927  0
C  C68  1  0.84019362  0.73127236  0.17315660  1  0  0.120569  0  3.673353  0  0  0.087674  0  3.917994  0  0  0.095753  0  3.937842  0  0.433545  0  0.047236  0.082403  0  3.904717  0
C  C69  1  0.15980401  0.26873200  0.82684586  1  0  0.120577  0  3.673354  0  0  0.087677  0  3.917972  0  0  0.09576  0  3.937821  0  0.433349  0  0.047217  0.082409  0  3.904696  0
C  C70  1  0.77754716  0.15393191  0.18056612  1  0  0.123004  0  3.698651  0  0  0.086341  0  3.947276  0  0  0.094441  0  3.967383  0  0.378693  0  0.043777  0.081032  0  3.933827  0
C  C71  1  0.22245402  0.84606909  0.81943321  1  0  0.123026  0  3.698576  0  0  0.086354  0  3.947225  0  0  0.094455  0  3.967331  0  0.378848  0  0.043816  0.081045  0  3.933775  0
C  C72  1  0.69935729  0.12325008  0.27416598  1  0  -0.141804  0  3.690254  0  0  -0.161776  0  3.942151  0  0  -0.169318  0  3.962392  0  0.084973  0  -0.073476  -0.156999  0  3.928757  0
C  C73  1  0.30064156  0.87675176  0.72583368  1  0  -0.141699  0  3.690291  0  0  -0.161691  0  3.942155  0  0  -0.169229  0  3.9624  0  0.085213  0  -0.073442  -0.156914  0  3.92876  0
C  C74  1  0.56517015  0.06061565  0.29101075  1  0  0.097122  0  3.784137  0  0  0.11033  0  4.01735  0  0  0.113068  0  4.040915  0  -0.013753  0  0.01339  0.108714  0  4.001298  0
C  C75  1  0.43483103  0.93938535  0.70898927  1  0  0.097026  0  3.784078  0  0  0.110253  0  4.017308  0  0  0.112991  0  4.040875  0  -0.013926  0  0.013376  0.108638  0  4.001256  0
C  C76  1  0.51171908  0.03641040  0.21261227  1  0  -0.127238  0  3.647418  0  0  -0.143141  0  3.885222  0  0  -0.151602  0  3.906759  0  -0.02136  0  -0.067894  -0.137815  0  3.871049  0
C  C77  1  0.48827743  0.96359312  0.78738836  1  0  -0.127008  0  3.647283  0  0  -0.142986  0  3.88511  0  0  -0.15145  0  3.906653  0  -0.021362  0  -0.067831  -0.137661  0  3.870938  0
C  C78  1  0.59716869  0.06890762  0.12055628  1  0  0.132904  0  3.664882  0  0  0.097349  0  3.913479  0  0  0.106789  0  3.930598  0  0.452694  0  0.053406  0.091096  0  3.902213  0
C  C79  1  0.40282900  0.93109506  0.87944420  1  0  0.132875  0  3.664708  0  0  0.09737  0  3.913333  0  0  0.106801  0  3.930448  0  0.452879  0  0.053407  0.091117  0  3.902068  0
C  C80  1  0.48349461  0.01735550  0.38668864  1  0  0.103997  0  3.625061  0  0  0.071025  0  3.885885  0  0  0.07741  0  3.896824  0  0.627016  0  0.088353  0.066703  0  3.878409  0
C  C81  1  0.51650422  0.98264718  0.61330958  1  0  0.104073  0  3.625062  0  0  0.071111  0  3.885876  0  0  0.077495  0  3.896816  0  0.627058  0  0.088397  0.066789  0  3.878399  0
C  C82  1  0.19326344  0.07845777  0.08840965  1  0  0.728578  0  3.862275  0  0  0.693716  0  4.147183  0  0  0.728191  0  4.141017  0  1.535076  0  0.189298  0.67025  0  4.150101  0
C  C83  1  0.80673659  0.92154323  0.91158987  1  0  0.728605  0  3.862325  0  0  0.693626  0  4.147394  0  0  0.728101  0  4.141232  0  1.535213  0  0.189272  0.670161  0  4.150312  0
C  C84  1  0.22598606  0.19401512  0.11367105  1  0  -0.461441  0  3.673649  0  0  -0.536382  0  3.905721  0  0  -0.543985  0  3.909599  0  -0.093971  0  -0.258417  -0.530983  0  3.902641  0
C  C85  1  0.77401398  0.80598588  0.88632916  1  0  -0.46147  0  3.673636  0  0  -0.536344  0  3.905767  0  0  -0.543944  0  3.909647  0  -0.093962  0  -0.258391  -0.530944  0  3.902685  0
S  S86  1  0.59780093  0.26921610  0.89383232  1  0  -0.246213  0  2.284916  0  0  -0.203486  0  2.639285  0  0  -0.22113  0  2.633405  0  0.054348  0  -0.110521  -0.191305  0  2.643009  0
S  S87  1  0.40219911  0.73078490  0.10616719  1  0  -0.246215  0  2.284954  0  0  -0.203486  0  2.639311  0  0  -0.221128  0  2.633426  0  0.054334  0  -0.110527  -0.191306  0  2.643033  0
S  S88  1  0.71702110  0.53249940  0.01348028  1  0  -0.257174  0  2.318252  0  0  -0.21356  0  2.676796  0  0  -0.230643  0  2.670088  0  0.076193  0  -0.113978  -0.201677  0  2.681066  0
S  S89  1  0.28299070  0.46749235  0.98651858  1  0  -0.25725  0  2.318104  0  0  -0.213627  0  2.67663  0  0  -0.230718  0  2.669941  0  0.075939  0  -0.114036  -0.201741  0  2.680895  0
S  S90  1  0.51366429  0.62020475  0.77031652  1  0  -0.235955  0  2.288306  0  0  -0.203343  0  2.640758  0  0  -0.219806  0  2.637843  0  0.073662  0  -0.114073  -0.192088  0  2.642619  0
S  S91  1  0.48633694  0.37979457  0.22968222  1  0  -0.235957  0  2.288336  0  0  -0.203347  0  2.6408  0  0  -0.21981  0  2.637884  0  0.074044  0  -0.114086  -0.192089  0  2.642657  0
N  N92  1  0.70040251  0.19498669  0.70535768  1  0  -0.447034  0  2.579252  0  0  -0.433043  0  2.806792  0  0  -0.444044  0  2.815745  0  -1.174115  0  -0.352326  -0.425392  0  2.800793  0
N  N93  1  0.29959288  0.80501599  0.29463904  1  0  -0.447079  0  2.579287  0  0  -0.433099  0  2.806827  0  0  -0.444099  0  2.815779  0  -1.174267  0  -0.352384  -0.425449  0  2.800827  0
N  N94  1  0.92171118  0.34904130  0.02501927  1  0  -0.497011  0  2.75512  0  0  -0.464235  0  3.023942  0  0  -0.480556  0  3.03241  0  -1.230822  0  -0.354789  -0.452966  0  3.018082  0
N  N95  1  0.07830634  0.65095129  0.97497791  1  0  -0.497083  0  2.755504  0  0  -0.464293  0  3.02429  0  0  -0.480611  0  3.032756  0  -1.230473  0  -0.35483  -0.453021  0  3.018422  0
N  N96  1  0.75648825  0.69613610  0.61232863  1  0  -0.459605  0  2.578782  0  0  -0.440367  0  2.796685  0  0  -0.452252  0  2.807352  0  -1.210888  0  -0.359326  -0.432202  0  2.789529  0
N  N97  1  0.24351287  0.30386658  0.38766853  1  0  -0.459544  0  2.578877  0  0  -0.440297  0  2.796772  0  0  -0.452183  0  2.807441  0  -1.210936  0  -0.359296  -0.432134  0  2.789614  0
N  N98  1  0.91043455  0.48027070  0.74845002  1  0  -0.283952  0  3.243419  0  0  -0.207289  0  3.505656  0  0  -0.227279  0  3.52941  0  -1.192397  0  -0.310545  -0.193671  0  3.489116  0
N  N99  1  0.08956789  0.51972693  0.25155001  1  0  -0.283878  0  3.24351  0  0  -0.20719  0  3.505713  0  0  -0.22718  0  3.529473  0  -1.192282  0  -0.310494  -0.193573  0  3.489183  0
N  N100  1  0.38897020  0.64013121  0.51615421  1  0  -0.191262  0  2.988871  0  0  -0.164763  0  3.276763  0  0  -0.173287  0  3.292475  0  -0.757895  0  -0.202641  -0.158772  0  3.265903  0
N  N101  1  0.61102869  0.35986979  0.48384826  1  0  -0.191282  0  2.988945  0  0  -0.164777  0  3.276855  0  0  -0.173302  0  3.29257  0  -0.757909  0  -0.202649  -0.158786  0  3.265996  0
N  N102  1  0.49918238  0.65262381  0.42925746  1  0  -0.185425  0  3.039921  0  0  -0.155486  0  3.330491  0  0  -0.163678  0  3.348196  0  -0.743262  0  -0.198572  -0.149749  0  3.31828  0
N  N103  1  0.50081530  0.34737887  0.57074371  1  0  -0.18541  0  3.040012  0  0  -0.155478  0  3.330576  0  0  -0.163667  0  3.348281  0  -0.743224  0  -0.198539  -0.14974  0  3.318363  0
N  N104  1  0.94732750  0.80685996  0.17362006  1  0  -0.262742  0  3.324536  0  0  -0.165565  0  3.58226  0  0  -0.190343  0  3.606271  0  -1.186082  0  -0.300816  -0.14916  0  3.565831  0
N  N105  1  0.05267138  0.19314104  0.82638103  1  0  -0.262703  0  3.324484  0  0  -0.165511  0  3.582179  0  0  -0.190289  0  3.606192  0  -1.186041  0  -0.300777  -0.149108  0  3.56575  0
N  N106  1  0.72816035  0.12496546  0.10560654  1  0  -0.262735  0  3.341743  0  0  -0.163422  0  3.591034  0  0  -0.188549  0  3.616011  0  -1.192122  0  -0.301779  -0.146807  0  3.574064  0
N  N107  1  0.27183848  0.87503722  0.89439307  1  0  -0.26285  0  3.3418  0  0  -0.163541  0  3.591112  0  0  -0.188669  0  3.616091  0  -1.191917  0  -0.301848  -0.146926  0  3.574141  0
N  N108  1  0.54507391  0.02379090  0.45733641  1  0  -0.21093  0  3.058268  0  0  -0.184153  0  3.355118  0  0  -0.192775  0  3.370487  0  -0.758855  0  -0.208398  -0.178197  0  3.344587  0
N  N109  1  0.45492836  0.97621178  0.54266332  1  0  -0.211082  0  3.058421  0  0  -0.184322  0  3.355287  0  0  -0.192944  0  3.370655  0  -0.779401  0  -0.20845  -0.178364  0  3.344756  0
O  O110  1  0.28001543  0.99599032  0.10258542  1  0  -0.647678  0  1.941902  0  0  -0.590054  0  2.173493  0  0  -0.620583  0  2.167607  0  -1.164113  0  -0.326546  -0.568085  0  2.176238  0
O  O111  1  0.71998577  0.00400983  0.89741258  1  0  -0.647664  0  1.94203  0  0  -0.589995  0  2.173681  0  0  -0.620524  0  2.167797  0  -1.164165  0  -0.32651  -0.568022  0  2.176415  0
O  O112  1  0.07732995  0.06665435  0.05510552  1  0  -0.66037  0  2.008319  0  0  -0.594702  0  2.263611  0  0  -0.627505  0  2.255162  0  -1.159888  0  -0.336524  -0.571206  0  2.267941  0
O  O113  1  0.92266661  0.93334749  0.94489658  1  0  -0.660374  0  2.008261  0  0  -0.594693  0  2.263636  0  0  -0.627491  0  2.255178  0  -1.16009  0  -0.336567  -0.571197  0  2.267965  0
