# generated using pymatgen
data_Zn4H8C40N14O41
_symmetry_space_group_name_H-M   'P 1'
_cell_length_a   15.14067600
_cell_length_b   15.13952315
_cell_length_c   19.46693505
_cell_angle_alpha   89.14783179
_cell_angle_beta   90.24357888
_cell_angle_gamma   89.78602101
_symmetry_Int_Tables_number   1
_chemical_formula_structural   Zn4H8C40N14O41
_chemical_formula_sum   'Zn4 H8 C40 N14 O41'
_cell_volume   4461.69571196
_cell_formula_units_Z   1
loop_
 _symmetry_equiv_pos_site_id
 _symmetry_equiv_pos_as_xyz
  1  'x, y, z'
loop_
 _atom_site_type_symbol
 _atom_site_label
 _atom_site_symmetry_multiplicity
 _atom_site_fract_x
 _atom_site_fract_y
 _atom_site_fract_z
 _atom_site_occupancy
 _atom_site_pbe_bader_charge
 _atom_site_pbe_bader_spin_density
 _atom_site_pbe_cm5_charge
 _atom_site_pbe_ddec_charge
 _atom_site_pbe_ddec_spin_density
 _atom_site_pbe_ddec_sum_bond_order
 _atom_site_pbe_magmom
Zn  Zn0  1  0.57489480  0.56945288  0.43667821  1  1.327077  0  0.69494  0.992143  0  2.306057  0
Zn  Zn1  1  0.43238882  0.58210516  0.55977355  1  1.31633  0  0.685523  0.973997  0  2.342805  0
Zn  Zn2  1  0.57582455  0.42710836  0.55977771  1  1.318699  0  0.686264  0.975857  0  2.360904  0
Zn  Zn3  1  0.41745412  0.42589896  0.45087214  1  1.320091  0  0.688956  0.984795  0  2.332628  0
H  H4  1  0.14817475  0.39276044  0.49139862  1  0.14293  0  0.126743  0.139309  0  0.980427  0
H  H5  1  0.85070325  0.61278741  0.49289143  1  0.165134  0  0.125024  0.139204  0  0.984346  0
H  H6  1  0.48130512  0.85148401  0.58401578  1  0.117741  0  0.124309  0.136262  0  0.98866  0
H  H7  1  0.39857473  0.58175584  0.77774995  1  0.173973  0  0.132931  0.150122  0  0.961983  0
H  H8  1  0.52147686  0.00067372  0.35629836  1  0.145737  0  0.13196  0.150992  0  0.979821  0
H  H9  1  0.65335789  0.45494198  0.76398409  1  0.174406  0  0.130075  0.14686  0  0.981792  0
H  H10  1  0.59878653  0.52934384  0.00968087  1  0.144956  0  0.123115  0.134792  0  0.96547  0
H  H11  1  0.41375866  0.44539383  0.99442752  1  0.155728  0  0.120909  0.135936  0  0.97788  0
C  C12  1  0.26317190  0.52033539  0.50439715  1  1.636613  0  0.238491  0.618546  0  4.171427  0
C  C13  1  0.73623234  0.48243807  0.48767548  1  1.630852  0  0.237246  0.615479  0  4.184244  0
C  C14  1  0.50652832  0.73731499  0.48632093  1  1.632381  0  0.238664  0.619667  0  4.170495  0
C  C15  1  0.48509340  0.26583093  0.51837816  1  1.612494  0  0.22964  0.606896  0  4.240129  0
C  C16  1  0.51687719  0.51553716  0.68553184  1  1.575176  0  0.236676  0.610861  0  4.160255  0
C  C17  1  0.48868172  0.48400797  0.31927399  1  1.682932  0  0.234584  0.616036  0  4.213957  0
C  C18  1  0.48371323  0.47761715  0.24181473  1  0.120798  0  0.021357  -0.061679  0  3.88228  0
C  C19  1  0.54922012  0.43475873  0.20442359  1  0.238884  0  0.100331  0.031283  0  3.878959  0
C  C20  1  0.54292639  0.42784129  0.13326676  1  0.256199  0  0.102524  0.005651  0  3.859123  0
C  C21  1  0.47340737  0.46677465  0.09543206  1  0.066508  0  0.026318  0.072257  0  3.943253  0
C  C22  1  0.40580192  0.50581198  0.13402157  1  0.306586  0  0.103314  0.010736  0  3.848581  0
C  C23  1  0.41028817  0.50980779  0.20549823  1  0.233738  0  0.100385  0.027649  0  3.878583  0
C  C24  1  0.46522658  0.55040330  0.87290940  1  0.188501  0  0.091501  0.0364  0  3.875804  0
C  C25  1  0.45697225  0.55245114  0.80183177  1  0.045736  0  -0.050626  -0.105155  0  3.896403  0
C  C26  1  0.59964875  0.48210654  0.79407724  1  0.023757  0  -0.052942  -0.10804  0  3.913498  0
C  C27  1  0.60545704  0.48038384  0.86527180  1  0.200687  0  0.090282  0.037498  0  3.861195  0
C  C28  1  0.53770060  0.51192995  0.90814257  1  0.058686  0  0.030146  0.064109  0  3.924276  0
C  C29  1  0.47299463  0.46980461  0.01983093  1  0.015853  0  -0.08736  -0.130116  0  3.958998  0
C  C30  1  0.54014228  0.50454411  0.98364732  1  0.000159  0  -0.072864  -0.094832  0  3.972146  0
C  C31  1  0.52451564  0.51707820  0.76198812  1  -0.020941  0  -0.002376  -0.007732  0  3.95949  0
C  C32  1  0.16482275  0.53119308  0.50071648  1  0.011162  0  0.008519  -0.042332  0  3.927897  0
C  C33  1  0.83480329  0.47399348  0.48436473  1  0.067531  0  0.01101  -0.031742  0  3.929782  0
C  C34  1  0.96739514  0.38411145  0.48682323  1  0.232324  0  0.101165  0.005379  0  3.872908  0
C  C35  1  0.87688854  0.39045103  0.48251982  1  0.23477  0  0.101829  0.026275  0  3.886205  0
C  C36  1  0.88465812  0.54947890  0.49062891  1  -0.030915  0  -0.058857  -0.108246  0  3.879014  0
C  C37  1  0.97776035  0.54479284  0.49639692  1  0.132182  0  0.019778  0.063815  0  3.955446  0
C  C38  1  0.02108285  0.46046464  0.49317468  1  0.05472  0  0.017343  0.054102  0  3.960407  0
C  C39  1  0.11424431  0.45605848  0.49449345  1  0.020311  0  -0.053998  -0.093204  0  3.871531  0
C  C40  1  0.12269629  0.61436720  0.50579236  1  0.2771  0  0.102987  0.031626  0  3.88676  0
C  C41  1  0.03189097  0.62071282  0.50382561  1  0.249668  0  0.098824  -0.003248  0  3.865751  0
C  C42  1  0.50145871  0.83562222  0.47715071  1  0.039063  0  0.009003  -0.047571  0  3.924067  0
C  C43  1  0.48439327  0.16630773  0.52187887  1  0.131846  0  0.018452  -0.072267  0  3.913934  0
C  C44  1  0.47687646  0.03136546  0.59037488  1  0.240409  0  0.106052  0.011064  0  3.878393  0
C  C45  1  0.47388717  0.12217977  0.58568153  1  0.321876  0  0.098788  0.024904  0  3.891438  0
C  C46  1  0.49684490  0.11648213  0.46379728  1  0.233621  0  0.101631  0.030947  0  3.838914  0
C  C47  1  0.49960043  0.02258485  0.46563996  1  0.014027  0  0.022921  0.07128  0  3.94439  0
C  C48  1  0.48901778  0.97904524  0.53125453  1  0.075376  0  0.017427  0.053252  0  3.957053  0
C  C49  1  0.48938901  0.88570552  0.53493828  1  0.017832  0  -0.058567  -0.098977  0  3.881792  0
C  C50  1  0.51365643  0.87978746  0.41322539  1  0.234536  0  0.102141  0.087196  0  3.894788  0
C  C51  1  0.51335521  0.97027090  0.40684957  1  0.058427  0  -0.060627  -0.151679  0  3.88908  0
N  N52  1  0.62316914  0.38923951  0.24147627  1  0.448866  0  0.063977  0.505594  0  4.242206  0
N  N53  1  0.68736139  0.44101506  0.89488862  1  0.40253  0  0.06499  0.515431  0  4.194811  0
N  N54  1  0.17687593  0.69549685  0.51107919  1  0.443683  0  0.061948  0.508902  0  4.266643  0
N  N55  1  0.01127744  0.29668327  0.48263010  1  0.433849  0  0.06119  0.508271  0  4.258883  0
N  N56  1  0.98942048  0.70881462  0.50763656  1  0.416723  0  0.062064  0.512853  0  4.24016  0
N  N57  1  0.82273718  0.31009726  0.47358105  1  0.412596  0  0.062219  0.5104  0  4.247975  0
N  N58  1  0.52008301  0.82911233  0.34885597  1  0.443794  0  0.062546  0.51046  0  4.230646  0
N  N59  1  0.46264967  0.98597154  0.65744815  1  0.409401  0  0.062002  0.507753  0  4.262914  0
N  N60  1  0.45746162  0.17538794  0.64753399  1  0.420064  0  0.063917  0.515453  0  4.229023  0
N  N61  1  0.50976598  0.16448277  0.39757910  1  0.44123  0  0.064797  0.514197  0  4.213334  0
N  N62  1  0.33138019  0.54976166  0.09693225  1  0.442296  0  0.062222  0.506895  0  4.256035  0
N  N63  1  0.39412224  0.59619129  0.91111983  1  0.428893  0  0.059425  0.509349  0  4.226196  0
N  N64  1  0.33505703  0.54576715  0.24503978  1  0.422029  0  0.065657  0.510895  0  4.229292  0
N  N65  1  0.61049331  0.37435210  0.09739494  1  0.422601  0  0.061262  0.504885  0  4.258763  0
O  O66  1  0.49974771  0.50166127  0.50095304  1  -1.230993  0  -0.569188  -1.038959  0  2.513413  0
O  O67  1  0.29471645  0.46076291  0.46622728  1  -1.155551  0  -0.299335  -0.522286  0  2.326337  0
O  O68  1  0.70104644  0.54295620  0.45095463  1  -1.157405  0  -0.295911  -0.516535  0  2.307812  0
O  O69  1  0.45835316  0.70482485  0.53358768  1  -1.165458  0  -0.302774  -0.529513  0  2.334768  0
O  O70  1  0.54452091  0.30174007  0.55430691  1  -1.14762  0  -0.297759  -0.515964  0  2.342698  0
O  O71  1  0.45568311  0.56223539  0.65799608  1  -1.160704  0  -0.304746  -0.531859  0  2.315487  0
O  O72  1  0.44043335  0.42937876  0.35177720  1  -1.153757  0  -0.301517  -0.521794  0  2.316721  0
O  O73  1  0.57260148  0.46700784  0.65469996  1  -1.166843  0  -0.30717  -0.536895  0  2.339597  0
O  O74  1  0.54138093  0.54083621  0.34214940  1  -1.135982  0  -0.288422  -0.508337  0  2.367256  0
O  O75  1  0.56084939  0.69693447  0.44822769  1  -1.150897  0  -0.302141  -0.529134  0  2.341003  0
O  O76  1  0.42710567  0.30143788  0.47995360  1  -1.151451  0  -0.299212  -0.519995  0  2.343365  0
O  O77  1  0.30415601  0.56906538  0.54627220  1  -1.159438  0  -0.301422  -0.526052  0  2.338527  0
O  O78  1  0.69918655  0.43040036  0.53036519  1  -1.152647  0  -0.303083  -0.527626  0  2.343693  0
O  O79  1  0.62477514  0.30809637  0.23676042  1  -0.411001  0  -0.100875  -0.281793  0  1.878164  0
O  O80  1  0.67471730  0.43591881  0.27373242  1  -0.402954  0  -0.099627  -0.274851  0  1.88726  0
O  O81  1  0.68590365  0.41626862  0.95576992  1  -0.421004  0  -0.110455  -0.305366  0  1.973311  0
O  O82  1  0.75192571  0.43587076  0.85646449  1  -0.420887  0  -0.121686  -0.312454  0  1.860677  0
O  O83  1  0.16626560  0.74026548  0.56281638  1  -0.411907  0  -0.111267  -0.292589  0  1.862293  0
O  O84  1  0.22762695  0.71041648  0.46300038  1  -0.404595  0  -0.104199  -0.286418  0  1.883724  0
O  O85  1  0.05500652  0.27293037  0.53335529  1  -0.420715  0  -0.10755  -0.29479  0  1.863604  0
O  O86  1  0.00186687  0.25649845  0.42846999  1  -0.39876  0  -0.104789  -0.284277  0  1.854438  0
O  O87  1  0.01271078  0.76477810  0.46477149  1  -0.3955  0  -0.104818  -0.285944  0  1.860691  0
O  O88  1  0.93352600  0.71837634  0.55307222  1  -0.424811  0  -0.112824  -0.303387  0  1.866035  0
O  O89  1  0.83698055  0.24776251  0.51373799  1  -0.408146  0  -0.112673  -0.295483  0  1.867934  0
O  O90  1  0.76807282  0.31304809  0.42642212  1  -0.396146  0  -0.101365  -0.284856  0  1.902642  0
O  O91  1  0.46122377  0.77438969  0.33891858  1  -0.429875  0  -0.112715  -0.298007  0  1.891908  0
O  O92  1  0.58159455  0.84771005  0.30988618  1  -0.426414  0  -0.117368  -0.303235  0  1.843246  0
O  O93  1  0.38865214  0.99376138  0.68288665  1  -0.392322  0  -0.102138  -0.280629  0  1.850046  0
O  O94  1  0.52532871  0.94234677  0.68054089  1  -0.402527  0  -0.104618  -0.290403  0  1.865683  0
O  O95  1  0.49878172  0.15476982  0.70011836  1  -0.404225  0  -0.104757  -0.287646  0  1.869928  0
O  O96  1  0.40344316  0.23643011  0.64084781  1  -0.415184  0  -0.112731  -0.298601  0  1.876995  0
O  O97  1  0.56607215  0.22336739  0.39681990  1  -0.436997  0  -0.103641  -0.290578  0  1.914973  0
O  O98  1  0.46311727  0.14194808  0.34867902  1  -0.42197  0  -0.106114  -0.293729  0  1.866988  0
O  O99  1  0.28847227  0.50326242  0.05747487  1  -0.40473  0  -0.102521  -0.287925  0  1.887839  0
O  O100  1  0.32063364  0.62898035  0.10777552  1  -0.404923  0  -0.098395  -0.276316  0  1.873917  0
O  O101  1  0.41726571  0.64933068  0.95524505  1  -0.430667  0  -0.119064  -0.307997  0  1.890476  0
O  O102  1  0.31738063  0.57917185  0.89409013  1  -0.435305  0  -0.117702  -0.306801  0  1.859631  0
O  O103  1  0.26045513  0.52501257  0.22548396  1  -0.399033  0  -0.104995  -0.287609  0  1.875613  0
O  O104  1  0.35340861  0.59121428  0.29526715  1  -0.416289  0  -0.10074  -0.285227  0  1.917655  0
O  O105  1  0.68811137  0.39683948  0.10523655  1  -0.396022  0  -0.102153  -0.283299  0  1.888893  0
O  O106  1  0.58265237  0.31157055  0.06432800  1  -0.391168  0  -0.095619  -0.272535  0  1.878905  0
