# generated using pymatgen
data_Zn4H29C49N9O23
_symmetry_space_group_name_H-M   'P 1'
_cell_length_a   15.41285440
_cell_length_b   19.20461918
_cell_length_c   19.13886113
_cell_angle_alpha   94.88678483
_cell_angle_beta   97.11596322
_cell_angle_gamma   102.82783295
_symmetry_Int_Tables_number   1
_chemical_formula_structural   Zn4H29C49N9O23
_chemical_formula_sum   'Zn4 H29 C49 N9 O23'
_cell_volume   5443.82244870
_cell_formula_units_Z   1
loop_
 _symmetry_equiv_pos_site_id
 _symmetry_equiv_pos_as_xyz
  1  'x, y, z'
loop_
 _atom_site_type_symbol
 _atom_site_label
 _atom_site_symmetry_multiplicity
 _atom_site_fract_x
 _atom_site_fract_y
 _atom_site_fract_z
 _atom_site_occupancy
 _atom_site_pbe_bader_charge
 _atom_site_pbe_bader_spin_density
 _atom_site_pbe_cm5_charge
 _atom_site_pbe_ddec_charge
 _atom_site_pbe_ddec_spin_density
 _atom_site_pbe_ddec_sum_bond_order
 _atom_site_pbe_magmom
Zn  Zn0  1  0.57574568  0.45625247  0.43921948  1  1.327584  0  0.682683  0.98268  0  2.343729  0
Zn  Zn1  1  0.42094023  0.42903418  0.53390438  1  1.321686  0  0.67842  0.966523  0  2.402017  0
Zn  Zn2  1  0.42267593  0.54850806  0.42967915  1  1.304783  0  0.664911  0.949838  0  2.368892  0
Zn  Zn3  1  0.57217064  0.57671222  0.56638466  1  1.311053  0  0.671186  0.967875  0  2.37831  0
H  H4  1  0.16950042  0.32831648  0.47817134  1  0.083705  0  0.104577  0.112276  0  0.997267  0
H  H5  1  0.40085284  0.76348917  0.42563900  1  0.123528  0  0.110031  0.120607  0  1.002401  0
H  H6  1  0.00987797  0.29021621  0.49793260  1  0.045628  0  0.096433  0.102182  0  1.006629  0
H  H7  1  0.84288682  0.66625394  0.58001527  1  0.09264  0  0.105654  0.110887  0  0.994447  0
H  H8  1  0.09672517  0.61558632  0.55946675  1  0.053005  0  0.105358  0.105996  0  1.027538  0
H  H9  1  0.01180051  0.70300424  0.59552149  1  0.050842  0  0.103373  0.101499  0  0.989168  0
H  H10  1  0.74296689  0.52384460  0.95480615  1  0.607859  0  0.350644  0.38972  0  0.837291  0
H  H11  1  0.58946912  0.32136473  0.01488903  1  0.620295  0  0.342644  0.380027  0  0.853859  0
H  H12  1  0.21956683  0.40402069  0.92219257  1  0.628868  0  0.349729  0.38736  0  0.842158  0
H  H13  1  0.42639556  0.60519775  0.26525089  1  0.489247  0  0.307177  0.32158  0  0.97394  0
H  H14  1  0.41085647  0.63672833  0.18180474  1  0.454201  0  0.322504  0.317009  0  0.92325  0
H  H15  1  0.56808388  0.41360372  0.22762911  1  0.139999  0  0.116707  0.129494  0  0.990119  0
H  H16  1  0.44434800  0.04641650  0.60956258  1  0.49798  0  0.298179  0.278241  0  1.045845  0
H  H17  1  0.40460285  0.12243883  0.63846899  1  0.440073  0  0.320719  0.314711  0  0.917017  0
H  H18  1  0.30184743  0.87538531  0.34173333  1  0.615451  0  0.343838  0.38237  0  0.855667  0
H  H19  1  0.63682113  0.12732871  0.37323847  1  0.455822  0  0.319558  0.31741  0  0.92071  0
H  H20  1  0.60804669  0.05133365  0.41630475  1  0.464416  0  0.303136  0.290136  0  0.986389  0
H  H21  1  0.20781940  0.56822027  0.44551743  1  0.505156  0  0.298902  0.313567  0  0.988516  0
H  H22  1  0.10838789  0.59356603  0.45957100  1  0.455961  0  0.307683  0.30014  0  0.954924  0
H  H23  1  0.74641815  0.34842203  0.55831979  1  0.415799  0  0.311845  0.304553  0  0.932036  0
H  H24  1  0.74062683  0.43289894  0.58674290  1  0.432875  0  0.308224  0.302443  0  0.946675  0
H  H25  1  0.74908289  0.59282033  0.77239316  1  0.624253  0  0.353437  0.392688  0  0.834246  0
H  H26  1  0.32577103  0.47734456  0.73855302  1  0.129527  0  0.122423  0.135  0  0.969774  0
H  H27  1  0.45094461  0.58010639  0.07841588  1  0.064856  0  0.111405  0.12451  0  1.00566  0
H  H28  1  0.44830979  0.23570049  0.59037443  1  0.077564  0  0.104324  0.12737  0  1.010363  0
H  H29  1  0.58334988  0.92209368  0.63542421  1  0.087503  0  0.110726  0.119502  0  0.98439  0
H  H30  1  0.87509806  0.32075901  0.52608754  1  0.036775  0  0.101824  0.114373  0  0.99915  0
H  H31  1  0.58722308  0.79190633  0.61760620  1  0.100971  0  0.11234  0.117591  0  0.984478  0
H  H32  1  0.60582810  0.24269110  0.41947008  1  0.077905  0  0.105359  0.131163  0  1.004311  0
C  C33  1  0.47322849  0.50712542  0.67525554  1  1.602999  0  0.232243  0.611444  0  4.166942  0
C  C34  1  0.11727867  0.49308344  0.48377522  1  0.506564  0  0.121684  0.285565  0  4.012044  0
C  C35  1  0.12859528  0.36736501  0.48416765  1  -0.0983  0  -0.091908  -0.070037  0  4.064094  0
C  C36  1  0.50077369  0.50271430  0.30464373  1  1.545808  0  0.229723  0.623982  0  4.145413  0
C  C37  1  0.83834913  0.55551443  0.54887768  1  -0.012516  0  -0.017759  -0.065797  0  3.939979  0
C  C38  1  0.50405840  0.50184577  0.22747070  1  -0.031647  0  -0.028127  -0.169999  0  3.922854  0
C  C39  1  0.47004139  0.55081708  0.18541403  1  0.50007  0  0.123256  0.333071  0  4.076725  0
C  C40  1  0.47469368  0.54307262  0.11207601  1  -0.0121  0  -0.094232  -0.276642  0  3.908791  0
C  C41  1  0.50965525  0.48947456  0.08070842  1  0.380114  0  0.103099  0.183198  0  4.028776  0
C  C42  1  0.54556788  0.44167056  0.12240423  1  0.057313  0  -0.026242  -0.139309  0  3.963547  0
C  C43  1  0.54180549  0.45006870  0.19490375  1  -0.002203  0  -0.063929  -0.057362  0  3.951742  0
C  C44  1  0.97634554  0.64780125  0.57564546  1  -0.133479  0  -0.097802  -0.08782  0  4.080781  0
C  C45  1  0.54653481  0.51988758  0.87419984  1  0.00073  0  0.012061  -0.081602  0  3.856128  0
C  C46  1  0.55048070  0.51866228  0.80138003  1  0.020252  0  0.012737  -0.036272  0  3.868815  0
C  C47  1  0.46175125  0.50245683  0.89783781  1  0.439032  0  0.110819  0.138915  0  3.983284  0
C  C48  1  0.51873903  0.32028689  0.49844401  1  1.550159  0  0.229937  0.608347  0  4.13485  0
C  C49  1  0.47034532  0.50372193  0.75276379  1  -0.033965  0  0.002393  -0.030947  0  3.933511  0
C  C50  1  0.38716590  0.48851923  0.77665240  1  0.051849  0  -0.062305  -0.094347  0  3.931092  0
C  C51  1  0.38226675  0.48699383  0.84869910  1  -0.019972  0  0.007025  -0.066009  0  3.921344  0
C  C52  1  0.49557774  0.77029613  0.51962531  1  -0.016563  0  -0.024935  -0.0594  0  3.996514  0
C  C53  1  0.44207243  0.79882371  0.47076292  1  -0.035594  0  -0.070521  -0.079041  0  3.923637  0
C  C54  1  0.43993962  0.87159959  0.47928275  1  -0.004577  0  -0.016967  -0.124886  0  3.943094  0
C  C55  1  0.02384521  0.59853494  0.55435713  1  -0.00944  0  -0.095109  -0.144224  0  3.995123  0
C  C56  1  0.49371789  0.91650333  0.53892111  1  0.381698  0  0.109008  0.183028  0  4.043609  0
C  C57  1  0.54400094  0.88664876  0.58947855  1  -0.001998  0  -0.086881  -0.165124  0  3.977422  0
C  C58  1  0.54630926  0.81481777  0.57955734  1  -0.026006  0  -0.072209  -0.057685  0  3.97  0
C  C59  1  0.48495398  0.13575671  0.56061621  1  0.462862  0  0.12025  0.291743  0  4.072097  0
C  C60  1  0.49828266  0.69308428  0.50906789  1  1.539557  0  0.22514  0.608143  0  4.171112  0
C  C61  1  0.48310978  0.20787354  0.55505855  1  0.058443  0  -0.121281  -0.275364  0  3.983019  0
C  C62  1  0.52896605  0.09991980  0.51146984  1  0.470812  0  0.082976  -0.031184  0  3.939775  0
C  C63  1  0.52576503  0.24443713  0.50416790  1  -0.073739  0  -0.017103  0.014313  0  4.057691  0
C  C64  1  0.57273289  0.21186104  0.45792222  1  0.022979  0  -0.1253  -0.282998  0  3.990255  0
C  C65  1  0.57451077  0.13966605  0.46070005  1  0.444139  0  0.111819  0.275545  0  4.101695  0
C  C66  1  0.98142772  0.52524958  0.53070763  1  0.016622  0  0.001988  0.068941  0  3.952976  0
C  C67  1  0.26063005  0.45585568  0.46140825  1  1.43808  0  0.210784  0.602096  0  4.151214  0
C  C68  1  0.73823955  0.54211830  0.53204958  1  1.558943  0  0.222682  0.600189  0  4.186209  0
C  C69  1  0.04123034  0.34665713  0.49587806  1  0.007468  0  -0.118422  -0.191711  0  4.058782  0
C  C70  1  0.16794193  0.43980267  0.47610577  1  0.023436  0  -0.049916  -0.201398  0  3.986449  0
C  C71  1  0.88251554  0.62707623  0.56962949  1  -0.001035  0  -0.092697  -0.110936  0  4.014888  0
C  C72  1  0.63111372  0.54537077  0.92687155  1  1.561443  0  0.226987  0.57093  0  4.195664  0
C  C73  1  0.58325202  0.38165610  0.09577447  1  1.486586  0  0.219108  0.578468  0  4.149481  0
C  C74  1  0.29080447  0.46791336  0.87059903  1  1.532598  0  0.233661  0.584431  0  4.135766  0
C  C75  1  0.37479123  0.89837110  0.43083193  1  1.480824  0  0.22295  0.575631  0  4.136315  0
C  C76  1  0.63864431  0.52709013  0.77305475  1  1.570236  0  0.231813  0.591893  0  4.142959  0
C  C77  1  0.88762977  0.50202301  0.53623694  1  0.010654  0  -0.000258  -0.029885  0  3.878407  0
C  C78  1  0.03111887  0.47366068  0.50771574  1  -0.052556  0  -0.024522  -0.117618  0  3.915853  0
C  C79  1  0.99087603  0.39921504  0.50754372  1  -0.006766  0  -0.005803  0.127371  0  4.088042  0
C  C80  1  0.90202601  0.37783968  0.52288432  1  0.038278  0  -0.112558  -0.279186  0  3.977491  0
C  C81  1  0.84957055  0.42582740  0.53612939  1  0.387909  0  0.101924  0.270671  0  4.096482  0
N  N82  1  0.51550489  0.48554612  0.00758621  1  -0.449093  0  -0.111927  -0.051703  0  3.268317  0
N  N83  1  0.45111583  0.50120715  0.96984753  1  -0.436271  0  -0.133298  -0.11582  0  3.277045  0
N  N84  1  0.49867789  0.99019319  0.55235592  1  -0.526191  0  -0.163677  -0.160571  0  3.344511  0
N  N85  1  0.52828702  0.02832528  0.50479197  1  -0.567287  0  -0.15505  -0.103309  0  3.415234  0
N  N86  1  0.43537381  0.60397953  0.21349255  1  -1.257035  0  -0.57702  -0.598648  0  3.341971  0
N  N87  1  0.44508874  0.09989094  0.61063109  1  -1.242275  0  -0.566368  -0.566867  0  3.363449  0
N  N88  1  0.62049029  0.10566184  0.41755435  1  -1.259893  0  -0.586333  -0.603246  0  3.349901  0
N  N89  1  0.15110315  0.56125827  0.46897366  1  -1.278379  0  -0.589704  -0.604733  0  3.368532  0
N  N90  1  0.76391493  0.40132032  0.55188159  1  -1.182244  0  -0.58602  -0.597499  0  3.343636  0
O  O91  1  0.49949142  0.50428917  0.49192925  1  -1.231804  0  -0.575349  -1.031461  0  2.548437  0
O  O92  1  0.30664673  0.40812648  0.47105850  1  -1.191042  0  -0.341714  -0.580867  0  2.330975  0
O  O93  1  0.69844192  0.57123612  0.57738753  1  -1.173121  0  -0.322015  -0.558418  0  2.333812  0
O  O94  1  0.29467746  0.51692824  0.43959147  1  -1.168972  0  -0.320934  -0.557914  0  2.338031  0
O  O95  1  0.70181884  0.50690732  0.47229400  1  -1.166502  0  -0.312899  -0.54351  0  2.343765  0
O  O96  1  0.64851200  0.60144736  0.96633591  1  -1.11546  0  -0.296202  -0.480383  0  2.058164  0
O  O97  1  0.68856273  0.50153592  0.92112923  1  -1.101201  0  -0.333429  -0.481918  0  2.231362  0
O  O98  1  0.63034490  0.35170728  0.13349747  1  -1.147789  0  -0.316778  -0.51063  0  2.040005  0
O  O99  1  0.55943446  0.36031148  0.02476501  1  -1.118728  0  -0.342396  -0.49266  0  2.249043  0
O  O100  1  0.23017042  0.49653109  0.85138053  1  -1.120642  0  -0.295006  -0.481558  0  2.029026  0
O  O101  1  0.28125032  0.41273162  0.91110963  1  -1.115901  0  -0.330598  -0.479157  0  2.221017  0
O  O102  1  0.55887662  0.35381553  0.45238442  1  -1.168533  0  -0.309388  -0.542023  0  2.334289  0
O  O103  1  0.34382186  0.95044175  0.44436255  1  -1.124549  0  -0.301422  -0.4892  0  2.07749  0
O  O104  1  0.34745801  0.85501455  0.36752041  1  -1.116101  0  -0.349427  -0.49908  0  2.202277  0
O  O105  1  0.65773521  0.47892560  0.73682074  1  -1.12386  0  -0.292549  -0.482905  0  2.051878  0
O  O106  1  0.69426697  0.59275710  0.79358983  1  -1.11878  0  -0.32858  -0.473264  0  2.210782  0
O  O107  1  0.55424665  0.67283274  0.55341870  1  -1.173428  0  -0.319644  -0.555479  0  2.336554  0
O  O108  1  0.41187789  0.46239439  0.63277420  1  -1.160637  0  -0.310033  -0.537352  0  2.303179  0
O  O109  1  0.45328543  0.54211614  0.33251978  1  -1.181046  0  -0.315769  -0.560838  0  2.347051  0
O  O110  1  0.53613494  0.55560949  0.65951184  1  -1.163813  0  -0.303956  -0.535687  0  2.353666  0
O  O111  1  0.54433004  0.46371682  0.33818263  1  -1.178871  0  -0.312856  -0.541161  0  2.340687  0
O  O112  1  0.47191291  0.34548339  0.54049596  1  -1.173746  0  -0.315945  -0.544169  0  2.348776  0
O  O113  1  0.44533932  0.65358806  0.45704260  1  -1.180623  0  -0.318946  -0.550425  0  2.328775  0
