# generated using pymatgen
data_ZnAg2H32C28(N5O2)2
_symmetry_space_group_name_H-M   'P 1'
_cell_length_a   7.17872348
_cell_length_b   9.50989205
_cell_length_c   12.47938694
_cell_angle_alpha   98.63793734
_cell_angle_beta   95.49720766
_cell_angle_gamma   114.09459857
_symmetry_Int_Tables_number   1
_chemical_formula_structural   ZnAg2H32C28(N5O2)2
_chemical_formula_sum   'Zn1 Ag2 H32 C28 N10 O4'
_cell_volume   757.16358572
_cell_formula_units_Z   1
loop_
 _symmetry_equiv_pos_site_id
 _symmetry_equiv_pos_as_xyz
  1  'x, y, z'
loop_
 _atom_site_type_symbol
 _atom_site_label
 _atom_site_symmetry_multiplicity
 _atom_site_fract_x
 _atom_site_fract_y
 _atom_site_fract_z
 _atom_site_occupancy
 _atom_site_hle17_bader_spin_density
 _atom_site_hle17_ddec_charge
 _atom_site_hle17_ddec_spin_density
 _atom_site_hle17_ddec_sum_bond_order
 _atom_site_hle17_magmom
 _atom_site_hse06_10hf_bader_spin_density
 _atom_site_hse06_10hf_ddec_charge
 _atom_site_hse06_10hf_ddec_spin_density
 _atom_site_hse06_10hf_ddec_sum_bond_order
 _atom_site_hse06_10hf_magmom
 _atom_site_hse06_bader_spin_density
 _atom_site_hse06_ddec_charge
 _atom_site_hse06_ddec_spin_density
 _atom_site_hse06_ddec_sum_bond_order
 _atom_site_hse06_magmom
 _atom_site_pbe_bader_spin_density
 _atom_site_pbe_cm5_charge
 _atom_site_pbe_ddec_charge
 _atom_site_pbe_ddec_spin_density
 _atom_site_pbe_ddec_sum_bond_order
 _atom_site_pbe_magmom
Zn  Zn0  1  0.50000378  0.00000045  0.99999957  1  0  0.965005  0  2.02108  0  0  0.786378  0  2.464834  0  0  0.827428  0  2.42358  0  0  0.735475  0.75645  0  2.494366  0
Ag  Ag1  1  0.75180645  0.55499487  0.94790360  1  0  0.313579  0  1.868686  0  0  0.216327  0  2.310456  0  0  0.231186  0  2.272666  0  0  0.354657  0.205454  0  2.335106  0
Ag  Ag2  1  0.24819412  0.44499975  0.05209821  1  0  0.313507  0  1.868726  0  0  0.216265  0  2.310463  0  0  0.231123  0  2.27267  0  0  0.354647  0.205391  0  2.335108  0
H  H3  1  0.40707295  0.05971820  0.23174871  1  0  0.092217  0  0.929992  0  0  0.103288  0  0.98774  0  0  0.105447  0  0.986379  0  0  0.123559  0.101393  0  0.989193  0
H  H4  1  0.59293257  0.94027772  0.76825117  1  0  0.092261  0  0.929953  0  0  0.103338  0  0.987709  0  0  0.105497  0  0.986349  0  0  0.123611  0.101442  0  0.989166  0
H  H5  1  0.60260118  0.17102632  0.42387620  1  0  0.132941  0  0.954875  0  0  0.13745  0  1.019449  0  0  0.142436  0  1.015838  0  0  0.116251  0.133756  0  1.022635  0
H  H6  1  0.39740628  0.82897313  0.57612424  1  0  0.132989  0  0.954792  0  0  0.137467  0  1.0194  0  0  0.142454  0  1.015792  0  0  0.116278  0.133778  0  1.022584  0
H  H7  1  0.15578147  0.20943244  0.29314053  1  0  0.118608  0  0.958358  0  0  0.127818  0  1.01851  0  0  0.131388  0  1.017141  0  0  0.11373  0.125162  0  1.019803  0
H  H8  1  0.84422368  0.79057047  0.70686101  1  0  0.118646  0  0.958318  0  0  0.12779  0  1.018525  0  0  0.131363  0  1.017153  0  0  0.113717  0.125129  0  1.019839  0
H  H9  1  0.93488162  0.09914085  0.10633030  1  0  0.08487  0  0.968251  0  0  0.09022  0  1.036378  0  0  0.09221  0  1.035208  0  0  0.113452  0.088233  0  1.037949  0
H  H10  1  0.06512361  0.90085969  0.89367175  1  0  0.084893  0  0.968248  0  0  0.090269  0  1.036345  0  0  0.092246  0  1.035186  0  0  0.11347  0.08828  0  1.037924  0
H  H11  1  0.21963368  0.60119194  0.73418924  1  0  0.109313  0  0.992516  0  0  0.127959  0  1.054913  0  0  0.12835  0  1.058308  0  0  0.088876  0.128004  0  1.052631  0
H  H12  1  0.78036586  0.39881093  0.26581115  1  0  0.109255  0  0.992642  0  0  0.127957  0  1.054974  0  0  0.128345  0  1.05837  0  0  0.088853  0.128  0  1.052693  0
H  H13  1  0.22244997  0.49323613  0.83814464  1  0  0.09956  0  0.976265  0  0  0.119301  0  1.048325  0  0  0.12045  0  1.047525  0  0  0.081097  0.118422  0  1.048831  0
H  H14  1  0.77754141  0.50676202  0.16185306  1  0  0.099538  0  0.97616  0  0  0.119309  0  1.048213  0  0  0.120462  0  1.04741  0  0  0.081102  0.11843  0  1.048721  0
H  H15  1  0.98683412  0.49407566  0.78186659  1  0  0.106426  0  0.966075  0  0  0.120992  0  1.04253  0  0  0.123358  0  1.04039  0  0  0.083872  0.119131  0  1.044333  0
H  H16  1  0.01315993  0.50592483  0.21813237  1  0  0.106439  0  0.966037  0  0  0.120982  0  1.042538  0  0  0.123346  0  1.040401  0  0  0.083869  0.119119  0  1.044345  0
H  H17  1  0.79804058  0.20771140  0.72623666  1  0  0.117637  0  0.957088  0  0  0.137187  0  1.019011  0  0  0.138433  0  1.019754  0  0  0.092992  0.136445  0  1.018073  0
H  H18  1  0.20195558  0.79228789  0.27376388  1  0  0.117575  0  0.957142  0  0  0.137148  0  1.019042  0  0  0.138391  0  1.019788  0  0  0.092974  0.136405  0  1.018105  0
H  H19  1  0.01427021  0.19189377  0.79414654  1  0  0.122264  0  0.937518  0  0  0.146656  0  0.992579  0  0  0.147422  0  0.993718  0  0  0.093781  0.145462  0  0.992334  0
H  H20  1  0.98573282  0.80811034  0.20585342  1  0  0.122231  0  0.937554  0  0  0.14662  0  0.992622  0  0  0.147383  0  0.993763  0  0  0.093761  0.145422  0  0.992377  0
H  H21  1  0.90612472  0.09035388  0.65427796  1  0  0.116011  0  0.974851  0  0  0.126002  0  1.051136  0  0  0.128969  0  1.050149  0  0  0.088174  0.124607  0  1.050489  0
H  H22  1  0.09387837  0.90964784  0.34572330  1  0  0.116019  0  0.974799  0  0  0.125995  0  1.051104  0  0  0.128961  0  1.050117  0  0  0.088175  0.1246  0  1.050458  0
H  H23  1  0.57301787  0.47672632  0.59718721  1  0  0.134132  0  0.961089  0  0  0.15273  0  1.022069  0  0  0.15518  0  1.021289  0  0  0.096831  0.151058  0  1.022532  0
H  H24  1  0.42697494  0.52327186  0.40280977  1  0  0.134121  0  0.961163  0  0  0.152716  0  1.022153  0  0  0.155167  0  1.021378  0  0  0.096846  0.151044  0  1.022617  0
H  H25  1  0.51906154  0.56251308  0.71967720  1  0  0.105652  0  0.963844  0  0  0.127497  0  1.03006  0  0  0.128162  0  1.03046  0  0  0.086689  0.126779  0  1.030124  0
H  H26  1  0.48093388  0.43748984  0.28031974  1  0  0.105644  0  0.963874  0  0  0.127507  0  1.030072  0  0  0.128173  0  1.030474  0  0  0.086693  0.12678  0  1.030145  0
H  H27  1  0.39192978  0.56164650  0.58940188  1  0  0.119708  0  0.973913  0  0  0.128788  0  1.053988  0  0  0.131154  0  1.053563  0  0  0.090539  0.126661  0  1.055337  0
H  H28  1  0.60805943  0.43835279  0.41059583  1  0  0.11968  0  0.973989  0  0  0.128719  0  1.054128  0  0  0.131083  0  1.053705  0  0  0.090512  0.126582  0  1.055482  0
H  H29  1  0.25195399  0.12229730  0.69678915  1  0  0.107882  0  0.988302  0  0  0.124561  0  1.055363  0  0  0.12498  0  1.058301  0  0  0.087519  0.124159  0  1.053834  0
H  H30  1  0.74804890  0.87770667  0.30321479  1  0  0.107843  0  0.988295  0  0  0.12453  0  1.055362  0  0  0.124942  0  1.058305  0  0  0.087546  0.124126  0  1.053836  0
H  H31  1  0.42120848  0.30301355  0.78805934  1  0  0.103472  0  0.967733  0  0  0.122303  0  1.039245  0  0  0.123094  0  1.038995  0  0  0.082574  0.121525  0  1.03956  0
H  H32  1  0.57879495  0.69699641  0.21194138  1  0  0.103471  0  0.967722  0  0  0.122261  0  1.039297  0  0  0.123052  0  1.039047  0  0  0.082548  0.121482  0  1.039614  0
H  H33  1  0.49953921  0.23854984  0.66634887  1  0  0.122035  0  0.953234  0  0  0.136812  0  1.022596  0  0  0.13963  0  1.020755  0  0  0.093448  0.134914  0  1.023737  0
H  H34  1  0.50046296  0.76145779  0.33365068  1  0  0.121996  0  0.953241  0  0  0.136765  0  1.022626  0  0  0.139582  0  1.020789  0  0  0.093459  0.134875  0  1.023761  0
C  C35  1  0.74947910  0.34041146  0.94924829  1  0  -0.044678  0  3.440828  0  0  -0.02212  0  3.779443  0  0  -0.017784  0  3.785552  0  0  -0.020888  -0.023984  0  3.773056  0
C  C36  1  0.25053711  0.65958102  0.05075340  1  0  -0.044525  0  3.440463  0  0  -0.021951  0  3.779066  0  0  -0.01761  0  3.785168  0  0  -0.020816  -0.023819  0  3.772678  0
C  C37  1  0.71255603  0.75501916  0.95049038  1  0  -0.05107  0  3.442955  0  0  -0.034078  0  3.789785  0  0  -0.029036  0  3.794467  0  0  -0.023206  -0.035912  0  3.783708  0
C  C38  1  0.28744406  0.24497199  0.04950937  1  0  -0.050894  0  3.443154  0  0  -0.03388  0  3.789931  0  0  -0.02884  0  3.794615  0  0  -0.023191  -0.035715  0  3.783851  0
C  C39  1  0.57322403  0.09452774  0.24967421  1  0  0.137337  0  3.670124  0  0  0.108566  0  3.918574  0  0  0.115179  0  3.934991  0  0  0.056184  0.103821  0  3.908861  0
C  C40  1  0.42677864  0.90546811  0.75032629  1  0  0.137241  0  3.670014  0  0  0.108463  0  3.918474  0  0  0.115074  0  3.934896  0  0  0.056112  0.103707  0  3.908758  0
C  C41  1  0.68316123  0.15633278  0.35650826  1  0  -0.135855  0  3.655255  0  0  -0.157092  0  3.903289  0  0  -0.161123  0  3.917763  0  0  -0.070463  -0.155701  0  3.896802  0
C  C42  1  0.31684611  0.84366901  0.64349247  1  0  -0.135863  0  3.655108  0  0  -0.157051  0  3.903172  0  0  -0.161087  0  3.917656  0  0  -0.070464  -0.155664  0  3.896697  0
C  C43  1  0.89793539  0.20051204  0.37429189  1  0  0.079783  0  3.776918  0  0  0.092674  0  4.018207  0  0  0.096538  0  4.034658  0  0  0.021214  0.08973  0  4.00902  0
C  C44  1  0.10206934  0.79948745  0.62570599  1  0  0.079706  0  3.776812  0  0  0.092586  0  4.018165  0  0  0.096449  0  4.034626  0  0  0.02119  0.089637  0  4.008987  0
C  C45  1  0.99087998  0.17844746  0.28309992  1  0  -0.137271  0  3.678646  0  0  -0.158642  0  3.926534  0  0  -0.163529  0  3.943927  0  0  -0.07259  -0.156051  0  3.91663  0
C  C46  1  0.00912748  0.82155199  0.71690051  1  0  -0.137259  0  3.678677  0  0  -0.158537  0  3.92657  0  0  -0.163429  0  3.943968  0  0  -0.072533  -0.155955  0  3.916676  0
C  C47  1  0.86863806  0.11681341  0.17927620  1  0  0.127987  0  3.692435  0  0  0.098899  0  3.94107  0  0  0.10459  0  3.959532  0  0  0.04976  0.09465  0  3.929702  0
C  C48  1  0.13136394  0.88318369  0.82072201  1  0  0.127885  0  3.692419  0  0  0.098781  0  3.941057  0  0  0.104483  0  3.959531  0  0  0.049682  0.094522  0  3.929684  0
C  C49  1  0.01876385  0.26349030  0.48464843  1  0  0.130845  0  3.667019  0  0  0.084289  0  3.949732  0  0  0.094152  0  3.962027  0  0  0.218641  0.078094  0  3.940756  0
C  C50  1  0.98123035  0.73650543  0.51535234  1  0  0.131005  0  3.666901  0  0  0.084344  0  3.949739  0  0  0.094199  0  3.962023  0  0  0.218642  0.078139  0  3.940722  0
C  C51  1  0.08624908  0.34654370  0.67749481  1  0  0.186889  0  3.522714  0  0  0.199202  0  3.756769  0  0  0.202544  0  3.773528  0  0  0.084236  0.196942  0  3.745165  0
C  C52  1  0.91374699  0.65345796  0.32250522  1  0  0.186927  0  3.522759  0  0  0.199152  0  3.756797  0  0  0.202478  0  3.773563  0  0  0.084226  0.196897  0  3.745174  0
C  C53  1  0.27973747  0.33394318  0.63922814  1  0  0.191363  0  3.522514  0  0  0.201922  0  3.757397  0  0  0.205334  0  3.774035  0  0  0.08433  0.199289  0  3.746557  0
C  C54  1  0.72025945  0.66605740  0.36076940  1  0  0.191154  0  3.522743  0  0  0.202053  0  3.757088  0  0  0.205489  0  3.773693  0  0  0.084286  0.199414  0  3.74624  0
C  C55  1  0.13199430  0.49338876  0.76208603  1  0  -0.339387  0  3.669512  0  0  -0.421581  0  3.898956  0  0  -0.424981  0  3.910254  0  0  -0.247887  -0.418663  0  3.890691  0
C  C56  1  0.86800260  0.50660935  0.23791520  1  0  -0.33933  0  3.669484  0  0  -0.421622  0  3.899005  0  0  -0.425019  0  3.910312  0  0  -0.247875  -0.418706  0  3.890747  0
C  C57  1  0.94256232  0.19879675  0.71455962  1  0  -0.366671  0  3.640765  0  0  -0.447577  0  3.87539  0  0  -0.451694  0  3.885418  0  0  -0.245346  -0.443627  0  3.867546  0
C  C58  1  0.05743522  0.80120497  0.28543890  1  0  -0.36659  0  3.640718  0  0  -0.447469  0  3.875311  0  0  -0.45157  0  3.885341  0  0  -0.245304  -0.443512  0  3.867466  0
C  C59  1  0.45100331  0.49440275  0.63526468  1  0  -0.370974  0  3.634875  0  0  -0.454059  0  3.871246  0  0  -0.457693  0  3.880713  0  0  -0.248774  -0.451333  0  3.865443  0
C  C60  1  0.54898871  0.50559657  0.36473320  1  0  -0.37091  0  3.634981  0  0  -0.454061  0  3.871233  0  0  -0.457686  0  3.880689  0  0  -0.248758  -0.451317  0  3.865441  0
C  C61  1  0.36693030  0.24269626  0.70117972  1  0  -0.349022  0  3.664948  0  0  -0.431608  0  3.901353  0  0  -0.434345  0  3.910895  0  0  -0.247435  -0.429409  0  3.895434  0
C  C62  1  0.63307115  0.75731011  0.29882203  1  0  -0.348844  0  3.664969  0  0  -0.431462  0  3.901261  0  0  -0.434203  0  3.910825  0  0  -0.247405  -0.429263  0  3.895341  0
N  N63  1  0.72494182  0.21303232  0.95716698  1  0  -0.423131  0  3.037415  0  0  -0.365236  0  3.30493  0  0  -0.383299  0  3.321643  0  0  -0.360923  -0.351866  0  3.29296  0
N  N64  1  0.27506798  0.78696614  0.04282867  1  0  -0.423247  0  3.037004  0  0  -0.365374  0  3.304552  0  0  -0.383439  0  3.321261  0  0  -0.360969  -0.352  0  3.292587  0
N  N65  1  0.67810713  0.86582244  0.95601593  1  0  -0.406196  0  3.059465  0  0  -0.343944  0  3.324757  0  0  -0.362208  0  3.34198  0  0  -0.350905  -0.330262  0  3.311578  0
N  N66  1  0.32189698  0.13417346  0.04398386  1  0  -0.406332  0  3.059802  0  0  -0.344099  0  3.325109  0  0  -0.362363  0  3.342328  0  0  -0.350897  -0.330416  0  3.311931  0
N  N67  1  0.66392754  0.07619880  0.16253836  1  0  -0.300825  0  3.295587  0  0  -0.220158  0  3.552  0  0  -0.237888  0  3.569976  0  0  -0.319085  -0.209514  0  3.540509  0
N  N68  1  0.33607787  0.92379946  0.83746181  1  0  -0.300798  0  3.295428  0  0  -0.220158  0  3.551906  0  0  -0.237889  0  3.569882  0  0  -0.319097  -0.209478  0  3.540375  0
N  N69  1  0.97139537  0.34532976  0.56877592  1  0  0.14624  0  3.532493  0  0  0.190815  0  3.817116  0  0  0.19179  0  3.834055  0  0  -0.100696  0.190192  0  3.805462  0
N  N70  1  0.02860205  0.65467430  0.43122289  1  0  0.145924  0  3.532442  0  0  0.190737  0  3.817001  0  0  0.191843  0  3.833906  0  0  -0.100737  0.190174  0  3.80529  0
N  N71  1  0.18847399  0.24428075  0.52145724  1  0  0.145037  0  3.538969  0  0  0.191882  0  3.819379  0  0  0.192697  0  3.837806  0  0  -0.107117  0.191293  0  3.805077  0
N  N72  1  0.81152570  0.75571736  0.47854497  1  0  0.144784  0  3.538935  0  0  0.191762  0  3.819238  0  0  0.192678  0  3.837641  0  0  -0.107123  0.191228  0  3.804878  0
O  O73  1  0.82838869  0.39221384  0.56236170  1  0  -0.395839  0  1.759632  0  0  -0.368318  0  1.985233  0  0  -0.383216  0  1.988448  0  0  -0.168313  -0.356599  0  1.982415  0
O  O74  1  0.17160019  0.60777723  0.43763576  1  0  -0.396133  0  1.759602  0  0  -0.368383  0  1.985105  0  0  -0.383143  0  1.988274  0  0  -0.168299  -0.356608  0  1.982258  0
O  O75  1  0.27399302  0.16996635  0.46595018  1  0  -0.412803  0  1.707838  0  0  -0.382742  0  1.918016  0  0  -0.401655  0  1.921607  0  0  -0.186472  -0.370408  0  1.914858  0
O  O76  1  0.72600505  0.83003645  0.53405171  1  0  -0.41308  0  1.707779  0  0  -0.382831  0  1.917942  0  0  -0.401635  0  1.921523  0  0  -0.18651  -0.370445  0  1.914754  0
