# generated using pymatgen
data_CoH28C14(NO6)2
_symmetry_space_group_name_H-M   'P 1'
_cell_length_a   7.11817909
_cell_length_b   8.05242658
_cell_length_c   8.72580999
_cell_angle_alpha   87.76662927
_cell_angle_beta   90.23924551
_cell_angle_gamma   76.65442611
_symmetry_Int_Tables_number   1
_chemical_formula_structural   CoH28C14(NO6)2
_chemical_formula_sum   'Co1 H28 C14 N2 O12'
_cell_volume   486.23076070
_cell_formula_units_Z   1
loop_
 _symmetry_equiv_pos_site_id
 _symmetry_equiv_pos_as_xyz
  1  'x, y, z'
loop_
 _atom_site_type_symbol
 _atom_site_label
 _atom_site_symmetry_multiplicity
 _atom_site_fract_x
 _atom_site_fract_y
 _atom_site_fract_z
 _atom_site_occupancy
 _atom_site_hse06_10hf_bader_charge
 _atom_site_hse06_10hf_bader_spin_density
 _atom_site_hse06_10hf_ddec_charge
 _atom_site_hse06_10hf_ddec_spin_density
 _atom_site_hse06_10hf_ddec_sum_bond_order
 _atom_site_hse06_10hf_magmom
 _atom_site_hse06_ddec_charge
 _atom_site_hse06_ddec_spin_density
 _atom_site_hse06_ddec_sum_bond_order
 _atom_site_hse06_magmom
 _atom_site_pbe_cm5_charge
 _atom_site_pbe_ddec_charge
 _atom_site_pbe_ddec_spin_density
 _atom_site_pbe_ddec_sum_bond_order
 _atom_site_pbe_magmom
Co  Co0  1  0.50000201  0.99999850  0.49999430  1  1.194362  0.964602  0.893627  1.016485  2.571556  0.952  0.999202  1.020259  2.468029  0.961  0.550572  0.828216  1.005456  2.639804  0.936
H  H1  1  0.69991510  0.31385698  0.21273968  1  0.491013  5e-06  0.25636  -2.2e-05  0.91778  0.0  0.265115  -2.6e-05  0.911237  0.0  0.319626  0.250032  -1e-05  0.922614  0.0
H  H2  1  0.30010421  0.68613240  0.78726599  1  0.490914  5e-06  0.256355  -2.2e-05  0.917692  0.0  0.265111  -2.6e-05  0.911151  0.0  0.319615  0.250028  -1e-05  0.922525  0.0
H  H3  1  0.84581013  0.45126186  0.42267430  1  0.133054  3.1e-05  0.136179  -3.6e-05  0.989242  0.0  0.139077  -4.4e-05  0.987018  0.0  0.1227  0.133877  -4.1e-05  0.990969  0.0
H  H4  1  0.15420686  0.54872479  0.57734786  1  0.132992  3.2e-05  0.136182  -3.6e-05  0.989309  0.0  0.139086  -4.3e-05  0.987078  0.0  0.122683  0.133886  -4e-05  0.991034  0.0
H  H5  1  0.04140106  0.26541909  0.42343926  1  0.174519  -0.000214  0.151948  -0.000262  0.967764  0.0  0.154589  -0.000174  0.966474  0.0  0.12867  0.149666  -0.000369  0.969164  0.0
H  H6  1  0.95858623  0.73457161  0.57657680  1  0.174698  -0.000214  0.151993  -0.000261  0.967768  0.0  0.154633  -0.000174  0.96648  0.0  0.128708  0.149711  -0.000369  0.969175  0.0
H  H7  1  0.00030983  0.03789794  0.26587456  1  0.098211  -7.6e-05  0.132204  -0.000129  0.998837  0.0  0.13437  -0.000124  0.997723  0.0  0.120493  0.130793  -0.000124  0.999652  0.0
H  H8  1  0.99969078  0.96210155  0.73412332  1  0.098207  -7.6e-05  0.132222  -0.000129  0.998774  0.0  0.134389  -0.000124  0.997658  0.0  0.120506  0.130819  -0.000124  0.999588  0.0
H  H9  1  0.01463755  0.12410611  0.07641651  1  0.12744  -9e-06  0.132875  -1.2e-05  1.026311  0.0  0.135437  -1.4e-05  1.025192  0.0  0.120368  0.131047  -1e-05  1.027343  0.0
H  H10  1  0.98537747  0.87590059  0.92359785  1  0.126878  -9e-06  0.132875  -1.2e-05  1.026389  0.0  0.135387  -1.4e-05  1.025321  0.0  0.120365  0.131051  -1e-05  1.027418  0.0
H  H11  1  0.84048482  0.55657568  0.18551687  1  0.087744  0.000507  0.075189  0.000303  0.993769  0.0  0.076213  0.000193  0.993302  0.0  0.116015  0.074383  0.000423  0.994085  0.0
H  H12  1  0.15952458  0.44342376  0.81448814  1  0.087981  0.000507  0.075211  0.000303  0.993868  0.0  0.076234  0.000193  0.993403  0.0  0.116022  0.074408  0.000423  0.994183  0.0
H  H13  1  0.66630130  0.45692793  0.97436790  1  0.005288  3.2e-05  0.098875  1.7e-05  0.991166  0.0  0.100725  1.1e-05  0.989961  0.0  0.095785  0.097459  2.7e-05  0.992258  0.0
H  H14  1  0.33369680  0.54307633  0.02563591  1  0.00536  3.2e-05  0.098811  1.7e-05  0.991345  0.0  0.10066  1.1e-05  0.990138  0.0  0.095747  0.097394  2.7e-05  0.992435  0.0
H  H15  1  0.88144497  0.31677818  0.91575679  1  0.100827  1e-06  0.104368  2e-06  1.012131  0.0  0.106116  4e-06  1.011419  0.0  0.095698  0.102972  7e-06  1.012954  0.0
H  H16  1  0.11856058  0.68322511  0.08424911  1  0.100834  1e-06  0.104305  2e-06  1.012038  0.0  0.106029  4e-06  1.011353  0.0  0.09567  0.102893  7e-06  1.012883  0.0
H  H17  1  0.18431712  0.42136002  0.24593661  1  0.049846  -1.2e-05  0.107123  -4.1e-05  0.9807  0.0  0.108168  -4.5e-05  0.980673  0.0  0.097742  0.106388  -3.1e-05  0.980717  0.0
H  H18  1  0.81568829  0.57864488  0.75407373  1  0.050058  -1.2e-05  0.10717  -4.1e-05  0.980701  0.0  0.108214  -4.4e-05  0.980682  0.0  0.097771  0.106444  -3.2e-05  0.980719  0.0
H  H19  1  0.19729595  0.29406783  0.08267050  1  0.089356  9e-06  0.113473  -4.3e-05  1.023715  0.0  0.115571  -7.3e-05  1.023065  0.0  0.098596  0.111936  2e-06  1.024233  0.0
H  H20  1  0.80270722  0.70593942  0.91733738  1  0.089307  9e-06  0.113462  -4.3e-05  1.023682  0.0  0.115567  -7.3e-05  1.02303  0.0  0.098546  0.111927  2e-06  1.024206  0.0
H  H21  1  0.56743531  0.90345172  0.77766199  1  0.663632  0.000222  0.400913  0.000114  0.935918  0.0  0.413364  0.000251  0.918505  0.0  0.299102  0.392113  -4.6e-05  0.948232  0.0
H  H22  1  0.43258006  0.09654291  0.22232834  1  0.66352  0.000222  0.401181  0.000114  0.935555  0.0  0.41363  0.000251  0.918143  0.0  0.299234  0.392378  -4.6e-05  0.947871  0.0
H  H23  1  0.68589129  0.04392663  0.71649845  1  0.633348  0.000349  0.378995  0.000162  0.943286  0.0  0.389869  0.000386  0.932298  0.0  0.303969  0.371174  -0.000129  0.951457  0.0
H  H24  1  0.31411116  0.95607060  0.28347833  1  0.63333  0.00035  0.379017  0.000162  0.94314  0.0  0.389891  0.000386  0.932152  0.0  0.303975  0.371193  -0.000129  0.951295  0.0
H  H25  1  0.30280540  0.20376647  0.72519770  1  0.659454  -0.000188  0.386616  -0.000264  0.955137  0.0  0.397371  -0.0003  0.93957  0.0  0.287062  0.379138  -0.000205  0.965954  0.0
H  H26  1  0.69716346  0.79623888  0.27479455  1  0.659405  -0.000189  0.386579  -0.000264  0.955166  0.0  0.397338  -0.000301  0.939593  0.0  0.287028  0.379101  -0.000205  0.965983  0.0
H  H27  1  0.47157021  0.27762459  0.65589866  1  0.63346  -0.00024  0.371683  -0.000259  0.959756  0.0  0.38148  -0.000326  0.945386  0.0  0.291989  0.36491  -0.000174  0.969744  0.0
H  H28  1  0.52838877  0.72238904  0.34408621  1  0.633281  -0.00024  0.371557  -0.000259  0.959935  0.0  0.381355  -0.000325  0.945563  0.0  0.291901  0.364784  -0.000174  0.969917  0.0
C  C29  1  0.88651943  0.31463956  0.39870122  1  0.133031  -0.000669  -0.223417  -0.000915  3.745516  0.0  -0.225354  -0.000747  3.749376  0.0  -0.056328  -0.221626  -0.000875  3.743441  0.0
C  C30  1  0.11347937  0.68534822  0.60130662  1  0.132855  -0.000669  -0.223619  -0.000915  3.74546  0.0  -0.225556  -0.00075  3.749328  0.0  -0.056392  -0.221834  -0.000876  3.743392  0.0
C  C31  1  0.76650528  0.22013995  0.49985519  1  1.638851  -0.002933  0.624926  -0.003952  4.141608  -0.002  0.662925  -0.001909  4.135101  -0.001  0.214894  0.597433  -0.006774  4.147373  -0.004
C  C32  1  0.23347665  0.77986276  0.50013219  1  1.639635  -0.002931  0.625008  -0.003951  4.141386  -0.002  0.663004  -0.001906  4.134882  -0.001  0.215012  0.597519  -0.00677  4.147146  -0.004
C  C33  1  0.91963740  0.12124626  0.17473055  1  0.193041  -0.000115  -0.24695  -0.000224  3.77127  0.0  -0.247812  -0.000236  3.776272  0.0  -0.074079  -0.246442  -0.000199  3.767835  0.0
C  C34  1  0.08035748  0.87875914  0.82527212  1  0.193693  -0.000117  -0.24688  -0.000225  3.770995  0.0  -0.247695  -0.000237  3.776002  0.0  -0.074058  -0.246371  -0.000199  3.767556  0.0
C  C35  1  0.74391432  0.05273070  0.13104062  1  1.641877  1.5e-05  0.629277  -5.9e-05  4.203196  0.0  0.66219  -6e-05  4.194953  0.0  0.207026  0.606923  -8.4e-05  4.208315  0.0
C  C36  1  0.25607673  0.94727855  0.86896294  1  1.64171  1.5e-05  0.629095  -5.8e-05  4.2034  0.0  0.662003  -6.1e-05  4.19516  0.0  0.206986  0.606738  -8.4e-05  4.208523  0.0
C  C37  1  0.90854605  0.43711536  0.13117365  1  0.234419  0.000617  0.103185  0.000342  3.741659  0.0  0.10664  0.000243  3.756742  0.0  0.008693  0.100838  0.000457  3.731384  0.001
C  C38  1  0.09146610  0.56287884  0.86882950  1  0.234089  0.000617  0.103128  0.000342  3.741693  0.0  0.106589  0.000242  3.756773  0.0  0.008703  0.100782  0.000457  3.731424  0.001
C  C39  1  0.82398912  0.43883096  0.96973239  1  -0.038635  -2e-06  -0.196119  3e-06  3.900976  0.0  -0.197575  -1e-06  3.913469  0.0  -0.162452  -0.195099  6e-06  3.892302  0.0
C  C40  1  0.17602335  0.56116188  0.03026974  1  -0.038544  -1e-06  -0.196009  4e-06  3.901011  0.0  -0.19745  -3e-06  3.913498  0.0  -0.162362  -0.194983  7e-06  3.892333  0.0
C  C41  1  0.12659668  0.41690170  0.12973911  1  -0.028993  -7.5e-05  -0.197996  -0.000144  3.88502  0.0  -0.200016  -0.00018  3.898181  0.0  -0.165489  -0.196187  -5.9e-05  3.875604  0.0
C  C42  1  0.87341778  0.58309209  0.87027550  1  -0.029223  -7.6e-05  -0.198008  -0.000144  3.88513  0.0  -0.200024  -0.000181  3.898267  0.0  -0.165376  -0.196201  -5.9e-05  3.875724  0.0
N  N43  1  0.84954689  0.29894634  0.23072670  1  -1.014802  2.1e-05  0.002318  -2.9e-05  3.534653  0.0  -0.009019  -4.3e-05  3.551114  0.0  -0.33818  0.010164  -9e-06  3.52322  0.0
N  N44  1  0.15047029  0.70104556  0.76927880  1  -1.014683  2.2e-05  0.002494  -2.9e-05  3.53423  0.0  -0.008853  -4.2e-05  3.550687  0.0  -0.338144  0.010345  -9e-06  3.522802  0.0
O  O45  1  0.68302437  0.12107076  0.42738448  1  -1.161722  -0.008074  -0.551275  -0.009079  2.500975  -0.007  -0.597774  -0.008502  2.491565  -0.007  -0.309263  -0.520989  -0.008011  2.508274  -0.006
O  O46  1  0.31698329  0.87891765  0.57261143  1  -1.162382  -0.008076  -0.551416  -0.00908  2.500592  -0.007  -0.597917  -0.008504  2.491183  -0.007  -0.30933  -0.521134  -0.008013  2.507894  -0.006
O  O47  1  0.75593083  0.24665080  0.64133197  1  -1.220497  -0.001734  -0.561871  -0.001858  2.104666  -0.001  -0.584663  -0.001282  2.093817  -0.001  -0.315622  -0.547319  -0.002552  2.113217  -0.002
O  O48  1  0.24405770  0.75336039  0.35866344  1  -1.22059  -0.001734  -0.561775  -0.001859  2.104984  -0.001  -0.584564  -0.001282  2.094133  -0.001  -0.31563  -0.547223  -0.002552  2.113523  -0.002
O  O49  1  0.58365131  0.16237238  0.11618093  1  -1.206151  5.5e-05  -0.575552  -4.2e-05  2.185487  0.0  -0.599858  7.1e-05  2.174612  0.0  -0.323336  -0.558465  -0.000336  2.192712  0.0
O  O50  1  0.41634198  0.83764472  0.88380561  1  -1.205922  5.5e-05  -0.575416  -4.1e-05  2.185685  0.0  -0.599727  7.1e-05  2.174823  0.0  -0.323262  -0.558331  -0.000337  2.192919  0.0
O  O51  1  0.77390014  0.89331630  0.11812928  1  -1.199969  0.000153  -0.581229  1e-06  2.186114  0.0  -0.60449  2.2e-05  2.175108  0.0  -0.327014  -0.565139  -5.6e-05  2.193421  0.0
O  O52  1  0.22611624  0.10669348  0.88185593  1  -1.200215  0.000153  -0.581178  1e-06  2.186137  0.0  -0.604437  2.2e-05  2.175139  0.0  -0.327056  -0.565084  -5.6e-05  2.193447  0.0
O  O53  1  0.64918094  0.93693380  0.69098899  1  -1.221328  -0.009594  -0.747011  -0.012102  2.277017  -0.009  -0.785762  -0.013792  2.245119  -0.01  -0.555634  -0.720804  -0.007984  2.29896  -0.007
O  O54  1  0.35082692  0.06306172  0.30899810  1  -1.22112  -0.009597  -0.747269  -0.012102  2.276543  -0.009  -0.786018  -0.013793  2.244645  -0.01  -0.55577  -0.721054  -0.007984  2.298477  -0.007
O  O55  1  0.34521440  0.25590089  0.62931906  1  -1.293494  0.039613  -0.771964  0.020282  2.002384  0.032  -0.79656  0.016568  1.968771  0.027  -0.57641  -0.753358  0.024424  2.025108  0.038
O  O56  1  0.65475437  0.74410615  0.37067876  1  -1.293253  0.039623  -0.771823  0.020288  2.002467  0.032  -0.79642  0.016573  1.968847  0.027  -0.576288  -0.75322  0.024432  2.025193  0.038
