# generated using pymatgen
data_ZnH18C23(NO4)2
_symmetry_space_group_name_H-M   'P 1'
_cell_length_a   8.63206842
_cell_length_b   12.59555467
_cell_length_c   12.61170000
_cell_angle_alpha   107.13761646
_cell_angle_beta   108.33399162
_cell_angle_gamma   108.62699299
_symmetry_Int_Tables_number   1
_chemical_formula_structural   ZnH18C23(NO4)2
_chemical_formula_sum   'Zn2 H36 C46 N4 O16'
_cell_volume   1108.05309143
_cell_formula_units_Z   2
loop_
 _symmetry_equiv_pos_site_id
 _symmetry_equiv_pos_as_xyz
  1  'x, y, z'
loop_
 _atom_site_type_symbol
 _atom_site_label
 _atom_site_symmetry_multiplicity
 _atom_site_fract_x
 _atom_site_fract_y
 _atom_site_fract_z
 _atom_site_occupancy
 _atom_site_hle17_bader_spin_density
 _atom_site_hle17_ddec_charge
 _atom_site_hle17_ddec_spin_density
 _atom_site_hle17_ddec_sum_bond_order
 _atom_site_hle17_magmom
 _atom_site_hse06_10hf_bader_spin_density
 _atom_site_hse06_10hf_ddec_charge
 _atom_site_hse06_10hf_ddec_spin_density
 _atom_site_hse06_10hf_ddec_sum_bond_order
 _atom_site_hse06_10hf_magmom
 _atom_site_hse06_bader_spin_density
 _atom_site_hse06_ddec_charge
 _atom_site_hse06_ddec_spin_density
 _atom_site_hse06_ddec_sum_bond_order
 _atom_site_hse06_magmom
 _atom_site_pbe_bader_charge
 _atom_site_pbe_bader_spin_density
 _atom_site_pbe_cm5_charge
 _atom_site_pbe_ddec_charge
 _atom_site_pbe_ddec_spin_density
 _atom_site_pbe_ddec_sum_bond_order
 _atom_site_pbe_magmom
Zn  Zn0  1  0.83363062  0.92901005  0.04038341  1  0  1.091127  0  1.758799  0  0  0.905956  0  2.233178  0  0  0.957  0  2.171957  0  1.293249  0  0.702047  0.870204  0  2.275328  0
Zn  Zn1  1  0.33270973  0.04073766  0.92863004  1  0  1.090069  0  1.763537  0  0  0.904736  0  2.239113  0  0  0.955634  0  2.177799  0  1.292675  0  0.702045  0.869088  0  2.28133  0
H  H2  1  0.40342664  0.97535368  0.23232631  1  0  0.404587  0  0.899139  0  0  0.372905  0  0.974599  0  0  0.385915  0  0.956622  0  0.666296  0  0.297508  0.363784  0  0.986137  0
H  H3  1  0.90181688  0.23094965  0.97496477  1  0  0.405586  0  0.897549  0  0  0.37347  0  0.97411  0  0  0.386443  0  0.956176  0  0.661105  0  0.297638  0.364376  0  0.985304  0
H  H4  1  0.56619992  0.62343982  0.81912849  1  0  0.31068  0  0.939507  0  0  0.284284  0  1.01019  0  0  0.295278  0  1.001095  0  0.570187  0  0.304627  0.276552  0  1.016559  0
H  H5  1  0.06597548  0.81905912  0.62295584  1  0  0.310908  0  0.941338  0  0  0.283923  0  1.012954  0  0  0.294909  0  1.003852  0  0.573134  0  0.304457  0.276191  0  1.01932  0
H  H6  1  0.93996500  0.10779099  0.57165978  1  0  0.104565  0  0.95462  0  0  0.111521  0  1.021557  0  0  0.116109  0  1.017377  0  0.102669  0  0.106847  0.108225  0  1.024545  0
H  H7  1  0.43886914  0.57183810  0.10783922  1  0  0.104846  0  0.954029  0  0  0.111591  0  1.02128  0  0  0.116183  0  1.017071  0  0.099089  0  0.106766  0.108262  0  1.024311  0
H  H8  1  0.37280302  0.96490463  0.49250749  1  0  0.11073  0  0.940337  0  0  0.119301  0  1.002626  0  0  0.123561  0  0.99912  0  0.120164  0  0.110707  0.116164  0  1.005276  0
H  H9  1  0.87170609  0.49124410  0.96466046  1  0  0.109764  0  0.939803  0  0  0.118243  0  1.002341  0  0  0.122507  0  0.998824  0  0.119745  0  0.110084  0.115109  0  1.004993  0
H  H10  1  0.93841258  0.00224854  0.30440743  1  0  0.090381  0  0.951622  0  0  0.096722  0  1.017113  0  0  0.099425  0  1.014176  0  0.132901  0  0.117539  0.094672  0  1.019295  0
H  H11  1  0.43954644  0.30504144  0.00308032  1  0  0.090688  0  0.950892  0  0  0.097118  0  1.01626  0  0  0.099793  0  1.013366  0  0.13722  0  0.117874  0.095076  0  1.01846  0
H  H12  1  0.20911150  0.16001943  0.50818812  1  0  0.108156  0  0.943104  0  0  0.120984  0  0.998052  0  0  0.123718  0  0.99797  0  0.061528  0  0.108619  0.119013  0  0.998326  0
H  H13  1  0.71057412  0.50917367  0.16097179  1  0  0.10816  0  0.942651  0  0  0.121294  0  0.997316  0  0  0.124038  0  0.997226  0  0.057545  0  0.108677  0.11932  0  0.997586  0
H  H14  1  0.44951074  0.31899619  0.30373834  1  0  0.111042  0  0.938889  0  0  0.124261  0  0.99262  0  0  0.126865  0  0.993498  0  0.072263  0  0.109777  0.122418  0  0.992151  0
H  H15  1  0.94760544  0.30305590  0.31791305  1  0  0.112697  0  0.939212  0  0  0.12568  0  0.992961  0  0  0.128304  0  0.993754  0  0.097484  0  0.110521  0.12383  0  0.992514  0
H  H16  1  0.16845589  0.16036730  0.11120280  1  0  0.093763  0  0.950493  0  0  0.099049  0  1.020101  0  0  0.101994  0  1.0165  0  0.133901  0  0.12033  0.096763  0  1.022901  0
H  H17  1  0.66661661  0.11014492  0.15893929  1  0  0.093458  0  0.95077  0  0  0.098678  0  1.020143  0  0  0.101616  0  1.016613  0  0.132075  0  0.120284  0.096406  0  1.02286  0
H  H18  1  0.51041345  0.31277843  0.61654231  1  0  0.078882  0  0.925299  0  0  0.098879  0  0.981406  0  0  0.099583  0  0.981465  0  0.024312  0  0.098822  0.098329  0  0.98143  0
H  H19  1  0.01187115  0.61738247  0.31341856  1  0  0.078579  0  0.925329  0  0  0.09906  0  0.981179  0  0  0.099794  0  0.981227  0  0.025232  0  0.098774  0.098469  0  0.981241  0
H  H20  1  0.51369640  0.43534674  0.57631434  1  0  0.077168  0  0.92787  0  0  0.096134  0  0.987393  0  0  0.097041  0  0.987648  0  0.045119  0  0.093801  0.095472  0  0.987244  0
H  H21  1  0.01306329  0.57633891  0.43512726  1  0  0.077364  0  0.927384  0  0  0.09615  0  0.987408  0  0  0.097097  0  0.987637  0  0.04444  0  0.093975  0.095488  0  0.987243  0
H  H22  1  0.70494864  0.28691975  0.48793239  1  0  0.075929  0  0.950797  0  0  0.093337  0  1.011195  0  0  0.093815  0  1.012565  0  0.062755  0  0.090996  0.092928  0  1.01028  0
H  H23  1  0.20480139  0.48794170  0.28701030  1  0  0.076083  0  0.950301  0  0  0.093476  0  1.010419  0  0  0.093953  0  1.011774  0  0.064657  0  0.090979  0.093069  0  1.009511  0
H  H24  1  0.74939318  0.44166243  0.51477467  1  0  0.057454  0  0.934421  0  0  0.076732  0  0.993638  0  0  0.077792  0  0.99398  0  0.00231  0  0.084778  0.075911  0  0.993447  0
H  H25  1  0.24764671  0.51409323  0.44105757  1  0  0.057279  0  0.934502  0  0  0.076361  0  0.993438  0  0  0.077379  0  0.993828  0  0.00176  0  0.084512  0.075584  0  0.993208  0
H  H26  1  0.82997196  0.49119561  0.74458948  1  0  0.096449  0  0.966513  0  0  0.108821  0  1.033889  0  0  0.110424  0  1.033587  0  0.095319  0  0.096844  0.107591  0  1.034162  0
H  H27  1  0.33047899  0.74485728  0.49156808  1  0  0.095905  0  0.966618  0  0  0.108458  0  1.033931  0  0  0.109993  0  1.033704  0  0.103069  0  0.096737  0.107263  0  1.034168  0
H  H28  1  0.81790874  0.34121674  0.71069380  1  0  0.091946  0  0.917583  0  0  0.109401  0  0.973464  0  0  0.110215  0  0.974255  0  0.042707  0  0.099311  0.108736  0  0.973012  0
H  H29  1  0.31979497  0.71160761  0.34222610  1  0  0.091816  0  0.918167  0  0  0.109171  0  0.974161  0  0  0.110041  0  0.974875  0  0.04268  0  0.099555  0.108471  0  0.973767  0
H  H30  1  0.09191046  0.31586540  0.73074265  1  0  0.129163  0  0.97354  0  0  0.134321  0  1.038537  0  0  0.137705  0  1.037819  0  0.15798  0  0.112999  0.131845  0  1.039245  0
H  H31  1  0.59339171  0.73109931  0.31651675  1  0  0.129605  0  0.971172  0  0  0.134495  0  1.036452  0  0  0.137908  0  1.03567  0  0.158925  0  0.112845  0.132  0  1.037196  0
H  H32  1  0.42493498  0.42237124  0.79418746  1  0  0.106873  0  0.905545  0  0  0.11934  0  0.9584  0  0  0.122048  0  0.956043  0  0.133456  0  0.139653  0.117299  0  0.960235  0
H  H33  1  0.92610685  0.79437927  0.42253529  1  0  0.106618  0  0.905886  0  0  0.119149  0  0.958498  0  0  0.121833  0  0.956191  0  0.12558  0  0.139568  0.117126  0  0.960291  0
H  H34  1  0.40353491  0.74212192  0.77726104  1  0  0.115005  0  0.92845  0  0  0.119946  0  0.994753  0  0  0.123277  0  0.991396  0  0.179606  0  0.133139  0.117398  0  0.997321  0
H  H35  1  0.90196824  0.77684326  0.74114279  1  0  0.114513  0  0.927529  0  0  0.119494  0  0.993806  0  0  0.122833  0  0.990441  0  0.185181  0  0.133289  0.116965  0  0.996324  0
H  H36  1  0.06612691  0.64770653  0.70859341  1  0  0.119441  0  0.949514  0  0  0.126036  0  1.015103  0  0  0.129659  0  1.013685  0  0.098288  0  0.112296  0.123421  0  1.016285  0
H  H37  1  0.56491876  0.70841619  0.64722474  1  0  0.119512  0  0.950519  0  0  0.126207  0  1.016079  0  0  0.129738  0  1.014788  0  0.098153  0  0.112296  0.12362  0  1.017218  0
C  C38  1  0.65173656  0.03636555  0.51902194  1  0  -0.074764  0  3.792796  0  0  -0.051883  0  4.032161  0  0  -0.060115  0  4.054353  0  -0.045654  0  -0.022253  -0.046763  0  4.017306  0
C  C39  1  0.15066495  0.51864533  0.03632021  1  0  -0.075359  0  3.793987  0  0  -0.052875  0  4.033382  0  0  -0.061145  0  4.055612  0  0.00653  0  -0.022855  -0.04772  0  4.018501  0
C  C40  1  0.83346992  0.07542170  0.59971935  1  0  -0.078575  0  3.73269  0  0  -0.115419  0  3.986392  0  0  -0.112548  0  4.003531  0  0.001366  0  -0.078051  -0.116949  0  3.974748  0
C  C41  1  0.33267689  0.59982968  0.07555575  1  0  -0.077331  0  3.731632  0  0  -0.113874  0  3.9852  0  0  -0.110965  0  4.002365  0  0.016995  0  -0.078136  -0.11539  0  3.973533  0
C  C42  1  0.87995618  0.06927948  0.71354664  1  0  -0.077978  0  3.727087  0  0  -0.063855  0  3.967875  0  0  -0.071346  0  3.988693  0  -0.054704  0  -0.015832  -0.059215  0  3.954128  0
C  C43  1  0.37971062  0.71401842  0.06957806  1  0  -0.078247  0  3.728717  0  0  -0.064341  0  3.969527  0  0  -0.0719  0  3.990328  0  -0.031709  0  -0.015075  -0.059695  0  3.955749  0
C  C44  1  0.74155206  0.02648447  0.74894965  1  0  -0.042648  0  3.659451  0  0  -0.038836  0  3.893078  0  0  -0.038158  0  3.90952  0  -0.058053  0  0.006214  -0.039383  0  3.882406  0
C  C45  1  0.24156181  0.74917903  0.02687152  1  0  -0.043043  0  3.663189  0  0  -0.038838  0  3.895063  0  0  -0.038014  0  3.911271  0  -0.090554  0  0.0056  -0.039326  0  3.884314  0
C  C46  1  0.55947900  0.99216504  0.66980493  1  0  -0.077125  0  3.733721  0  0  -0.061423  0  3.971373  0  0  -0.068797  0  3.991082  0  0.059032  0  -0.011246  -0.05684  0  3.958367  0
C  C47  1  0.05906303  0.66949993  0.99220117  1  0  -0.076732  0  3.733036  0  0  -0.060927  0  3.97039  0  0  -0.06837  0  3.990105  0  -0.010234  0  -0.010933  -0.056342  0  3.957361  0
C  C48  1  0.51479559  0.99496103  0.55473955  1  0  -0.065262  0  3.706804  0  0  -0.102845  0  3.958756  0  0  -0.099174  0  3.974983  0  -0.046164  0  -0.074898  -0.104927  0  3.9478  0
C  C49  1  0.01385492  0.55403816  0.99480836  1  0  -0.064084  0  3.705028  0  0  -0.101669  0  3.957261  0  0  -0.097999  0  3.973505  0  -0.015469  0  -0.07445  -0.103762  0  3.946309  0
C  C50  1  0.60730988  0.03685611  0.39491262  1  0  0.641  0  3.861025  0  0  0.594677  0  4.158332  0  0  0.627268  0  4.149765  0  1.560985  0  0.219885  0.572572  0  4.163681  0
C  C51  1  0.10573150  0.39416049  0.03653571  1  0  0.636838  0  3.86823  0  0  0.591198  0  4.164391  0  0  0.623795  0  4.155893  0  1.533456  0  0.218375  0.569075  0  4.169713  0
C  C52  1  0.07748248  0.10444756  0.79138523  1  0  0.645204  0  3.931227  0  0  0.595407  0  4.228691  0  0  0.629356  0  4.221584  0  1.590644  0  0.199358  0.572359  0  4.232787  0
C  C53  1  0.57740704  0.79222679  0.10452648  1  0  0.644808  0  3.934748  0  0  0.594445  0  4.23272  0  0  0.628393  0  4.22567  0  1.564166  0  0.198987  0.571386  0  4.236793  0
C  C54  1  0.78233876  0.01354440  0.86831418  1  0  0.679557  0  3.886227  0  0  0.621254  0  4.189078  0  0  0.656488  0  4.179124  0  1.595809  0  0.217266  0.597199  0  4.195249  0
C  C55  1  0.28298079  0.86915280  0.01475949  1  0  0.677112  0  3.889481  0  0  0.620068  0  4.190236  0  0  0.655297  0  4.180183  0  1.610095  0  0.21607  0.595975  0  4.196478  0
C  C56  1  0.41217068  0.95610539  0.70997423  1  0  0.679019  0  3.895329  0  0  0.626297  0  4.192932  0  0  0.661245  0  4.183448  0  1.612005  0  0.218833  0.602501  0  4.198782  0
C  C57  1  0.91217874  0.70970041  0.95610614  1  0  0.678957  0  3.896224  0  0  0.625494  0  4.19518  0  0  0.660467  0  4.185695  0  1.621408  0  0.217938  0.601684  0  4.201038  0
C  C58  1  0.05514608  0.07467468  0.30953651  1  0  0.152814  0  3.686035  0  0  0.121327  0  3.93419  0  0  0.130196  0  3.951568  0  0.439485  0  0.05459  0.115642  0  3.922402  0
C  C59  1  0.55569453  0.30991063  0.07508131  1  0  0.150481  0  3.689029  0  0  0.118928  0  3.937585  0  0  0.127753  0  3.955027  0  0.444888  0  0.053738  0.113255  0  3.925766  0
C  C60  1  0.20641651  0.16266340  0.42191470  1  0  -0.182577  0  3.720427  0  0  -0.200056  0  3.966407  0  0  -0.210156  0  3.989481  0  0.027711  0  -0.087275  -0.19356  0  3.950923  0
C  C61  1  0.70708123  0.42248408  0.16316238  1  0  -0.181981  0  3.720616  0  0  -0.199647  0  3.96687  0  0  -0.209734  0  3.989978  0  0.030165  0  -0.08669  -0.193164  0  3.951379  0
C  C62  1  0.35510018  0.25284377  0.42413014  1  0  0.150832  0  3.728464  0  0  0.16462  0  3.970405  0  0  0.170549  0  3.993199  0  -0.003503  0  0.013431  0.160918  0  3.954767  0
C  C63  1  0.85485430  0.42428310  0.25281962  1  0  0.151956  0  3.728698  0  0  0.165643  0  3.971079  0  0  0.171557  0  3.993932  0  -0.009712  0  0.013418  0.161943  0  3.955407  0
C  C64  1  0.34064620  0.25135252  0.30984411  1  0  -0.16178  0  3.675967  0  0  -0.178171  0  3.921192  0  0  -0.187369  0  3.942496  0  -0.036835  0  -0.081314  -0.172312  0  3.906888  0
C  C65  1  0.83945689  0.30943686  0.25065811  1  0  -0.163888  0  3.678669  0  0  -0.18022  0  3.924003  0  0  -0.189387  0  3.945267  0  -0.046277  0  -0.081802  -0.174367  0  3.909723  0
C  C66  1  0.18462907  0.16159649  0.20072576  1  0  0.161009  0  3.66572  0  0  0.123912  0  3.922391  0  0  0.13378  0  3.938179  0  0.502762  0  0.055204  0.117511  0  3.911695  0
C  C67  1  0.68343428  0.20012664  0.16076236  1  0  0.162586  0  3.666636  0  0  0.125886  0  3.92267  0  0  0.135755  0  3.938441  0  0.490464  0  0.055889  0.119492  0  3.911981  0
C  C68  1  0.52018518  0.34588635  0.54614284  1  0  -0.15433  0  3.691564  0  0  -0.199114  0  3.948709  0  0  -0.20039  0  3.960892  0  -0.01368  0  -0.154606  -0.198072  0  3.940108  0
C  C69  1  0.02023763  0.54640656  0.34599227  1  0  -0.15415  0  3.692076  0  0  -0.199737  0  3.949871  0  0  -0.201124  0  3.962169  0  -0.013913  0  -0.15463  -0.198622  0  3.94118  0
C  C70  1  0.70878226  0.37152121  0.54908179  1  0  -0.085812  0  3.643317  0  0  -0.124637  0  3.901022  0  0  -0.12585  0  3.914927  0  0.00016  0  -0.159214  -0.123498  0  3.891194  0
C  C71  1  0.20841887  0.54900296  0.37149309  1  0  -0.08601  0  3.644594  0  0  -0.123822  0  3.901141  0  0  -0.124978  0  3.915009  0  -0.002125  0  -0.158476  -0.12274  0  3.89133  0
C  C72  1  0.84938530  0.41841228  0.68417072  1  0  -0.183489  0  3.690522  0  0  -0.221764  0  3.937454  0  0  -0.224761  0  3.950095  0  -0.030956  0  -0.16028  -0.219426  0  3.928492  0
C  C73  1  0.35004001  0.68451880  0.41885678  1  0  -0.183031  0  3.692719  0  0  -0.221814  0  3.939936  0  0  -0.224787  0  3.952542  0  -0.038708  0  -0.160778  -0.219506  0  3.931042  0
C  C74  1  0.04697045  0.47212638  0.71113301  1  0  0.188215  0  3.668912  0  0  0.200548  0  3.906205  0  0  0.207793  0  3.927737  0  0.010262  0  0.033851  0.195893  0  3.89148  0
C  C75  1  0.54724103  0.71127466  0.47229665  1  0  0.188344  0  3.670846  0  0  0.200515  0  3.908177  0  0  0.207744  0  3.929692  0  0.006162  0  0.033941  0.195881  0  3.893451  0
C  C76  1  0.15101075  0.40850788  0.73531427  1  0  -0.160917  0  3.666881  0  0  -0.177163  0  3.914006  0  0  -0.187085  0  3.936039  0  0.013696  0  -0.070944  -0.170885  0  3.899423  0
C  C77  1  0.65187083  0.73551432  0.40880587  1  0  -0.160698  0  3.666456  0  0  -0.176616  0  3.913283  0  0  -0.186515  0  3.935299  0  0.021023  0  -0.070783  -0.170355  0  3.898718  0
C  C78  1  0.33693582  0.46605597  0.77157631  1  0  0.149297  0  3.628383  0  0  0.107056  0  3.883072  0  0  0.115737  0  3.899531  0  0.415591  0  0.070024  0.101466  0  3.871998  0
C  C79  1  0.83756269  0.77167470  0.46606954  1  0  0.148552  0  3.630495  0  0  0.106526  0  3.884749  0  0  0.115184  0  3.901252  0  0.417073  0  0.069848  0.10095  0  3.873649  0
C  C80  1  0.32481479  0.64673940  0.76014054  1  0  0.154297  0  3.612248  0  0  0.109742  0  3.875948  0  0  0.11954  0  3.890066  0  0.394111  0  0.068065  0.103384  0  3.866543  0
C  C81  1  0.82390794  0.75987989  0.64611245  1  0  0.155963  0  3.612532  0  0  0.111301  0  3.87625  0  0  0.121109  0  3.890335  0  0.398712  0  0.068439  0.10493  0  3.866884  0
C  C82  1  0.13786010  0.59217103  0.72186081  1  0  -0.159333  0  3.672055  0  0  -0.17928  0  3.929573  0  0  -0.188643  0  3.950219  0  0.0306  0  -0.072543  -0.173416  0  3.915944  0
C  C83  1  0.63715343  0.72173397  0.59184484  1  0  -0.16013  0  3.672048  0  0  -0.180125  0  3.92961  0  0  -0.189401  0  3.950237  0  0.025891  0  -0.072486  -0.174294  0  3.916003  0
N  N84  1  0.04458463  0.07379149  0.20022650  1  0  -0.345136  0  3.29761  0  0  -0.258966  0  3.577054  0  0  -0.280699  0  3.590578  0  -1.244867  0  -0.330045  -0.244368  0  3.567661  0
N  N85  1  0.54419566  0.20006322  0.07352708  1  0  -0.344421  0  3.300303  0  0  -0.258225  0  3.579851  0  0  -0.279906  0  3.593266  0  -1.246909  0  -0.330161  -0.243663  0  3.57054  0
N  N86  1  0.41951670  0.58272081  0.78379125  1  0  -0.23379  0  3.461844  0  0  -0.162133  0  3.692638  0  0  -0.179011  0  3.708665  0  -1.312367  0  -0.339708  -0.151001  0  3.681805  0
N  N87  1  0.91925269  0.78369147  0.58229815  1  0  -0.234942  0  3.463461  0  0  -0.163061  0  3.694717  0  0  -0.17994  0  3.710802  0  -1.318914  0  -0.339901  -0.15193  0  3.683865  0
O  O88  1  0.42873154  0.97568756  0.31934144  1  0  -0.563705  0  2.0795  0  0  -0.515241  0  2.293915  0  0  -0.538161  0  2.277745  0  -1.18965  0  -0.339326  -0.499267  0  2.303931  0
O  O89  1  0.92711425  0.31823424  0.97549493  1  0  -0.56212  0  2.079001  0  0  -0.513808  0  2.293984  0  0  -0.536676  0  2.277859  0  -1.18451  0  -0.338875  -0.497849  0  2.303747  0
O  O90  1  0.72689367  0.08899035  0.36817540  1  0  -0.569182  0  1.903774  0  0  -0.533231  0  2.120275  0  0  -0.552621  0  2.112706  0  -1.162093  0  -0.304882  -0.519871  0  2.125133  0
O  O91  1  0.22494576  0.36739437  0.08828732  1  0  -0.568307  0  1.905709  0  0  -0.532394  0  2.121728  0  0  -0.55181  0  2.11414  0  -1.164462  0  -0.304563  -0.51901  0  2.126605  0
O  O92  1  0.20195249  0.18214578  0.78449452  1  0  -0.609401  0  1.881241  0  0  -0.568256  0  2.093322  0  0  -0.589953  0  2.084369  0  -1.184952  0  -0.328162  -0.552911  0  2.098876  0
O  O93  1  0.70141839  0.78522003  0.18175938  1  0  -0.609452  0  1.882517  0  0  -0.568016  0  2.094833  0  0  -0.589731  0  2.085914  0  -1.17633  0  -0.328148  -0.552678  0  2.100408  0
O  O94  1  0.09861824  0.04427974  0.85824506  1  0  -0.658076  0  2.069226  0  0  -0.58286  0  2.34958  0  0  -0.612793  0  2.333545  0  -1.150934  0  -0.329221  -0.561785  0  2.359782  0
O  O95  1  0.59924854  0.85932954  0.04455817  1  0  -0.657943  0  2.071569  0  0  -0.58264  0  2.351929  0  0  -0.612564  0  2.335945  0  -1.154429  0  -0.329413  -0.561606  0  2.362197  0
O  O96  1  0.86224041  0.10833097  0.97180657  1  0  -0.607982  0  2.063295  0  0  -0.552105  0  2.301047  0  0  -0.578739  0  2.290414  0  -1.188982  0  -0.2932  -0.533399  0  2.307525  0
O  O97  1  0.36282294  0.97247655  0.10973552  1  0  -0.604374  0  2.063074  0  0  -0.54954  0  2.299249  0  0  -0.576046  0  2.288615  0  -1.177853  0  -0.291516  -0.53089  0  2.305771  0
O  O98  1  0.72983578  0.90286692  0.86003651  1  0  -0.631123  0  2.007752  0  0  -0.562572  0  2.273543  0  0  -0.591548  0  2.259615  0  -1.154734  0  -0.312803  -0.542136  0  2.282376  0
O  O99  1  0.23052126  0.86117240  0.90447690  1  0  -0.632014  0  2.009648  0  0  -0.563636  0  2.275266  0  0  -0.592604  0  2.261058  0  -1.152402  0  -0.314345  -0.543236  0  2.284357  0
O  O100  1  0.45664697  0.02879736  0.82044447  1  0  -0.627238  0  2.10663  0  0  -0.556612  0  2.380366  0  0  -0.585283  0  2.364345  0  -1.168737  0  -0.31108  -0.53665  0  2.390844  0
O  O101  1  0.95682489  0.82048696  0.02864124  1  0  -0.627973  0  2.107384  0  0  -0.557179  0  2.381729  0  0  -0.585937  0  2.365751  0  -1.169253  0  -0.311099  -0.537141  0  2.39213  0
O  O102  1  0.26087938  0.86052889  0.63266120  1  0  -0.623639  0  1.974228  0  0  -0.575098  0  2.201739  0  0  -0.598889  0  2.191176  0  -1.201396  0  -0.319502  -0.558316  0  2.208403  0
O  O103  1  0.76110990  0.63225492  0.86074459  1  0  -0.623534  0  1.973258  0  0  -0.575003  0  2.200619  0  0  -0.598803  0  2.190078  0  -1.203986  0  -0.31898  -0.55822  0  2.207272  0
