# generated using pymatgen
data_MoPH6(C2O3)2
_symmetry_space_group_name_H-M   'P 1'
_cell_length_a   9.31671759
_cell_length_b   10.47762416
_cell_length_c   11.97190080
_cell_angle_alpha   115.96589260
_cell_angle_beta   111.00502058
_cell_angle_gamma   90.03563326
_symmetry_Int_Tables_number   1
_chemical_formula_structural   MoPH6(C2O3)2
_chemical_formula_sum   'Mo4 P4 H24 C16 O24'
_cell_volume   963.43235109
_cell_formula_units_Z   4
loop_
 _symmetry_equiv_pos_site_id
 _symmetry_equiv_pos_as_xyz
  1  'x, y, z'
loop_
 _atom_site_type_symbol
 _atom_site_label
 _atom_site_symmetry_multiplicity
 _atom_site_fract_x
 _atom_site_fract_y
 _atom_site_fract_z
 _atom_site_occupancy
 _atom_site_pbe_bader_spin_density
 _atom_site_pbe_cm5_charge
 _atom_site_pbe_ddec_charge
 _atom_site_pbe_ddec_spin_density
 _atom_site_pbe_ddec_sum_bond_order
 _atom_site_pbe_magmom
Mo  Mo0  1  0.76830230  0.12316734  0.52797727  1  0  1.619744  2.176102  0  4.479278  0
Mo  Mo1  1  0.73170823  0.59522439  0.47227083  1  0  1.619271  2.17588  0  4.475  0
Mo  Mo2  1  0.23168381  0.87682384  0.47201583  1  0  1.619761  2.176109  0  4.478947  0
Mo  Mo3  1  0.26828937  0.40477344  0.52772046  1  0  1.619417  2.175935  0  4.475677  0
P  P4  1  0.53105967  0.28480996  0.37004765  1  0  0.38033  1.396484  0  5.206339  0
P  P5  1  0.96910247  0.91516273  0.63016241  1  0  0.379791  1.39548  0  5.20532  0
P  P6  1  0.46894980  0.71521019  0.62997572  1  0  0.379902  1.39685  0  5.207644  0
P  P7  1  0.03090444  0.08482436  0.36982542  1  0  0.379537  1.395924  0  5.206906  0
H  H8  1  0.34526513  0.06942832  0.24041094  1  0  0.121757  0.173961  0  0.959739  0
H  H9  1  0.15580154  0.83052529  0.76007758  1  0  0.121573  0.17334  0  0.959858  0
H  H10  1  0.65474965  0.93058031  0.75959171  1  0  0.121732  0.17398  0  0.959518  0
H  H11  1  0.84418574  0.16947248  0.23991261  1  0  0.121537  0.173345  0  0.959797  0
H  H12  1  0.28802117  0.19779403  0.18317426  1  0  0.115393  0.16174  0  0.995377  0
H  H13  1  0.21180841  0.01639913  0.81722108  1  0  0.115442  0.161299  0  0.994354  0
H  H14  1  0.71198256  0.80219150  0.81683633  1  0  0.115367  0.161792  0  0.995154  0
H  H15  1  0.78818797  0.98360283  0.18278155  1  0  0.11544  0.161367  0  0.994248  0
H  H16  1  0.43744450  0.87045169  0.11265016  1  0  0.105624  0.112701  0  0.988102  0
H  H17  1  0.06294878  0.75808039  0.88696374  1  0  0.105604  0.112769  0  0.988018  0
H  H18  1  0.56256726  0.12954713  0.88735197  1  0  0.105632  0.112732  0  0.988057  0
H  H19  1  0.93703532  0.24188252  0.11302679  1  0  0.105498  0.112706  0  0.98817  0
H  H20  1  0.53099466  0.74407541  0.92940632  1  0  0.108313  0.122604  0  0.979834  0
H  H21  1  0.96897370  0.81399853  0.06981674  1  0  0.108147  0.122287  0  0.979176  0
H  H22  1  0.46901367  0.25590608  0.07058969  1  0  0.10829  0.122498  0  0.980008  0
H  H23  1  0.03100392  0.18596396  0.93019278  1  0  0.108194  0.122215  0  0.979731  0
H  H24  1  0.86867842  0.43108389  0.67157004  1  0  0.302182  0.416245  0  0.896113  0
H  H25  1  0.63164438  0.75954516  0.32861262  1  0  0.302647  0.417055  0  0.895015  0
H  H26  1  0.13132052  0.56892572  0.32843130  1  0  0.302247  0.416321  0  0.896038  0
H  H27  1  0.36837097  0.24046679  0.67138733  1  0  0.302651  0.417032  0  0.895095  0
H  H28  1  0.01404742  0.36564052  0.66410893  1  0  0.301733  0.419884  0  0.890695  0
H  H29  1  0.48616540  0.70086594  0.33556360  1  0  0.30218  0.420269  0  0.890041  0
H  H30  1  0.98596399  0.63436802  0.33589697  1  0  0.301782  0.419937  0  0.890623  0
H  H31  1  0.51382406  0.29914264  0.66443146  1  0  0.302185  0.420265  0  0.890062  0
C  C32  1  0.38689393  0.14582830  0.21352584  1  0  -0.152282  -0.506454  0  3.927024  0
C  C33  1  0.11347458  0.93343721  0.78681146  1  0  -0.151955  -0.504943  0  3.925715  0
C  C34  1  0.61308514  0.85411494  0.78641042  1  0  -0.15208  -0.506772  0  3.926477  0
C  C35  1  0.88655884  0.06658211  0.21326474  1  0  -0.151771  -0.505102  0  3.925556  0
C  C36  1  0.44545676  0.07135187  0.10348749  1  0  -0.008414  0.158684  0  3.995816  0
C  C37  1  0.05479703  0.96840425  0.89667969  1  0  -0.008099  0.159458  0  3.996801  0
C  C38  1  0.55456097  0.92865209  0.89653248  1  0  -0.00836  0.158757  0  3.99415  0
C  C39  1  0.94518944  0.03161308  0.10331220  1  0  -0.008135  0.15913  0  3.995975  0
C  C40  1  0.46473128  0.92748563  0.06312261  1  0  -0.088809  -0.136804  0  3.978069  0
C  C41  1  0.03549462  0.86453497  0.93663999  1  0  -0.088869  -0.137142  0  3.977448  0
C  C42  1  0.53526264  0.07253119  0.93689780  1  0  -0.088921  -0.137108  0  3.977555  0
C  C43  1  0.96450954  0.13546450  0.06332529  1  0  -0.08892  -0.137209  0  3.978397  0
C  C44  1  0.51821881  0.85660594  0.96065848  1  0  -0.090661  -0.140484  0  3.96291  0
C  C45  1  0.98172497  0.89562094  0.03890686  1  0  -0.090598  -0.140573  0  3.963048  0
C  C46  1  0.48177574  0.14339556  0.03936687  1  0  -0.090552  -0.140047  0  3.962715  0
C  C47  1  0.01828442  0.10437260  0.96108586  1  0  -0.090682  -0.14043  0  3.964494  0
O  O48  1  0.67965068  0.22053279  0.41337069  1  0  -0.39089  -0.771658  0  2.357414  0
O  O49  1  0.82059670  0.80731556  0.58694001  1  0  -0.39079  -0.771605  0  2.355207  0
O  O50  1  0.32037123  0.77946496  0.58663456  1  0  -0.390822  -0.771724  0  2.357371  0
O  O51  1  0.17937730  0.19267230  0.41305105  1  0  -0.390795  -0.771688  0  2.355248  0
O  O52  1  0.46428095  0.33928372  0.47790861  1  0  -0.386165  -0.797465  0  2.375466  0
O  O53  1  0.03581438  0.86177480  0.52226966  1  0  -0.385766  -0.797095  0  2.375683  0
O  O54  1  0.53568428  0.66072763  0.52210199  1  0  -0.38596  -0.797408  0  2.375384  0
O  O55  1  0.96421605  0.13823301  0.47772514  1  0  -0.385826  -0.797363  0  2.375537  0
O  O56  1  0.58032639  0.40659140  0.34178293  1  0  -0.383061  -0.732938  0  2.255897  0
O  O57  1  0.91958406  0.06508475  0.65831278  1  0  -0.382937  -0.732573  0  2.254972  0
O  O58  1  0.41966820  0.59341521  0.65820353  1  0  -0.383102  -0.733096  0  2.255925  0
O  O59  1  0.08040745  0.93495076  0.34169771  1  0  -0.38295  -0.732697  0  2.255529  0
O  O60  1  0.68577485  0.95095473  0.39965202  1  0  -0.487842  -0.650745  0  1.71925  0
O  O61  1  0.81376966  0.55148909  0.60065914  1  0  -0.487712  -0.650356  0  1.717452  0
O  O62  1  0.31423314  0.04904972  0.60033881  1  0  -0.487772  -0.650688  0  1.718949  0
O  O63  1  0.18622824  0.44850847  0.39934632  1  0  -0.487805  -0.650408  0  1.717596  0
O  O64  1  0.64366545  0.17310617  0.60910008  1  0  -0.487239  -0.635774  0  1.67734  0
O  O65  1  0.85667684  0.56390851  0.39141462  1  0  -0.486909  -0.635971  0  1.677094  0
O  O66  1  0.35632913  0.82689254  0.39090078  1  0  -0.48726  -0.635777  0  1.677359  0
O  O67  1  0.14333432  0.43608960  0.60856785  1  0  -0.486858  -0.635743  0  1.677487  0
O  O68  1  0.92374364  0.35565534  0.68669945  1  0  -0.579873  -0.766152  0  1.960368  0
O  O69  1  0.57672144  0.66871941  0.31327006  1  0  -0.580756  -0.76747  0  1.959144  0
O  O70  1  0.07626746  0.64436289  0.31331189  1  0  -0.579945  -0.766226  0  1.960482  0
O  O71  1  0.42326490  0.33128075  0.68670913  1  0  -0.58076  -0.767448  0  1.959475  0
