# generated using pymatgen
data_K2NaH5C6O7
_symmetry_space_group_name_H-M   'P 1'
_cell_length_a   5.52828863
_cell_length_b   7.59924123
_cell_length_c   11.33116971
_cell_angle_alpha   82.57897017
_cell_angle_beta   88.85722683
_cell_angle_gamma   83.88681548
_symmetry_Int_Tables_number   1
_chemical_formula_structural   K2NaH5C6O7
_chemical_formula_sum   'K4 Na2 H10 C12 O14'
_cell_volume   469.35062433
_cell_formula_units_Z   2
loop_
 _symmetry_equiv_pos_site_id
 _symmetry_equiv_pos_as_xyz
  1  'x, y, z'
loop_
 _atom_site_type_symbol
 _atom_site_label
 _atom_site_symmetry_multiplicity
 _atom_site_fract_x
 _atom_site_fract_y
 _atom_site_fract_z
 _atom_site_occupancy
 _atom_site_hle17_bader_spin_density
 _atom_site_hle17_ddec_charge
 _atom_site_hle17_ddec_spin_density
 _atom_site_hle17_ddec_sum_bond_order
 _atom_site_hle17_magmom
 _atom_site_hse06_10hf_bader_spin_density
 _atom_site_hse06_10hf_ddec_charge
 _atom_site_hse06_10hf_ddec_spin_density
 _atom_site_hse06_10hf_ddec_sum_bond_order
 _atom_site_hse06_10hf_magmom
 _atom_site_hse06_bader_spin_density
 _atom_site_hse06_ddec_charge
 _atom_site_hse06_ddec_spin_density
 _atom_site_hse06_ddec_sum_bond_order
 _atom_site_hse06_magmom
 _atom_site_pbe_bader_spin_density
 _atom_site_pbe_cm5_charge
 _atom_site_pbe_ddec_charge
 _atom_site_pbe_ddec_spin_density
 _atom_site_pbe_ddec_sum_bond_order
 _atom_site_pbe_magmom
K  K0  1  0.76141492  0.53580037  0.86462561  1  0  0.924508  0  0.500033  0  0  0.871899  0  0.697684  0  0  0.88761  0  0.674255  0  0  0.788445  0.860098  0  0.714412  0
K  K1  1  0.23858266  0.46420605  0.13535811  1  0  0.924476  0  0.500048  0  0  0.871891  0  0.697689  0  0  0.887601  0  0.674258  0  0  0.788414  0.860103  0  0.714395  0
K  K2  1  0.25527769  0.63987524  0.41326049  1  0  0.935562  0  0.506459  0  0  0.886114  0  0.703803  0  0  0.902391  0  0.678049  0  0  0.823775  0.873899  0  0.722197  0
K  K3  1  0.74470109  0.36012302  0.58674172  1  0  0.935537  0  0.50645  0  0  0.886064  0  0.703836  0  0  0.902341  0  0.678086  0  0  0.823781  0.873881  0  0.722175  0
Na  Na4  1  0.74279643  0.86774189  0.59779875  1  0  0.907749  0  0.399336  0  0  0.863782  0  0.554878  0  0  0.874809  0  0.533299  0  0  0.724873  0.855585  0  0.570374  0
Na  Na5  1  0.25720820  0.13226567  0.40220069  1  0  0.907759  0  0.399325  0  0  0.863779  0  0.554879  0  0  0.874815  0  0.533297  0  0  0.724866  0.855585  0  0.570378  0
H  H6  1  0.27034475  0.69310577  0.87869479  1  0  0.107988  0  0.954543  0  0  0.119472  0  1.02294  0  0  0.123238  0  1.019729  0  0  0.109914  0.116733  0  1.025362  0
H  H7  1  0.72964907  0.30688844  0.12130849  1  0  0.107984  0  0.954484  0  0  0.119483  0  1.02289  0  0  0.123239  0  1.019686  0  0  0.109903  0.116754  0  1.025301  0
H  H8  1  0.00566595  0.81500365  0.81293768  1  0  0.102078  0  0.982108  0  0  0.114652  0  1.048908  0  0  0.117121  0  1.047691  0  0  0.10325  0.112852  0  1.049886  0
H  H9  1  0.99433715  0.18497594  0.18706053  1  0  0.102026  0  0.982016  0  0  0.114608  0  1.048867  0  0  0.117067  0  1.047657  0  0  0.103223  0.112807  0  1.049848  0
H  H10  1  0.25541291  0.98669038  0.96544347  1  0  0.13136  0  0.928239  0  0  0.146342  0  0.986021  0  0  0.148868  0  0.985469  0  0  0.112272  0.14454  0  0.986555  0
H  H11  1  0.74458034  0.01330781  0.03456126  1  0  0.131347  0  0.928195  0  0  0.14635  0  0.985958  0  0  0.148872  0  0.985407  0  0  0.112269  0.144549  0  0.986491  0
H  H12  1  0.03609526  0.10833513  0.86621198  1  0  0.126631  0  0.944186  0  0  0.137654  0  1.007027  0  0  0.141118  0  1.004958  0  0  0.11191  0.135175  0  1.00866  0
H  H13  1  0.96391141  0.89165768  0.13379483  1  0  0.126579  0  0.944098  0  0  0.137648  0  1.006893  0  0  0.141106  0  1.004823  0  0  0.111937  0.135169  0  1.008526  0
H  H14  1  0.63833670  0.02171752  0.81184864  1  0  0.378118  0  0.913851  0  0  0.353205  0  0.9876  0  0  0.364524  0  0.974571  0  0  0.297869  0.345178  0  0.996811  0
H  H15  1  0.36165856  0.97827938  0.18815265  1  0  0.378164  0  0.913766  0  0  0.353274  0  0.987476  0  0  0.364596  0  0.974436  0  0  0.297838  0.345246  0  0.996688  0
C  C16  1  0.23033810  0.66678115  0.69323273  1  0  0.734593  0  3.881276  0  0  0.696057  0  4.178805  0  0  0.728474  0  4.170054  0  0  0.18376  0.674008  0  4.184059  0
C  C17  1  0.76967395  0.33322503  0.30676941  1  0  0.734395  0  3.881343  0  0  0.695953  0  4.178751  0  0  0.728372  0  4.169998  0  0  0.183691  0.673902  0  4.184012  0
C  C18  1  0.19932583  0.77715690  0.79793146  1  0  -0.363788  0  3.658839  0  0  -0.405572  0  3.889842  0  0  -0.412429  0  3.89699  0  0  -0.181125  -0.400757  0  3.884996  0
C  C19  1  0.80067249  0.22284399  0.20206947  1  0  -0.36353  0  3.658685  0  0  -0.40541  0  3.889741  0  0  -0.41225  0  3.896892  0  0  -0.181053  -0.400603  0  3.884888  0
C  C20  1  0.32545923  0.94870024  0.78204209  1  0  0.264803  0  3.580773  0  0  0.271206  0  3.815829  0  0  0.274661  0  3.827972  0  0  0.064911  0.268694  0  3.807575  0
C  C21  1  0.67454833  0.05129929  0.21795975  1  0  0.264667  0  3.58103  0  0  0.271091  0  3.816116  0  0  0.274542  0  3.828251  0  0  0.064914  0.26858  0  3.807868  0
C  C22  1  0.23139133  0.06744644  0.87748058  1  0  -0.361866  0  3.600924  0  0  -0.398992  0  3.832494  0  0  -0.406338  0  3.838752  0  0  -0.159541  -0.394005  0  3.828342  0
C  C23  1  0.76860736  0.93255175  0.12252322  1  0  -0.361675  0  3.600688  0  0  -0.398868  0  3.832327  0  0  -0.406192  0  3.838563  0  0  -0.15957  -0.393885  0  3.828179  0
C  C24  1  0.36562594  0.23259361  0.88140031  1  0  0.733677  0  3.846036  0  0  0.690616  0  4.147068  0  0  0.723953  0  4.137936  0  0  0.201391  0.667958  0  4.152506  0
C  C25  1  0.63436732  0.76740467  0.11859646  1  0  0.733574  0  3.846075  0  0  0.69051  0  4.147133  0  0  0.723841  0  4.138006  0  0  0.201391  0.667854  0  4.152567  0
C  C26  1  0.26051148  0.05301198  0.65736071  1  0  0.613998  0  3.905848  0  0  0.574322  0  4.198208  0  0  0.604574  0  4.191172  0  0  0.188746  0.553775  0  4.202357  0
C  C27  1  0.73948735  0.94699821  0.34264299  1  0  0.614055  0  3.905913  0  0  0.574398  0  4.198246  0  0  0.604649  0  4.191209  0  0  0.188803  0.55385  0  4.202393  0
O  O28  1  0.03938758  0.61364673  0.65348166  1  0  -0.815874  0  1.927021  0  0  -0.77053  0  2.171615  0  0  -0.793034  0  2.157892  0  0  -0.511873  -0.754679  0  2.18065  0
O  O29  1  0.96061992  0.38636613  0.34651997  1  0  -0.815887  0  1.926987  0  0  -0.770568  0  2.171541  0  0  -0.793078  0  2.15782  0  0  -0.51181  -0.754715  0  2.180581  0
O  O30  1  0.44287682  0.63607401  0.65061493  1  0  -0.774197  0  1.944296  0  0  -0.729881  0  2.192316  0  0  -0.75269  0  2.180079  0  0  -0.493902  -0.713863  0  2.200313  0
O  O31  1  0.55713542  0.36393087  0.34938379  1  0  -0.774065  0  1.9443  0  0  -0.72978  0  2.192286  0  0  -0.752581  0  2.180029  0  0  -0.493881  -0.713763  0  2.200287  0
O  O32  1  0.25099776  0.36818263  0.91864376  1  0  -0.753978  0  1.925123  0  0  -0.707492  0  2.168959  0  0  -0.731775  0  2.157923  0  0  -0.469558  -0.690322  0  2.175982  0
O  O33  1  0.74900544  0.63182236  0.08134797  1  0  -0.753973  0  1.925252  0  0  -0.707481  0  2.169086  0  0  -0.731766  0  2.158058  0  0  -0.469536  -0.69031  0  2.176106  0
O  O34  1  0.59109020  0.22290984  0.85031405  1  0  -0.721688  0  1.949624  0  0  -0.66911  0  2.182295  0  0  -0.694272  0  2.17159  0  0  -0.420912  -0.651405  0  2.189173  0
O  O35  1  0.40890324  0.77708703  0.14968990  1  0  -0.721626  0  1.949565  0  0  -0.669065  0  2.182262  0  0  -0.694229  0  2.171557  0  0  -0.420918  -0.651358  0  2.189138  0
O  O36  1  0.03949265  0.06456109  0.62595849  1  0  -0.744987  0  1.971278  0  0  -0.702479  0  2.220327  0  0  -0.72414  0  2.208157  0  0  -0.480557  -0.687246  0  2.228318  0
O  O37  1  0.96050529  0.93544237  0.37405107  1  0  -0.745051  0  1.971323  0  0  -0.702546  0  2.22037  0  0  -0.724209  0  2.208198  0  0  -0.480653  -0.687308  0  2.228361  0
O  O38  1  0.42853485  0.11975858  0.59454995  1  0  -0.758211  0  2.006402  0  0  -0.713828  0  2.251715  0  0  -0.734843  0  2.239401  0  0  -0.504662  -0.699069  0  2.259814  0
O  O39  1  0.57146059  0.88023708  0.40544349  1  0  -0.758257  0  2.006398  0  0  -0.713871  0  2.251683  0  0  -0.734884  0  2.239369  0  0  -0.504627  -0.699107  0  2.259781  0
O  O40  1  0.58318419  0.90459482  0.79539409  1  0  -0.666453  0  2.077333  0  0  -0.627388  0  2.313162  0  0  -0.641774  0  2.299542  0  0  -0.489009  -0.617128  0  2.322605  0
O  O41  1  0.41682012  0.09540206  0.20460712  1  0  -0.666523  0  2.077227  0  0  -0.627509  0  2.313115  0  0  -0.6419  0  2.29949  0  0  -0.488957  -0.617249  0  2.32256  0
