# generated using pymatgen
data_CuH36C58(N3O5)2
_symmetry_space_group_name_H-M   'P 1'
_cell_length_a   9.26256952
_cell_length_b   10.63664447
_cell_length_c   13.09752368
_cell_angle_alpha   108.67105202
_cell_angle_beta   94.74521842
_cell_angle_gamma   105.88735126
_symmetry_Int_Tables_number   1
_chemical_formula_structural   CuH36C58(N3O5)2
_chemical_formula_sum   'Cu1 H36 C58 N6 O10'
_cell_volume   1155.06109455
_cell_formula_units_Z   1
loop_
 _symmetry_equiv_pos_site_id
 _symmetry_equiv_pos_as_xyz
  1  'x, y, z'
loop_
 _atom_site_type_symbol
 _atom_site_label
 _atom_site_symmetry_multiplicity
 _atom_site_fract_x
 _atom_site_fract_y
 _atom_site_fract_z
 _atom_site_occupancy
 _atom_site_pbe_bader_charge
 _atom_site_pbe_bader_spin_density
 _atom_site_pbe_cm5_charge
 _atom_site_pbe_ddec_charge
 _atom_site_pbe_ddec_spin_density
 _atom_site_pbe_ddec_sum_bond_order
 _atom_site_pbe_magmom
Cu  Cu0  1  0.49999984  0.99999873  0.99999863  1  1.06265  -0.555564  0.758206  0.771416  -0.721718  2.144686  -0.555
H  H1  1  0.50051665  0.61806541  0.89073502  1  0.680313  -2.2e-05  0.307739  0.384382  -5.9e-05  0.952187  0.0
H  H2  1  0.49948535  0.38192771  0.10926647  1  0.680311  -2.2e-05  0.307724  0.384307  -5.9e-05  0.952326  0.0
H  H3  1  0.49254041  0.75511742  0.27669704  1  0.11473  -0.001137  0.112677  0.120195  -0.000595  1.009864  -0.001
H  H4  1  0.50745894  0.24488087  0.72330108  1  0.114954  -0.001136  0.112658  0.120173  -0.000595  1.009892  -0.001
H  H5  1  0.56199711  0.80806123  0.10989698  1  0.10777  -0.002294  0.122793  0.098098  -0.001047  0.987598  -0.002
H  H6  1  0.43800367  0.19193811  0.89010072  1  0.107664  -0.002294  0.122784  0.098056  -0.001047  0.987615  -0.002
H  H7  1  0.37472478  0.13092427  0.18055672  1  0.150284  -0.002167  0.117145  0.095667  -0.000951  1.05369  -0.002
H  H8  1  0.62527349  0.86907088  0.81943977  1  0.15032  -0.002167  0.117156  0.095679  -0.000951  1.053698  -0.002
H  H9  1  0.30504851  0.09657235  0.35185449  1  0.125113  -0.00089  0.108253  0.1111  -0.00047  1.058381  -0.001
H  H10  1  0.69494647  0.90342276  0.64814030  1  0.12512  -0.00089  0.108212  0.111063  -0.00047  1.058439  -0.001
H  H11  1  0.29186946  0.07931048  0.49678477  1  0.112303  -3.8e-05  0.105341  0.110291  -3e-05  1.064796  0.0
H  H12  1  0.70813124  0.92069197  0.50321067  1  0.11239  -3.8e-05  0.105377  0.110354  -3e-05  1.064719  0.0
H  H13  1  0.16067470  0.76243266  0.64126223  1  0.040229  1e-05  0.105526  0.118429  1.7e-05  1.011816  0.0
H  H14  1  0.83932425  0.23757399  0.35873802  1  0.040149  1e-05  0.105552  0.118498  1.7e-05  1.011799  0.0
H  H15  1  0.35785425  0.63330882  0.67354074  1  0.095134  -2.2e-05  0.103876  0.117284  -2.4e-05  1.018289  0.0
H  H16  1  0.64214515  0.36669577  0.32646283  1  0.095206  -2.2e-05  0.103878  0.11726  -2.4e-05  1.018313  0.0
H  H17  1  0.35977952  0.39235537  0.64989664  1  0.075154  -2.5e-05  0.109507  0.078348  -1.6e-05  0.993987  0.0
H  H18  1  0.64022201  0.60764922  0.35010474  1  0.075197  -2.6e-05  0.109501  0.078316  -1.6e-05  0.994041  0.0
H  H19  1  0.19257884  0.24819206  0.31585564  1  0.081725  -2e-05  0.107252  0.075413  -1.5e-05  1.004634  0.0
H  H20  1  0.80742485  0.75181254  0.68414585  1  0.081639  -1.9e-05  0.107272  0.07545  -1.5e-05  1.004657  0.0
H  H21  1  0.19410372  0.48651492  0.32434613  1  0.106548  3e-06  0.098621  0.103179  1.3e-05  1.062563  0.0
H  H22  1  0.80589673  0.51348966  0.67565596  1  0.106489  3e-06  0.098631  0.103168  1.3e-05  1.062579  0.0
H  H23  1  0.11779073  0.13660159  0.54497056  1  0.08404  -2e-06  0.099696  0.095286  -1e-06  1.064731  0.0
H  H24  1  0.88220426  0.86339982  0.45502814  1  0.084112  -2e-06  0.099686  0.095284  -1e-06  1.064757  0.0
H  H25  1  0.99983048  0.29229688  0.66398973  1  0.082854  0.0  0.104762  0.121439  3e-06  1.005875  0.0
H  H26  1  0.00016424  0.70770350  0.33601252  1  0.082842  0.0  0.104764  0.121445  3e-06  1.00584  0.0
H  H27  1  0.02458360  0.09390911  0.90195052  1  0.112882  -1.6e-05  0.112767  0.137453  -6e-06  0.994174  0.0
H  H28  1  0.97542408  0.90609132  0.09804933  1  0.11281  -1.6e-05  0.112747  0.13743  -6e-06  0.994242  0.0
H  H29  1  0.14825005  0.93933019  0.78454635  1  0.080988  -8.7e-05  0.101623  0.107251  -9.7e-05  1.027101  0.0
H  H30  1  0.85175428  0.06067019  0.21544873  1  0.080976  -8.8e-05  0.10165  0.107286  -9.7e-05  1.027172  0.0
H  H31  1  0.19748947  0.47230896  0.86328422  1  0.110164  -3.8e-05  0.111445  0.12971  4e-06  0.996998  0.0
H  H32  1  0.80251352  0.52769041  0.13671589  1  0.11022  -3.8e-05  0.111473  0.129766  4e-06  0.997012  0.0
H  H33  1  0.00599477  0.80780155  0.90827642  1  0.130948  -0.000555  0.11171  0.121003  -0.000479  1.013996  0.0
H  H34  1  0.99400074  0.19219468  0.09172708  1  0.130884  -0.000554  0.111726  0.121034  -0.000479  1.014006  0.0
H  H35  1  0.71734230  0.39561361  0.87021581  1  0.098301  -1.3e-05  0.110581  0.126813  2e-06  1.027557  0.0
H  H36  1  0.28266120  0.60437744  0.12978675  1  0.098299  -1.3e-05  0.110597  0.126884  2e-06  1.02755  0.0
C  C37  1  0.46580781  0.83981533  0.25816644  1  -0.011959  -0.005843  -0.075617  -0.154606  -0.004024  3.940325  -0.005
C  C38  1  0.53419365  0.16018295  0.74182872  1  -0.012256  -0.005844  -0.075555  -0.154534  -0.004024  3.940214  -0.005
C  C39  1  0.50403710  0.86822545  0.16578849  1  0.453314  0.000557  0.049043  0.090287  0.000876  3.933597  0.0
C  C40  1  0.49596435  0.13177597  0.83420825  1  0.453542  0.000558  0.048994  0.090236  0.000875  3.933416  0.0
C  C41  1  0.40108300  0.05078105  0.20663489  1  0.462805  0.001325  0.044798  0.088081  0.001735  3.916095  0.001
C  C42  1  0.59891381  0.94921618  0.79336206  1  0.46279  0.001326  0.044797  0.088078  0.001736  3.916113  0.001
C  C43  1  0.36103669  0.02914383  0.30079066  1  -0.029925  -0.0058  -0.078487  -0.152985  -0.003928  3.914201  -0.005
C  C44  1  0.63895973  0.97085235  0.69920447  1  -0.029797  -0.0058  -0.078454  -0.153008  -0.003928  3.914271  -0.005
C  C45  1  0.38994888  0.91948793  0.32708849  1  -0.008146  0.003549  0.016733  0.089166  0.003946  3.941616  0.002
C  C46  1  0.61005220  0.08050930  0.67290562  1  -0.008745  0.003549  0.016726  0.089166  0.003947  3.941794  0.002
C  C47  1  0.33504136  0.88431321  0.42062907  1  0.506533  -0.000477  0.114271  0.19558  -0.000284  4.034359  0.0
C  C48  1  0.66495649  0.11568715  0.57936721  1  0.506712  -0.000477  0.114269  0.195609  -0.000284  4.034427  0.0
C  C49  1  0.28184648  0.97581346  0.49908253  1  -0.044614  0.000625  -0.080278  -0.204381  0.000689  3.888575  0.0
C  C50  1  0.71815098  0.02418898  0.50091351  1  -0.044711  0.000625  -0.080314  -0.20442  0.000689  3.888426  0.0
C  C51  1  0.21385941  0.93414108  0.57990834  1  -0.022792  -0.000162  0.00825  0.122161  -9.2e-05  3.999335  0.0
C  C52  1  0.78614061  0.06586557  0.42009120  1  -0.022671  -0.000162  0.008252  0.122179  -9.2e-05  3.999205  0.0
C  C53  1  0.21378220  0.80303200  0.58218658  1  0.010845  0.000625  -0.083604  -0.217131  0.000702  3.887301  0.0
C  C54  1  0.78621527  0.19697358  0.41781181  1  0.010743  0.000625  -0.083616  -0.217256  0.000702  3.887466  0.0
C  C55  1  0.27576286  0.72012147  0.50333436  1  0.528204  -0.000122  0.118629  0.208632  -7.7e-05  4.027959  0.0
C  C56  1  0.72423612  0.27988205  0.49666586  1  0.528334  -0.000122  0.118649  0.208747  -7.7e-05  4.028002  0.0
C  C57  1  0.27478695  0.57917230  0.49955850  1  -0.011645  5e-06  0.010226  0.084666  5e-06  3.98136  0.0
C  C58  1  0.72521242  0.42083228  0.50044353  1  -0.011829  4e-06  0.010239  0.084632  5e-06  3.981396  0.0
C  C59  1  0.31987198  0.55120383  0.59247285  1  -0.050639  -3.5e-05  -0.086851  -0.175143  -2.2e-05  3.935278  0.0
C  C60  1  0.68013065  0.44880076  0.40752935  1  -0.050523  -3.5e-05  -0.086898  -0.175237  -2.2e-05  3.935362  0.0
C  C61  1  0.32089084  0.41587835  0.57914281  1  0.505585  1e-06  0.041875  0.097232  4e-06  3.992153  0.0
C  C62  1  0.67911107  0.58412730  0.42086039  1  0.505564  1e-06  0.041962  0.09742  4e-06  3.992243  0.0
C  C63  1  0.23036909  0.33636076  0.39403270  1  0.480208  -1.4e-05  0.035326  0.081858  -1.2e-05  4.007048  0.0
C  C64  1  0.76963574  0.66364386  0.60597115  1  0.480949  -1.4e-05  0.035269  0.081745  -1.2e-05  4.00702  0.0
C  C65  1  0.22945644  0.46836939  0.39825474  1  -0.063348  -2.4e-05  -0.088496  -0.170303  -1.2e-05  3.958111  0.0
C  C66  1  0.77054510  0.53163520  0.60174740  1  -0.064018  -2.4e-05  -0.088556  -0.170285  -1.2e-05  3.958036  0.0
C  C67  1  0.14237781  0.02467318  0.65433450  1  0.018845  -2.9e-05  -0.020333  0.028045  -1.8e-05  4.003424  0.0
C  C68  1  0.85761791  0.97532719  0.34566397  1  0.018775  -2.9e-05  -0.020403  0.027991  -1.8e-05  4.003382  0.0
C  C69  1  0.10031854  0.12672874  0.62353811  1  -0.050428  -2.7e-05  -0.087714  -0.096501  -1.9e-05  3.983835  0.0
C  C70  1  0.89967610  0.87327162  0.37646031  1  -0.050664  -2.7e-05  -0.087641  -0.096467  -1.9e-05  3.983849  0.0
C  C71  1  0.03347734  0.21548014  0.69041734  1  -0.027208  -5e-06  -0.105935  -0.208671  3e-06  4.028468  0.0
C  C72  1  0.96651913  0.78451919  0.30958166  1  -0.026934  -6e-06  -0.105932  -0.208673  2e-06  4.028481  0.0
C  C73  1  0.00583518  0.20255605  0.79037034  1  0.381473  -9e-06  0.084185  0.255371  -8e-06  4.046758  0.0
C  C74  1  0.99416567  0.79744332  0.20963119  1  0.38144  -9e-06  0.084148  0.255294  -8e-06  4.046797  0.0
C  C75  1  0.04516503  0.10151934  0.82317465  1  -0.016907  -3.8e-05  -0.097619  -0.186553  -3.7e-05  3.965229  0.0
C  C76  1  0.95483793  0.89848002  0.17682392  1  -0.01686  -3.8e-05  -0.097568  -0.186476  -3.7e-05  3.96525  0.0
C  C77  1  0.11307099  0.01361961  0.75542025  1  -0.018467  -0.000143  -0.085534  -0.103606  -8e-05  3.975165  0.0
C  C78  1  0.88693270  0.98638185  0.24457966  1  -0.018436  -0.000143  -0.08554  -0.103641  -8.1e-05  3.975085  0.0
C  C79  1  0.95376737  0.41855747  0.86229699  1  0.446142  -0.000704  0.08619  0.252512  -0.00044  4.041043  -0.001
C  C80  1  0.04623825  0.58143986  0.13770653  1  0.44623  -0.000704  0.086292  0.252546  -0.00044  4.041047  -0.001
C  C81  1  0.09827207  0.50870451  0.86795134  1  -0.014244  -0.000516  -0.084728  -0.19868  -0.000169  3.940778  -0.001
C  C82  1  0.90173280  0.49129699  0.13205322  1  -0.014252  -0.000516  -0.084834  -0.198854  -0.000169  3.940763  -0.001
C  C83  1  0.11668737  0.64938014  0.88498649  1  -0.009973  -0.008643  -0.018844  -0.015609  -0.006121  3.992301  -0.007
C  C84  1  0.88331098  0.35061818  0.11501540  1  -0.009892  -0.008642  -0.018821  -0.01545  -0.006121  3.992072  -0.007
C  C85  1  0.99113472  0.69814742  0.89391883  1  -0.029534  -0.000141  -0.078635  -0.123086  -3.4e-05  3.950083  0.0
C  C86  1  0.00886296  0.30184882  0.10608478  1  -0.029525  -0.000141  -0.078729  -0.123311  -3.5e-05  3.950126  0.0
C  C87  1  0.84715853  0.60705643  0.88801792  1  -0.046867  -0.000218  -0.018123  -0.031606  -8.5e-05  4.013946  0.0
C  C88  1  0.15284065  0.39293460  0.11198595  1  -0.046677  -0.000218  -0.017992  -0.031244  -8.5e-05  4.013507  0.0
C  C89  1  0.82816957  0.46672556  0.87282355  1  0.027298  0.000675  -0.083745  -0.187529  0.000777  3.923943  0.0
C  C90  1  0.17183580  0.53327076  0.12718504  1  0.027052  0.000675  -0.083895  -0.187824  0.000777  3.923883  0.0
C  C91  1  0.27374858  0.75094067  0.90530682  1  1.543944  0.001025  0.204619  0.570705  0.001453  4.210832  0.003
C  C92  1  0.72625037  0.24905970  0.09469029  1  1.543961  0.001026  0.204621  0.570673  0.001453  4.211039  0.003
C  C93  1  0.71787029  0.66534533  0.89968550  1  1.504256  -9.9e-05  0.227618  0.571365  -0.000103  4.125604  0.0
C  C94  1  0.28212762  0.33465191  0.10031228  1  1.504274  -9.9e-05  0.227478  0.571012  -0.000103  4.125795  0.0
N  N95  1  0.46967707  0.97052000  0.13950190  1  -1.215599  -0.085501  -0.351972  -0.22116  -0.05739  3.623228  -0.074
N  N96  1  0.53032298  0.02948038  0.86049603  1  -1.215591  -0.085503  -0.351984  -0.221123  -0.057391  3.623296  -0.074
N  N97  1  0.33222307  0.75791309  0.42236851  1  -1.187449  0.000283  -0.310569  -0.336929  0.000347  3.279239  0.0
N  N98  1  0.66777482  0.24208729  0.57763007  1  -1.187214  0.000283  -0.310562  -0.336938  0.000347  3.279159  0.0
N  N99  1  0.27645838  0.30892515  0.48232420  1  -1.211691  -0.000104  -0.320593  -0.271517  -6.5e-05  3.355619  0.0
N  N100  1  0.72354609  0.69107843  0.51767935  1  -1.21175  -0.000104  -0.320596  -0.27152  -6.5e-05  3.355604  0.0
O  O101  1  0.28267941  0.88087345  0.93478576  1  -1.089323  -0.113174  -0.315393  -0.518452  -0.073045  2.296744  -0.102
O  O102  1  0.71731816  0.11912589  0.06521407  1  -1.089485  -0.113175  -0.315414  -0.518444  -0.073043  2.296826  -0.102
O  O103  1  0.38878339  0.70915383  0.89760588  1  -1.209983  -0.000677  -0.322171  -0.597537  0.000639  2.276651  -0.001
O  O104  1  0.61121726  0.29084860  0.10238726  1  -1.209892  -0.000676  -0.322114  -0.597494  0.000639  2.276725  -0.001
O  O105  1  0.73697116  0.79102506  0.92145215  1  -1.13534  -0.000418  -0.288098  -0.501099  -0.00011  2.166976  0.0
O  O106  1  0.26302355  0.20895963  0.07854221  1  -1.135507  -0.000418  -0.287991  -0.50098  -0.00011  2.166817  0.0
O  O107  1  0.58117396  0.56944900  0.88410940  1  -1.185971  -0.000314  -0.343522  -0.494962  -0.000209  2.239623  0.0
O  O108  1  0.41882528  0.43054520  0.11589911  1  -1.185888  -0.000314  -0.343505  -0.494774  -0.000209  2.239879  0.0
O  O109  1  0.93081932  0.28222127  0.85678111  1  -1.098232  -0.000336  -0.145335  -0.204697  -0.000181  2.581901  0.0
O  O110  1  0.06918668  0.71777712  0.14322423  1  -1.098135  -0.000336  -0.145259  -0.20451  -0.000181  2.581753  0.0
