# generated using pymatgen
data_CsH4C4O3
_symmetry_space_group_name_H-M   'P 1'
_cell_length_a   4.09221142
_cell_length_b   12.46437329
_cell_length_c   12.82658868
_cell_angle_alpha   113.03860062
_cell_angle_beta   89.99990990
_cell_angle_gamma   89.99971066
_symmetry_Int_Tables_number   1
_chemical_formula_structural   CsH4C4O3
_chemical_formula_sum   'Cs4 H16 C16 O12'
_cell_volume   602.06232131
_cell_formula_units_Z   4
loop_
 _symmetry_equiv_pos_site_id
 _symmetry_equiv_pos_as_xyz
  1  'x, y, z'
loop_
 _atom_site_type_symbol
 _atom_site_label
 _atom_site_symmetry_multiplicity
 _atom_site_fract_x
 _atom_site_fract_y
 _atom_site_fract_z
 _atom_site_occupancy
 _atom_site_hle17_bader_spin_density
 _atom_site_hle17_ddec_charge
 _atom_site_hle17_ddec_spin_density
 _atom_site_hle17_ddec_sum_bond_order
 _atom_site_hle17_magmom
 _atom_site_hse06_10hf_bader_spin_density
 _atom_site_hse06_10hf_ddec_charge
 _atom_site_hse06_10hf_ddec_spin_density
 _atom_site_hse06_10hf_ddec_sum_bond_order
 _atom_site_hse06_10hf_magmom
 _atom_site_hse06_bader_spin_density
 _atom_site_hse06_ddec_charge
 _atom_site_hse06_ddec_spin_density
 _atom_site_hse06_ddec_sum_bond_order
 _atom_site_hse06_magmom
 _atom_site_pbe_bader_spin_density
 _atom_site_pbe_cm5_charge
 _atom_site_pbe_ddec_charge
 _atom_site_pbe_ddec_spin_density
 _atom_site_pbe_ddec_sum_bond_order
 _atom_site_pbe_magmom
Cs  Cs0  1  0.26300882  0.18013546  0.64911488  1  0  0.968069  0  0.624559  0  0  0.915905  0  0.875719  0  0  0.932219  0  0.849581  0  0  0.883728  0.903866  0  0.894272  0
Cs  Cs1  1  0.76301938  0.31986376  0.35088379  1  0  0.968038  0  0.624597  0  0  0.915859  0  0.875773  0  0  0.932174  0  0.849629  0  0  0.88372  0.903824  0  0.894308  0
Cs  Cs2  1  0.73698819  0.81986432  0.35088405  1  0  0.968072  0  0.624563  0  0  0.915899  0  0.875742  0  0  0.932209  0  0.849604  0  0  0.883721  0.903867  0  0.894286  0
Cs  Cs3  1  0.23698496  0.68013601  0.64911436  1  0  0.968058  0  0.624587  0  0  0.91588  0  0.875769  0  0  0.932194  0  0.849624  0  0  0.883708  0.90384  0  0.89431  0
H  H4  1  0.09016023  0.17298016  0.95267475  1  0  0.100867  0  0.944697  0  0  0.111667  0  1.004675  0  0  0.115157  0  1.002682  0  0  0.109843  0.109151  0  1.006184  0
H  H5  1  0.59017713  0.32701598  0.04731892  1  0  0.100883  0  0.944558  0  0  0.111654  0  1.004576  0  0  0.115145  0  1.002584  0  0  0.109829  0.109139  0  1.006086  0
H  H6  1  0.90983678  0.82701701  0.04732162  1  0  0.100867  0  0.94466  0  0  0.11167  0  1.004634  0  0  0.115161  0  1.002643  0  0  0.10984  0.109155  0  1.006145  0
H  H7  1  0.40982966  0.67298640  0.95268490  1  0  0.100904  0  0.944577  0  0  0.111683  0  1.004581  0  0  0.115172  0  1.002592  0  0  0.10984  0.109166  0  1.006096  0
H  H8  1  0.71842719  0.82503958  0.86334623  1  0  0.081102  0  0.990067  0  0  0.084306  0  1.068206  0  0  0.088436  0  1.064907  0  0  0.100685  0.081378  0  1.070563  0
H  H9  1  0.21842667  0.67495903  0.13665777  1  0  0.081052  0  0.99013  0  0  0.08425  0  1.068277  0  0  0.088396  0  1.064935  0  0  0.100677  0.081325  0  1.070634  0
H  H10  1  0.28157227  0.17495846  0.13665047  1  0  0.081132  0  0.989978  0  0  0.084286  0  1.06817  0  0  0.088416  0  1.06487  0  0  0.100651  0.081357  0  1.070529  0
H  H11  1  0.78157767  0.32504161  0.86334383  1  0  0.081099  0  0.990077  0  0  0.084284  0  1.06823  0  0  0.088417  0  1.064928  0  0  0.100675  0.081358  0  1.070586  0
H  H12  1  0.57366123  0.09429133  0.38912462  1  0  0.40325  0  0.915073  0  0  0.37199  0  0.981336  0  0  0.383477  0  0.964408  0  0  0.277924  0.363882  0  0.993264  0
H  H13  1  0.07364754  0.40570571  0.61087252  1  0  0.403212  0  0.915135  0  0  0.371964  0  0.981366  0  0  0.383449  0  0.964439  0  0  0.277937  0.363855  0  0.993294  0
H  H14  1  0.42633578  0.90570844  0.61087508  1  0  0.403284  0  0.91503  0  0  0.372021  0  0.981297  0  0  0.383511  0  0.964365  0  0  0.277933  0.363913  0  0.993225  0
H  H15  1  0.92635192  0.59429407  0.38912718  1  0  0.4032  0  0.915153  0  0  0.371953  0  0.98138  0  0  0.383439  0  0.964454  0  0  0.277937  0.363845  0  0.993308  0
H  H16  1  0.95691851  0.09809807  0.39572946  1  0  0.399604  0  0.917182  0  0  0.371585  0  0.978383  0  0  0.381611  0  0.963611  0  0  0.2835  0.364519  0  0.988781  0
H  H17  1  0.45690491  0.40189809  0.60426794  1  0  0.399646  0  0.917138  0  0  0.371642  0  0.978306  0  0  0.381669  0  0.963533  0  0  0.283539  0.364577  0  0.988701  0
H  H18  1  0.04307850  0.90190083  0.60426913  1  0  0.399714  0  0.917039  0  0  0.371645  0  0.978333  0  0  0.38167  0  0.963565  0  0  0.283507  0.36457  0  0.988747  0
H  H19  1  0.54309700  0.59810081  0.39573221  1  0  0.399664  0  0.917114  0  0  0.371661  0  0.97828  0  0  0.381689  0  0.963507  0  0  0.283554  0.364597  0  0.988674  0
C  C20  1  0.78265543  0.99962606  0.78348817  1  0  0.666482  0  3.903385  0  0  0.619555  0  4.195467  0  0  0.652828  0  4.186573  0  0  0.201476  0.597057  0  4.200725  0
C  C21  1  0.28267420  0.50037328  0.21651451  1  0  0.666329  0  3.903665  0  0  0.619332  0  4.195861  0  0  0.652607  0  4.18697  0  0  0.201399  0.596835  0  4.201112  0
C  C22  1  0.21734158  0.00037633  0.21651176  1  0  0.666366  0  3.903545  0  0  0.619476  0  4.195595  0  0  0.652748  0  4.186701  0  0  0.201445  0.596978  0  4.200859  0
C  C23  1  0.71733015  0.49962735  0.78348786  1  0  0.666512  0  3.903543  0  0  0.619552  0  4.195684  0  0  0.652828  0  4.186787  0  0  0.201478  0.597046  0  4.200951  0
C  C24  1  0.89184061  0.99926219  0.89543755  1  0  -0.057615  0  3.735201  0  0  -0.035454  0  3.966194  0  0  -0.041977  0  3.989548  0  0  -0.012773  -0.031179  0  3.950412  0
C  C25  1  0.39185506  0.50073342  0.10456209  1  0  -0.05759  0  3.735144  0  0  -0.035432  0  3.966142  0  0  -0.041961  0  3.989503  0  0  -0.012771  -0.031155  0  3.950358  0
C  C26  1  0.10815396  0.00073585  0.10455915  1  0  -0.057622  0  3.735209  0  0  -0.035477  0  3.966185  0  0  -0.042  0  3.989538  0  0  -0.012771  -0.031206  0  3.950406  0
C  C27  1  0.60815418  0.49926895  0.89544173  1  0  -0.057666  0  3.73524  0  0  -0.035527  0  3.966249  0  0  -0.042055  0  3.989609  0  0  -0.0128  -0.031245  0  3.950462  0
C  C28  1  0.04990133  0.09752520  0.97395476  1  0  -0.063331  0  3.719581  0  0  -0.084379  0  3.964932  0  0  -0.08566  0  3.98543  0  0  -0.076875  -0.083422  0  3.951027  0
C  C29  1  0.54991967  0.40247450  0.02604419  1  0  -0.063264  0  3.719505  0  0  -0.084295  0  3.964858  0  0  -0.085576  0  3.985361  0  0  -0.076852  -0.083339  0  3.950954  0
C  C30  1  0.95009568  0.90247371  0.02604149  1  0  -0.063285  0  3.719468  0  0  -0.084332  0  3.964848  0  0  -0.085614  0  3.985348  0  0  -0.076881  -0.083374  0  3.950944  0
C  C31  1  0.45008957  0.59752787  0.97396041  1  0  -0.063231  0  3.719542  0  0  -0.084261  0  3.964884  0  0  -0.085543  0  3.98539  0  0  -0.076835  -0.083306  0  3.950981  0
C  C32  1  0.84288729  0.90188107  0.92284065  1  0  -0.090256  0  3.762716  0  0  -0.112691  0  4.016272  0  0  -0.114454  0  4.038086  0  0  -0.087477  -0.111373  0  4.001436  0
C  C33  1  0.34289310  0.59811727  0.07716162  1  0  -0.090349  0  3.762591  0  0  -0.112753  0  4.016108  0  0  -0.114512  0  4.037929  0  0  -0.087545  -0.11144  0  4.001276  0
C  C34  1  0.15710728  0.09811697  0.07715527  1  0  -0.090248  0  3.762752  0  0  -0.112627  0  4.016308  0  0  -0.114391  0  4.038122  0  0  -0.087443  -0.111308  0  4.00147  0
C  C35  1  0.65711613  0.40188511  0.92284220  1  0  -0.0903  0  3.762572  0  0  -0.11268  0  4.01608  0  0  -0.114443  0  4.037893  0  0  -0.08747  -0.111365  0  4.001242  0
O  O36  1  0.76193741  0.09565154  0.77262219  1  0  -0.712411  0  1.968284  0  0  -0.66313  0  2.207103  0  0  -0.686889  0  2.198138  0  0  -0.492702  -0.646547  0  2.212786  0
O  O37  1  0.26195259  0.40434244  0.22737526  1  0  -0.712353  0  1.96842  0  0  -0.663045  0  2.207275  0  0  -0.686803  0  2.198299  0  0  -0.492678  -0.646464  0  2.212952  0
O  O38  1  0.23806449  0.90434649  0.22737529  1  0  -0.712394  0  1.968296  0  0  -0.663133  0  2.207121  0  0  -0.686897  0  2.198157  0  0  -0.492712  -0.64655  0  2.212806  0
O  O39  1  0.73804931  0.59565907  0.77262667  1  0  -0.712507  0  1.968347  0  0  -0.663215  0  2.207189  0  0  -0.686971  0  2.198209  0  0  -0.492739  -0.646629  0  2.212871  0
O  O40  1  0.72473660  0.89934612  0.70232644  1  0  -0.749285  0  2.011787  0  0  -0.681237  0  2.235304  0  0  -0.707347  0  2.224762  0  0  -0.415149  -0.662907  0  2.242042  0
O  O41  1  0.22475102  0.60064899  0.29767387  1  0  -0.749115  0  2.011883  0  0  -0.681084  0  2.235396  0  0  -0.707198  0  2.224859  0  0  -0.415057  -0.662762  0  2.242127  0
O  O42  1  0.27525553  0.10065191  0.29767104  1  0  -0.74917  0  2.011959  0  0  -0.681161  0  2.235443  0  0  -0.70727  0  2.224903  0  0  -0.415089  -0.662834  0  2.242178  0
O  O43  1  0.77524600  0.39935164  0.70232850  1  0  -0.749172  0  2.011975  0  0  -0.68116  0  2.235483  0  0  -0.707271  0  2.224943  0  0  -0.415074  -0.662834  0  2.24222  0
O  O44  1  0.76050624  0.10011358  0.44165652  1  0  -0.946522  0  1.817335  0  0  -0.89813  0  1.987308  0  0  -0.917416  0  1.957517  0  0  -0.772178  -0.884434  0  2.008124  0
O  O45  1  0.26049534  0.39987518  0.55833814  1  0  -0.946517  0  1.817327  0  0  -0.898122  0  1.987294  0  0  -0.917408  0  1.957501  0  0  -0.772223  -0.884428  0  2.00811  0
O  O46  1  0.23948833  0.89988707  0.55834273  1  0  -0.946661  0  1.817126  0  0  -0.898245  0  1.987128  0  0  -0.917533  0  1.95733  0  0  -0.772201  -0.884544  0  2.007954  0
O  O47  1  0.73950656  0.60012459  0.44166234  1  0  -0.94654  0  1.81733  0  0  -0.898147  0  1.987304  0  0  -0.917433  0  1.957511  0  0  -0.772252  -0.884453  0  2.008119  0
