# generated using pymatgen
data_CdH7C12(NO2)3
_symmetry_space_group_name_H-M   'P 1'
_cell_length_a   7.50718611
_cell_length_b   14.09738498
_cell_length_c   20.99533457
_cell_angle_alpha   90.00027870
_cell_angle_beta   89.99937698
_cell_angle_gamma   100.87260763
_symmetry_Int_Tables_number   1
_chemical_formula_structural   CdH7C12(NO2)3
_chemical_formula_sum   'Cd4 H28 C48 N12 O24'
_cell_volume   2182.08519109
_cell_formula_units_Z   4
loop_
 _symmetry_equiv_pos_site_id
 _symmetry_equiv_pos_as_xyz
  1  'x, y, z'
loop_
 _atom_site_type_symbol
 _atom_site_label
 _atom_site_symmetry_multiplicity
 _atom_site_fract_x
 _atom_site_fract_y
 _atom_site_fract_z
 _atom_site_occupancy
 _atom_site_pbe_bader_charge
 _atom_site_pbe_bader_spin_density
 _atom_site_pbe_cm5_charge
 _atom_site_pbe_ddec_charge
 _atom_site_pbe_ddec_spin_density
 _atom_site_pbe_ddec_sum_bond_order
 _atom_site_pbe_magmom
Cd  Cd0  1  0.45983176  0.39586007  0.56672470  1  1.290075  0  0.77696  0.885451  0  2.215275  0
Cd  Cd1  1  0.54015108  0.10413432  0.06671442  1  1.290076  0  0.776945  0.885311  0  2.215428  0
Cd  Cd2  1  0.54016135  0.60414231  0.43327761  1  1.290069  0  0.776952  0.885385  0  2.215326  0
Cd  Cd3  1  0.45985180  0.89585731  0.93327456  1  1.290062  0  0.776967  0.885365  0  2.215453  0
H  H4  1  0.50990546  0.34042604  0.90915821  1  0.135444  0  0.117639  0.134519  0  0.989429  0
H  H5  1  0.49007041  0.15957061  0.40915592  1  0.135613  0  0.117641  0.134571  0  0.989405  0
H  H6  1  0.49006509  0.65957257  0.09084363  1  0.135746  0  0.117651  0.134547  0  0.989385  0
H  H7  1  0.50993634  0.84042465  0.59084639  1  0.135759  0  0.11768  0.134566  0  0.98939  0
H  H8  1  0.50175593  0.06417306  0.81899394  1  0.14388  0  0.103826  0.119985  0  1.043295  0
H  H9  1  0.49824753  0.43582625  0.31899108  1  0.144036  0  0.103807  0.119955  0  1.0434  0
H  H10  1  0.49825830  0.93582874  0.18100361  1  0.14385  0  0.103863  0.119992  0  1.043296  0
H  H11  1  0.50175397  0.56417330  0.68100694  1  0.143998  0  0.103818  0.119988  0  1.043332  0
H  H12  1  0.46026545  0.13780383  0.71377219  1  0.173402  0  0.106482  0.114781  0  1.035146  0
H  H13  1  0.53973451  0.36219136  0.21376798  1  0.173388  0  0.106471  0.114663  0  1.035105  0
H  H14  1  0.53975727  0.86219947  0.28622679  1  0.173335  0  0.106515  0.114774  0  1.035127  0
H  H15  1  0.46026580  0.63780457  0.78623100  1  0.173245  0  0.106481  0.114716  0  1.035144  0
H  H16  1  0.82953170  0.52887452  0.61197615  1  0.152423  0  0.133474  0.117697  0  0.967356  0
H  H17  1  0.17047742  0.97113582  0.11197706  1  0.152318  0  0.133475  0.117644  0  0.96742  0
H  H18  1  0.17048420  0.47113234  0.38802044  1  0.152189  0  0.133493  0.117703  0  0.96733  0
H  H19  1  0.82953147  0.02886594  0.88802096  1  0.152481  0  0.133473  0.11766  0  0.96732  0
H  H20  1  0.17139574  0.53513099  0.61374879  1  0.126358  0  0.130099  0.107876  0  0.984716  0
H  H21  1  0.82861008  0.96487358  0.11374855  1  0.126433  0  0.130121  0.107984  0  0.984638  0
H  H22  1  0.82861906  0.46487658  0.38624686  1  0.126475  0  0.130074  0.107849  0  0.98465  0
H  H23  1  0.17139857  0.03512746  0.88624804  1  0.126332  0  0.130063  0.107836  0  0.98469  0
H  H24  1  0.09921362  0.27578602  0.51442263  1  0.152999  0  0.136699  0.11996  0  0.961966  0
H  H25  1  0.90078089  0.22421469  0.01442372  1  0.152936  0  0.136692  0.119973  0  0.961991  0
H  H26  1  0.90079103  0.72421499  0.48557825  1  0.152796  0  0.136667  0.119963  0  0.961979  0
H  H27  1  0.09922361  0.77578992  0.98557906  1  0.152719  0  0.136686  0.119936  0  0.962005  0
H  H28  1  0.75696687  0.27193130  0.51068195  1  0.133118  0  0.134309  0.117722  0  0.973511  0
H  H29  1  0.24303123  0.22807590  0.01068179  1  0.133112  0  0.134292  0.117728  0  0.973563  0
H  H30  1  0.24304054  0.72807405  0.48931989  1  0.132993  0  0.134308  0.117783  0  0.973559  0
H  H31  1  0.75697690  0.77193162  0.98931957  1  0.13321  0  0.134324  0.117772  0  0.973555  0
C  C32  1  0.45685101  0.27892943  0.75134267  1  0.040503  0  0.004769  -0.035674  0  3.902783  0
C  C33  1  0.54313551  0.22106079  0.25134038  1  0.039826  0  0.004697  -0.035525  0  3.902713  0
C  C34  1  0.54313375  0.72106783  0.24865773  1  0.040385  0  0.004704  -0.035628  0  3.902727  0
C  C35  1  0.45686990  0.77893446  0.74866050  1  0.040329  0  0.004817  -0.035408  0  3.90271  0
C  C36  1  0.46878297  0.33375882  0.80748855  1  0.144408  0  0.083206  0.053089  0  3.937948  0
C  C37  1  0.53118238  0.16623296  0.30748469  1  0.145238  0  0.083301  0.053102  0  3.937815  0
C  C38  1  0.53117585  0.66623250  0.19251234  1  0.144646  0  0.083356  0.052849  0  3.938169  0
C  C39  1  0.46883200  0.83376524  0.69251381  1  0.144419  0  0.083216  0.052871  0  3.938063  0
C  C40  1  0.49758948  0.29549074  0.86661442  1  -0.015805  0  -0.07615  -0.14534  0  3.954053  0
C  C41  1  0.50239452  0.20450649  0.36661271  1  -0.016191  0  -0.076182  -0.1454  0  3.95392  0
C  C42  1  0.50238955  0.70450937  0.13338741  1  -0.015964  0  -0.076187  -0.145307  0  3.954067  0
C  C43  1  0.49761089  0.79548877  0.63339056  1  -0.015821  0  -0.076186  -0.145302  0  3.954145  0
C  C44  1  0.50901469  0.19759728  0.87119192  1  0.02247  0  -0.022877  -0.039404  0  4.004298  0
C  C45  1  0.49096856  0.30240213  0.37118867  1  0.02248  0  -0.022849  -0.03953  0  4.004452  0
C  C46  1  0.49098242  0.80240512  0.12880753  1  0.022078  0  -0.022847  -0.039306  0  4.004269  0
C  C47  1  0.50903065  0.69759452  0.62880888  1  0.021997  0  -0.022941  -0.039523  0  4.00447  0
C  C48  1  0.49322496  0.14049078  0.81601770  1  -0.000935  0  -0.07939  -0.089289  0  3.926283  0
C  C49  1  0.50676342  0.35950697  0.31601552  1  -0.001502  0  -0.079333  -0.089211  0  3.926258  0
C  C50  1  0.50678684  0.85951173  0.18398032  1  -0.000791  0  -0.07948  -0.089352  0  3.92623  0
C  C51  1  0.49323226  0.64049110  0.68398394  1  -0.001155  0  -0.079369  -0.089256  0  3.926225  0
C  C52  1  0.46887127  0.18140626  0.75688944  1  -0.098492  0  -0.072814  -0.07074  0  3.915753  0
C  C53  1  0.53113435  0.31858989  0.25688608  1  -0.098443  0  -0.072817  -0.070614  0  3.915425  0
C  C54  1  0.53113847  0.81859407  0.24310858  1  -0.098245  0  -0.072815  -0.070721  0  3.915589  0
C  C55  1  0.46885928  0.68140600  0.74311195  1  -0.098254  0  -0.072773  -0.070682  0  3.915685  0
C  C56  1  0.44880305  0.32195657  0.68617638  1  1.602252  0  0.187239  0.560249  0  4.247629  0
C  C57  1  0.55119604  0.17803344  0.18617344  1  1.602326  0  0.186976  0.559752  0  4.248013  0
C  C58  1  0.55119163  0.67804653  0.31382355  1  1.601604  0  0.187267  0.560408  0  4.247408  0
C  C59  1  0.44880512  0.82196106  0.81382411  1  1.601991  0  0.187136  0.560056  0  4.247743  0
C  C60  1  0.53533976  0.15668940  0.93555373  1  1.535903  0  0.196726  0.562743  0  4.234577  0
C  C61  1  0.46465752  0.34331401  0.43555213  1  1.536191  0  0.196762  0.562982  0  4.234741  0
C  C62  1  0.46466355  0.84331160  0.06444477  1  1.535898  0  0.196736  0.562685  0  4.234689  0
C  C63  1  0.53534460  0.65668338  0.56444685  1  1.536285  0  0.196622  0.562538  0  4.235075  0
C  C64  1  0.89171782  0.47349733  0.58940950  1  0.486965  0  0.07042  0.064854  0  3.890123  0
C  C65  1  0.10828578  0.02650956  0.08940922  1  0.486584  0  0.070356  0.064845  0  3.890076  0
C  C66  1  0.10829336  0.52650734  0.41058852  1  0.487015  0  0.070328  0.064705  0  3.889933  0
C  C67  1  0.89171925  0.97348857  0.91058833  1  0.486803  0  0.07036  0.064878  0  3.889985  0
C  C68  1  0.07831234  0.47642775  0.59061278  1  0.519941  0  0.067929  0.058929  0  3.89223  0
C  C69  1  0.92169122  0.02357915  0.09061219  1  0.519973  0  0.067924  0.058723  0  3.892309  0
C  C70  1  0.92169831  0.52358340  0.40938191  1  0.520539  0  0.067914  0.058892  0  3.892302  0
C  C71  1  0.07831767  0.97642261  0.90938583  1  0.519888  0  0.068006  0.058932  0  3.892192  0
C  C72  1  0.03770115  0.33280152  0.53530510  1  0.474636  0  0.070487  0.059271  0  3.890919  0
C  C73  1  0.96230101  0.16720007  0.03530291  1  0.474577  0  0.070499  0.05922  0  3.890924  0
C  C74  1  0.96230955  0.66720170  0.46469626  1  0.474705  0  0.070607  0.059313  0  3.890622  0
C  C75  1  0.03771041  0.83280532  0.96469749  1  0.474897  0  0.070534  0.059294  0  3.891027  0
C  C76  1  0.85130763  0.33043600  0.53352646  1  0.544576  0  0.069389  0.055136  0  3.893467  0
C  C77  1  0.14869286  0.16956844  0.03352410  1  0.54428  0  0.069347  0.054912  0  3.893814  0
C  C78  1  0.14870088  0.66956864  0.46647585  1  0.544376  0  0.069315  0.054878  0  3.893765  0
C  C79  1  0.85131346  0.83043763  0.96647631  1  0.544408  0  0.069352  0.054927  0  3.893674  0
N  N80  1  0.44148514  0.43442763  0.80632850  1  0.396841  0  0.061281  0.527716  0  4.203047  0
N  N81  1  0.55849226  0.06556423  0.30632898  1  0.397937  0  0.061065  0.527485  0  4.202935  0
N  N82  1  0.55846480  0.56556507  0.19367428  1  0.396575  0  0.061316  0.528169  0  4.203308  0
N  N83  1  0.44151606  0.93443177  0.69367762  1  0.397145  0  0.061405  0.527901  0  4.202932  0
N  N84  1  0.77996531  0.40130889  0.56011024  1  -1.201846  0  -0.296614  -0.181751  0  3.472547  0
N  N85  1  0.22003694  0.09869930  0.06010832  1  -1.201058  0  -0.296454  -0.181356  0  3.472439  0
N  N86  1  0.22004391  0.59869792  0.43989065  1  -1.201484  0  -0.296437  -0.18134  0  3.472403  0
N  N87  1  0.77996599  0.90130458  0.93988970  1  -1.20145  0  -0.29654  -0.181515  0  3.472564  0
N  N88  1  0.15001134  0.40644225  0.56308784  1  -1.191694  0  -0.297513  -0.182425  0  3.493999  0
N  N89  1  0.84998735  0.09355944  0.06308442  1  -1.191642  0  -0.297574  -0.182339  0  3.493848  0
N  N90  1  0.84999841  0.59355808  0.43691304  1  -1.192133  0  -0.297589  -0.182412  0  3.493709  0
N  N91  1  0.15002336  0.90644378  0.93691503  1  -1.191812  0  -0.297609  -0.182434  0  3.49411  0
O  O92  1  0.53383313  0.40851141  0.67730676  1  -1.163228  0  -0.340949  -0.574624  0  2.202319  0
O  O93  1  0.46615916  0.09148139  0.17730101  1  -1.163251  0  -0.340817  -0.574401  0  2.202414  0
O  O94  1  0.46616422  0.59149171  0.32269555  1  -1.163149  0  -0.341013  -0.574724  0  2.202282  0
O  O95  1  0.53384444  0.90851241  0.82269796  1  -1.163172  0  -0.340954  -0.574592  0  2.202328  0
O  O96  1  0.36622529  0.26929449  0.64231242  1  -1.142978  0  -0.335478  -0.537456  0  2.114013  0
O  O97  1  0.63376738  0.23070032  0.14231123  1  -1.14296  0  -0.335372  -0.537284  0  2.114171  0
O  O98  1  0.63377268  0.73070647  0.35768751  1  -1.142447  0  -0.335481  -0.537527  0  2.113958  0
O  O99  1  0.36622830  0.76929775  0.85768679  1  -1.142881  0  -0.335397  -0.537343  0  2.114136  0
O  O100  1  0.53213499  0.06623493  0.94219982  1  -1.207912  0  -0.344512  -0.606587  0  2.356929  0
O  O101  1  0.46788394  0.43377011  0.44219517  1  -1.207946  0  -0.344545  -0.606711  0  2.35702  0
O  O102  1  0.46787476  0.93376540  0.05780391  1  -1.207824  0  -0.344535  -0.606534  0  2.356975  0
O  O103  1  0.53212558  0.56622950  0.55780618  1  -1.207986  0  -0.344445  -0.606463  0  2.357266  0
O  O104  1  0.55842357  0.21443090  0.98292906  1  -1.151706  0  -0.327863  -0.545968  0  2.195575  0
O  O105  1  0.44157076  0.28557199  0.48292737  1  -1.15155  0  -0.327885  -0.546084  0  2.195646  0
O  O106  1  0.44157864  0.78557082  0.01706801  1  -1.151777  0  -0.327883  -0.546024  0  2.195576  0
O  O107  1  0.55841982  0.71442676  0.51706875  1  -1.151595  0  -0.327819  -0.5459  0  2.195548  0
O  O108  1  0.55541868  0.49560357  0.83409360  1  -0.451275  0  -0.127593  -0.323689  0  1.863604  0
O  O109  1  0.44456860  0.00438848  0.33409575  1  -0.452471  0  -0.127409  -0.323463  0  1.863662  0
O  O110  1  0.44449068  0.50439532  0.16592348  1  -0.451527  0  -0.127591  -0.323817  0  1.863387  0
O  O111  1  0.55545817  0.99560692  0.66591561  1  -0.451583  0  -0.127664  -0.323756  0  1.863523  0
O  O112  1  0.30304363  0.45031997  0.77954142  1  -0.450382  0  -0.12915  -0.326955  0  1.884813  0
O  O113  1  0.69693684  0.04967467  0.27954083  1  -0.450298  0  -0.129156  -0.327007  0  1.884767  0
O  O114  1  0.69691524  0.54966342  0.22045184  1  -0.449908  0  -0.12923  -0.327205  0  1.885204  0
O  O115  1  0.30306710  0.95032418  0.72046100  1  -0.450233  0  -0.129231  -0.327061  0  1.884846  0
