# generated using pymatgen
data_MnH46C48N6(O5F2)2
_symmetry_space_group_name_H-M   'P 1'
_cell_length_a   9.93393481
_cell_length_b   10.76429988
_cell_length_c   10.95359613
_cell_angle_alpha   96.19910573
_cell_angle_beta   112.03320478
_cell_angle_gamma   99.95625998
_symmetry_Int_Tables_number   1
_chemical_formula_structural   MnH46C48N6(O5F2)2
_chemical_formula_sum   'Mn1 H46 C48 N6 O10 F4'
_cell_volume   1050.05561903
_cell_formula_units_Z   1
loop_
 _symmetry_equiv_pos_site_id
 _symmetry_equiv_pos_as_xyz
  1  'x, y, z'
loop_
 _atom_site_type_symbol
 _atom_site_label
 _atom_site_symmetry_multiplicity
 _atom_site_fract_x
 _atom_site_fract_y
 _atom_site_fract_z
 _atom_site_occupancy
 _atom_site_pbe_cm5_charge
 _atom_site_pbe_ddec_charge
 _atom_site_pbe_ddec_spin_density
 _atom_site_pbe_ddec_sum_bond_order
 _atom_site_pbe_magmom
Mn  Mn0  1  0.99999716  0.00000274  0.99999905  1  0.683639  1.021938  -1.607178  3.170256  -1.556
H  H1  1  0.80596868  0.39082540  0.16513127  1  0.125619  0.106521  0.000931  1.003768  0.0
H  H2  1  0.19402924  0.60917622  0.83486533  1  0.12562  0.106517  0.000931  1.003782  0.0
H  H3  1  0.33757458  0.31235470  0.08841477  1  0.119295  0.150152  0.000307  0.99772  0.0
H  H4  1  0.66242178  0.68764877  0.91158435  1  0.119292  0.150141  0.000307  0.997709  0.0
H  H5  1  0.83419126  0.58916636  0.19086697  1  0.106871  0.082843  0.00028  1.006633  0.0
H  H6  1  0.16580744  0.41083814  0.80913028  1  0.106877  0.082842  0.00028  1.006693  0.0
H  H7  1  0.98051611  0.69997215  0.18049455  1  0.111904  0.103014  0.000462  1.012335  0.0
H  H8  1  0.01948525  0.30002932  0.81950858  1  0.111886  0.102981  0.000462  1.012374  0.0
H  H9  1  0.99579873  0.73644712  0.41335712  1  0.09925  0.140253  6.3e-05  1.007254  0.0
H  H10  1  0.00419824  0.26354561  0.58664710  1  0.099244  0.140232  6.3e-05  1.007189  0.0
H  H11  1  0.15184854  0.67733233  0.41355489  1  0.09024  0.123124  3.6e-05  1.024461  0.0
H  H12  1  0.84814937  0.32266053  0.58644506  1  0.090206  0.123083  3.6e-05  1.024502  0.0
H  H13  1  0.99778410  0.57222637  0.42302201  1  0.087447  0.118998  0.000126  1.008706  0.0
H  H14  1  0.00220935  0.42776276  0.57697147  1  0.087495  0.11899  0.000125  1.008804  0.0
H  H15  1  0.48572947  0.83210136  0.03282777  1  0.104348  0.102712  0.000855  1.012954  0.0
H  H16  1  0.51427642  0.16790230  0.96716702  1  0.10437  0.102775  0.000855  1.012948  0.0
H  H17  1  0.52868686  0.67989161  0.03433684  1  0.103785  0.087104  0.000124  1.038571  0.0
H  H18  1  0.47131784  0.32011096  0.96566200  1  0.103778  0.087131  0.000124  1.038569  0.0
H  H19  1  0.75889524  0.85819074  0.09374943  1  0.121472  0.114432  2.2e-05  1.017715  0.0
H  H20  1  0.24110964  0.14181169  0.90625493  1  0.121475  0.114464  2.2e-05  1.01763  0.0
H  H21  1  0.77348832  0.77237955  0.22759067  1  0.109256  0.086103  8.9e-05  0.996275  0.0
H  H22  1  0.22651597  0.22762100  0.77241142  1  0.109268  0.086117  8.9e-05  0.996244  0.0
H  H23  1  0.72874655  0.87144524  0.41755456  1  0.111785  0.061288  0.000152  1.005737  0.0
H  H24  1  0.27124879  0.12855057  0.58244226  1  0.111774  0.061297  0.000152  1.005786  0.0
H  H25  1  0.46475315  0.84395953  0.36585631  1  0.109822  0.095257  2.5e-05  1.007235  0.0
H  H26  1  0.53524074  0.15603921  0.63413864  1  0.109834  0.095278  2.5e-05  1.007221  0.0
H  H27  1  0.43731243  0.93246687  0.23331317  1  0.103771  0.089304  0.000192  0.976861  0.0
H  H28  1  0.56268924  0.06753669  0.76668396  1  0.103761  0.089292  0.000192  0.97685  0.0
H  H29  1  0.65221435  0.04527505  0.52544917  1  0.094585  0.134776  9e-05  1.010071  0.0
H  H30  1  0.34778431  0.95472071  0.47455050  1  0.094555  0.134737  9e-05  1.010001  0.0
H  H31  1  0.63707262  0.12889588  0.39074360  1  0.089564  0.123235  7.3e-05  1.021319  0.0
H  H32  1  0.36292876  0.87110177  0.60925810  1  0.089555  0.123225  7.3e-05  1.021288  0.0
H  H33  1  0.81354009  0.10516108  0.49811618  1  0.09858  0.143004  9.6e-05  1.023901  0.0
H  H34  1  0.18646053  0.89483367  0.50188580  1  0.098544  0.142943  9.6e-05  1.023964  0.0
H  H35  1  0.09147065  0.30058985  0.44144645  1  0.097238  0.091791  0.000468  1.05213  0.0
H  H36  1  0.90855089  0.69941606  0.55857637  1  0.097199  0.091775  0.000468  1.052009  0.0
H  H37  1  0.28095801  0.50351379  0.53712270  1  0.094987  0.091914  1.5e-05  1.032486  0.0
H  H38  1  0.71906787  0.49648450  0.46289767  1  0.095056  0.091987  1.5e-05  1.032584  0.0
H  H39  1  0.56719633  0.33754082  0.38562049  1  0.095885  0.092271  9.3e-05  1.029284  0.0
H  H40  1  0.43279987  0.66244755  0.61436643  1  0.095914  0.092337  9.2e-05  1.02931  0.0
H  H41  1  0.37152198  0.13782578  0.28575407  1  0.10509  0.104683  4.5e-05  1.008903  0.0
H  H42  1  0.62846109  0.86216913  0.71423699  1  0.105088  0.104644  4.4e-05  1.008958  0.0
H  H43  1  0.69818698  0.02589516  0.20137045  1  0.303704  0.274779  0.000117  0.953603  0.0
H  H44  1  0.30181272  0.97410444  0.79863008  1  0.30368  0.274752  0.000117  0.953641  0.0
H  H45  1  0.85539172  0.99415997  0.30984347  1  0.301012  0.281397  0.000265  0.986625  0.0
H  H46  1  0.14460905  0.00584344  0.69015884  1  0.300968  0.281373  0.000265  0.986661  0.0
C  C47  1  0.81944080  0.15542393  0.08323659  1  0.20195  0.577453  0.017631  4.189203  0.01
C  C48  1  0.18055446  0.84457574  0.91675983  1  0.201881  0.577336  0.017637  4.189335  0.01
C  C49  1  0.93131390  0.27508788  0.10328719  1  -0.044412  -0.241559  -0.002061  4.074862  -0.009
C  C50  1  0.06867828  0.72491284  0.89670567  1  -0.044407  -0.241515  -0.002059  4.074827  -0.009
C  C51  1  0.06458021  0.27684602  0.08151051  1  0.111726  0.297374  0.062507  4.076916  0.039
C  C52  1  0.93541417  0.72315467  0.91848395  1  0.111754  0.297447  0.062491  4.076641  0.039
C  C53  1  0.17048185  0.39923322  0.11791467  1  -0.019657  -0.044671  -0.000665  4.028985  -0.005
C  C54  1  0.82951123  0.60077028  0.88208252  1  -0.019625  -0.044574  -0.000662  4.0288  -0.005
C  C55  1  0.13757255  0.51510580  0.16242773  1  0.095425  0.041343  0.010081  3.995803  0.005
C  C56  1  0.86242452  0.48489681  0.83756783  1  0.095358  0.041142  0.010082  3.995648  0.005
C  C57  1  0.90732444  0.39055056  0.14841900  1  0.048767  0.022628  0.042387  3.930491  0.024
C  C58  1  0.09267335  0.60945000  0.85158107  1  0.048768  0.022523  0.042382  3.930571  0.024
C  C59  1  0.31003238  0.40262989  0.11213136  1  -0.105234  -0.243069  0.023747  4.049426  0.014
C  C60  1  0.68996396  0.59736979  0.88786539  1  -0.105238  -0.243102  0.023738  4.049505  0.014
C  C61  1  0.41215889  0.51703595  0.14544672  1  0.085686  0.200613  0.009412  4.082055  0.004
C  C62  1  0.58784041  0.48296661  0.85455135  1  0.085729  0.200698  0.009411  4.082091  0.004
C  C63  1  0.38268819  0.63718163  0.17893884  1  0.085809  -0.020116  0.0246  4.13314  0.015
C  C64  1  0.61731089  0.36282110  0.82105279  1  0.085824  -0.020187  0.024596  4.133295  0.015
C  C65  1  0.24355972  0.63063824  0.18769797  1  0.085154  0.104774  0.00653  4.003812  0.003
C  C66  1  0.75643725  0.36936444  0.81229483  1  0.085155  0.104823  0.006528  4.003861  0.003
C  C67  1  0.95586112  0.61835600  0.22598103  1  -0.064627  -0.041377  0.0007  3.904955  0.0
C  C68  1  0.04414015  0.38164555  0.77401934  1  -0.064638  -0.0414  0.0007  3.904945  0.0
C  C69  1  0.02988495  0.65269999  0.37808173  1  -0.242156  -0.38289  0.00117  3.919675  0.001
C  C70  1  0.97011265  0.34729574  0.62191853  1  -0.242155  -0.38282  0.00117  3.919742  0.001
C  C71  1  0.54675422  0.77135550  0.09853139  1  -0.069057  -0.10251  0.001293  3.916083  0.001
C  C72  1  0.45324669  0.22864516  0.90146602  1  -0.06912  -0.102816  0.001293  3.916151  0.001
C  C73  1  0.71156590  0.83422185  0.16619807  1  -0.064457  -0.059432  -6.7e-05  3.83303  0.0
C  C74  1  0.28843626  0.16577869  0.83380427  1  -0.064479  -0.059381  -6.7e-05  3.832935  0.0
C  C75  1  0.66838699  0.93518696  0.35754452  1  0.007988  0.16344  0.000484  3.797933  0.0
C  C76  1  0.33160890  0.06481075  0.64245365  1  0.007946  0.163356  0.000484  3.797992  0.0
C  C77  1  0.50296506  0.86741158  0.28764538  1  -0.058517  -0.124854  0.000332  3.906887  0.0
C  C78  1  0.49703276  0.13259011  0.71234846  1  -0.05847  -0.124839  0.000331  3.906812  0.0
C  C79  1  0.69398413  0.06166224  0.44756982  1  -0.243342  -0.426766  0.000379  3.909458  0.0
C  C80  1  0.30601481  0.93833446  0.55243099  1  -0.243259  -0.426644  0.000379  3.909351  0.0
C  C81  1  0.21887406  0.20442727  0.35917049  1  -0.02252  -0.044664  0.011761  3.982827  0.006
C  C82  1  0.78113491  0.79557301  0.64084307  1  -0.022459  -0.044654  0.011763  3.982659  0.006
C  C83  1  0.19684151  0.31014453  0.43036146  1  -0.094298  -0.108224  0.006315  4.024208  0.003
C  C84  1  0.80316810  0.68985494  0.56964671  1  -0.09422  -0.108166  0.006316  4.024048  0.003
C  C85  1  0.30469954  0.42433446  0.48394867  1  -0.098335  -0.133731  0.002825  3.991322  0.001
C  C86  1  0.69531336  0.57566000  0.51606713  1  -0.098443  -0.133869  0.002824  3.991793  0.001
C  C87  1  0.44265382  0.43890421  0.47146886  1  -0.012219  0.060126  0.013679  3.987955  0.007
C  C88  1  0.55736001  0.56109037  0.52854268  1  -0.012216  0.060146  0.013678  3.988102  0.007
C  C89  1  0.46371038  0.33169446  0.40008095  1  -0.095449  -0.135741  0.005639  3.979299  0.003
C  C90  1  0.53629411  0.66829949  0.59991572  1  -0.095495  -0.135832  0.005639  3.979285  0.003
C  C91  1  0.35397497  0.21778149  0.34363168  1  -0.085765  -0.094304  0.004233  3.984513  0.002
C  C92  1  0.64602469  0.78221813  0.65636793  1  -0.085776  -0.094239  0.004234  3.984361  0.002
C  C93  1  0.10034743  0.08169754  0.30861308  1  0.209993  0.566723  0.020761  4.188218  0.011
C  C94  1  0.89965335  0.91830469  0.69139729  1  0.209985  0.566738  0.020764  4.188256  0.011
N  N95  1  0.73568125  0.95574779  0.25794806  1  -0.475724  -0.252776  0.000465  3.473708  0.0
N  N96  1  0.26431979  0.04425277  0.74205302  1  -0.475611  -0.252701  0.000465  3.47388  0.0
N  N97  1  0.48468941  0.74977493  0.19838687  1  -0.300783  -0.074875  0.006575  3.659059  0.004
N  N98  1  0.51530856  0.25022782  0.80160351  1  -0.300814  -0.074723  0.006574  3.658946  0.004
N  N99  1  0.00070585  0.50715071  0.17369326  1  -0.237164  0.015392  0.021033  3.69148  0.016
N  N100  1  0.99929086  0.49285102  0.82629933  1  -0.237127  0.015624  0.02103  3.691254  0.016
O  O101  1  0.83031001  0.04887744  0.02451652  1  -0.310143  -0.517528  -0.01363  2.385399  -0.008
O  O102  1  0.16968226  0.95112320  0.97547910  1  -0.310154  -0.517574  -0.013633  2.385481  -0.008
O  O103  1  0.71686382  0.16012501  0.12506589  1  -0.335847  -0.565159  0.012411  2.129809  0.01
O  O104  1  0.28313282  0.83987561  0.87493201  1  -0.335835  -0.565118  0.012413  2.129875  0.01
O  O105  1  0.09771183  0.17695577  0.03408702  1  -0.28852  -0.428474  -0.013087  2.484165  -0.007
O  O106  1  0.90228529  0.82304679  0.96591038  1  -0.288526  -0.428504  -0.01309  2.483981  -0.007
O  O107  1  0.08502338  0.00157768  0.20623449  1  -0.315631  -0.556324  0.000956  2.324565  0.001
O  O108  1  0.91496353  0.99843053  0.79376509  1  -0.315621  -0.556287  0.000958  2.324561  0.001
O  O109  1  0.02297980  0.06244649  0.37795253  1  -0.320145  -0.535638  0.019743  2.177256  0.016
O  O110  1  0.97701726  0.93756257  0.62205398  1  -0.320203  -0.535728  0.019746  2.177228  0.016
F  F111  1  0.55216157  0.51560628  0.15050938  1  -0.092844  -0.138196  0.000356  1.387085  0.0
F  F112  1  0.44783851  0.48439418  0.84949505  1  -0.092846  -0.138205  0.000356  1.387067  0.0
F  F113  1  0.21202981  0.74573770  0.21796796  1  -0.062951  -0.086872  0.000182  1.458187  0.0
F  F114  1  0.78796776  0.25426304  0.78202567  1  -0.062949  -0.08688  0.000182  1.458191  0.0
