# generated using pymatgen
data_CdH12C14S2(NO)6
_symmetry_space_group_name_H-M   'P 1'
_cell_length_a   5.54687613
_cell_length_b   12.54549211
_cell_length_c   13.71674578
_cell_angle_alpha   99.81086780
_cell_angle_beta   89.99817857
_cell_angle_gamma   90.00019988
_symmetry_Int_Tables_number   1
_chemical_formula_structural   CdH12C14S2(NO)6
_chemical_formula_sum   'Cd2 H24 C28 S4 N12 O12'
_cell_volume   940.56553458
_cell_formula_units_Z   2
loop_
 _symmetry_equiv_pos_site_id
 _symmetry_equiv_pos_as_xyz
  1  'x, y, z'
loop_
 _atom_site_type_symbol
 _atom_site_label
 _atom_site_symmetry_multiplicity
 _atom_site_fract_x
 _atom_site_fract_y
 _atom_site_fract_z
 _atom_site_occupancy
 _atom_site_hle17_bader_spin_density
 _atom_site_hle17_ddec_charge
 _atom_site_hle17_ddec_spin_density
 _atom_site_hle17_ddec_sum_bond_order
 _atom_site_hle17_magmom
 _atom_site_hse06_10hf_bader_spin_density
 _atom_site_hse06_10hf_ddec_charge
 _atom_site_hse06_10hf_ddec_spin_density
 _atom_site_hse06_10hf_ddec_sum_bond_order
 _atom_site_hse06_10hf_magmom
 _atom_site_hse06_bader_spin_density
 _atom_site_hse06_ddec_charge
 _atom_site_hse06_ddec_spin_density
 _atom_site_hse06_ddec_sum_bond_order
 _atom_site_hse06_magmom
 _atom_site_pbe_bader_spin_density
 _atom_site_pbe_cm5_charge
 _atom_site_pbe_ddec_charge
 _atom_site_pbe_ddec_spin_density
 _atom_site_pbe_ddec_sum_bond_order
 _atom_site_pbe_magmom
Cd  Cd0  1  0.00000316  0.50000044  0.49999293  1  0  1.042211  0  1.953854  0  0  0.888735  0  2.428911  0  0  0.935408  0  2.385124  0  0  0.721566  0.855854  0  2.458663  0
Cd  Cd1  1  0.50000663  0.50000379  0.00000264  1  0  1.042299  0  1.95375  0  0  0.888774  0  2.428895  0  0  0.935445  0  2.385109  0  0  0.721611  0.855892  0  2.458661  0
H  H2  1  0.54878642  0.67546104  0.73975555  1  0  0.116052  0  0.974149  0  0  0.118906  0  1.046785  0  0  0.123276  0  1.04338  0  0  0.118671  0.115758  0  1.049299  0
H  H3  1  0.95122867  0.67547983  0.23978793  1  0  0.115974  0  0.974295  0  0  0.118838  0  1.046933  0  0  0.123209  0  1.04353  0  0  0.118723  0.11569  0  1.049443  0
H  H4  1  0.45121159  0.32453739  0.26023594  1  0  0.116043  0  0.974196  0  0  0.118928  0  1.046815  0  0  0.123297  0  1.043411  0  0  0.118706  0.11578  0  1.049328  0
H  H5  1  0.04880359  0.32451663  0.76022071  1  0  0.115943  0  0.974218  0  0  0.118804  0  1.046951  0  0  0.123172  0  1.043549  0  0  0.118694  0.115657  0  1.049458  0
H  H6  1  0.44990406  0.91529573  0.49533888  1  0  0.125288  0  0.961218  0  0  0.131226  0  1.02647  0  0  0.134405  0  1.024057  0  0  0.120204  0.128862  0  1.028422  0
H  H7  1  0.05009212  0.91531625  0.99536939  1  0  0.12533  0  0.961029  0  0  0.13123  0  1.026343  0  0  0.134444  0  1.023883  0  0  0.120259  0.128862  0  1.028303  0
H  H8  1  0.55005068  0.08469555  0.50464554  1  0  0.125378  0  0.9611  0  0  0.1313  0  1.02635  0  0  0.134483  0  1.02393  0  0  0.120255  0.128926  0  1.028317  0
H  H9  1  0.94989147  0.08468904  0.00464442  1  0  0.125312  0  0.961089  0  0  0.131239  0  1.026366  0  0  0.134426  0  1.023938  0  0  0.120266  0.128882  0  1.02831  0
H  H10  1  0.78048407  0.77536987  0.48286733  1  0  0.124947  0  0.911287  0  0  0.133245  0  0.970741  0  0  0.136781  0  0.968194  0  0  0.135355  0.130687  0  0.972639  0
H  H11  1  0.71952772  0.77538810  0.98290621  1  0  0.125327  0  0.911245  0  0  0.13359  0  0.97069  0  0  0.137129  0  0.968142  0  0  0.135479  0.13104  0  0.972591  0
H  H12  1  0.21947248  0.22462062  0.51711549  1  0  0.125049  0  0.911201  0  0  0.133323  0  0.970712  0  0  0.136859  0  0.968163  0  0  0.135408  0.130768  0  0.972614  0
H  H13  1  0.28046308  0.22461787  0.01711355  1  0  0.125167  0  0.911266  0  0  0.133407  0  0.970748  0  0  0.136945  0  0.968203  0  0  0.135428  0.130856  0  0.972643  0
H  H14  1  0.97979951  0.78154271  0.76763249  1  0  0.129785  0  0.959073  0  0  0.145647  0  1.026237  0  0  0.147793  0  1.025583  0  0  0.095193  0.144111  0  1.026711  0
H  H15  1  0.52019439  0.78157109  0.26765024  1  0  0.129905  0  0.958976  0  0  0.145616  0  1.026279  0  0  0.147762  0  1.02562  0  0  0.095157  0.144077  0  1.026753  0
H  H16  1  0.02020210  0.21845472  0.23236830  1  0  0.129787  0  0.959079  0  0  0.145638  0  1.026254  0  0  0.147786  0  1.025598  0  0  0.095203  0.144101  0  1.026727  0
H  H17  1  0.47982886  0.21843184  0.73235952  1  0  0.129858  0  0.958912  0  0  0.145546  0  1.026237  0  0  0.147694  0  1.025576  0  0  0.095114  0.14401  0  1.026712  0
H  H18  1  0.15469426  0.88898402  0.83150136  1  0  0.11998  0  0.965929  0  0  0.131788  0  1.042306  0  0  0.133086  0  1.041402  0  0  0.092206  0.130842  0  1.04294  0
H  H19  1  0.34526951  0.88900633  0.33152495  1  0  0.120007  0  0.965906  0  0  0.131865  0  1.042211  0  0  0.133135  0  1.041335  0  0  0.092226  0.130917  0  1.042841  0
H  H20  1  0.84530735  0.11101761  0.16849287  1  0  0.119944  0  0.965948  0  0  0.131713  0  1.042378  0  0  0.133009  0  1.041477  0  0  0.092185  0.13077  0  1.043004  0
H  H21  1  0.65474292  0.11099748  0.66848132  1  0  0.120057  0  0.965912  0  0  0.131883  0  1.042222  0  0  0.133176  0  1.041322  0  0  0.092249  0.13094  0  1.042854  0
H  H22  1  0.23469690  0.75174843  0.83704709  1  0  0.123727  0  0.946372  0  0  0.145398  0  1.0021  0  0  0.147028  0  1.002377  0  0  0.091549  0.14414  0  1.002031  0
H  H23  1  0.26528841  0.75176704  0.33706666  1  0  0.123745  0  0.946346  0  0  0.145452  0  1.002025  0  0  0.147091  0  1.002282  0  0  0.091534  0.144187  0  1.001955  0
H  H24  1  0.76531373  0.24825633  0.16295277  1  0  0.123697  0  0.946357  0  0  0.145352  0  1.002108  0  0  0.146988  0  1.002377  0  0  0.091532  0.144091  0  1.002039  0
H  H25  1  0.73473124  0.24823752  0.66294266  1  0  0.123757  0  0.94633  0  0  0.14546  0  1.002017  0  0  0.147099  0  1.00228  0  0  0.091542  0.144196  0  1.001946  0
C  C26  1  0.51202658  0.73084860  0.68854297  1  0  -0.04878  0  3.517849  0  0  -0.094477  0  3.774875  0  0  -0.091878  0  3.786028  0  0  0.039161  -0.096021  0  3.767599  0
C  C27  1  0.98798228  0.73086928  0.18857416  1  0  -0.048411  0  3.518057  0  0  -0.094203  0  3.775098  0  0  -0.09161  0  3.786255  0  0  0.039331  -0.095735  0  3.767809  0
C  C28  1  0.48796242  0.26914823  0.31144751  1  0  -0.048789  0  3.517991  0  0  -0.09455  0  3.775049  0  0  -0.091954  0  3.786201  0  0  0.039117  -0.096088  0  3.767769  0
C  C29  1  0.01204458  0.26912959  0.81143563  1  0  -0.048401  0  3.517866  0  0  -0.094383  0  3.775127  0  0  -0.091786  0  3.786283  0  0  0.039218  -0.095919  0  3.767841  0
C  C30  1  0.32180619  0.80388567  0.70083268  1  0  0.146205  0  3.695563  0  0  0.160254  0  3.94824  0  0  0.164211  0  3.966745  0  0  0.026568  0.157342  0  3.935718  0
C  C31  1  0.17818793  0.80390922  0.20086007  1  0  0.145927  0  3.695812  0  0  0.160153  0  3.948364  0  0  0.164111  0  3.966861  0  0  0.026474  0.157237  0  3.935835  0
C  C32  1  0.67818281  0.19611193  0.29916012  1  0  0.146144  0  3.695345  0  0  0.160257  0  3.947983  0  0  0.164221  0  3.966489  0  0  0.0266  0.157339  0  3.935462  0
C  C33  1  0.82183172  0.19609212  0.79914796  1  0  0.145961  0  3.695644  0  0  0.160261  0  3.948109  0  0  0.164214  0  3.966614  0  0  0.026533  0.157347  0  3.935583  0
C  C34  1  0.30410573  0.87252949  0.62960591  1  0  0.03773  0  3.646661  0  0  0.007007  0  3.904895  0  0  0.004843  0  3.923952  0  0  0.085689  0.008589  0  3.892011  0
C  C35  1  0.19588397  0.87255476  0.12963468  1  0  0.037971  0  3.646818  0  0  0.007059  0  3.905079  0  0  0.004894  0  3.924148  0  0  0.085797  0.008655  0  3.892172  0
C  C36  1  0.69587246  0.12746410  0.37038401  1  0  0.037754  0  3.646441  0  0  0.00702  0  3.904719  0  0  0.004835  0  3.923806  0  0  0.085717  0.008611  0  3.891827  0
C  C37  1  0.80412486  0.12744657  0.87037408  1  0  0.037728  0  3.646955  0  0  0.006939  0  3.90501  0  0  0.004786  0  3.924049  0  0  0.085775  0.00853  0  3.892115  0
C  C38  1  0.46539776  0.86307183  0.55044826  1  0  -0.095925  0  3.730266  0  0  -0.124423  0  4.000682  0  0  -0.124359  0  4.017327  0  0  -0.065879  -0.124505  0  3.989467  0
C  C39  1  0.03459804  0.86309269  0.05048117  1  0  -0.095767  0  3.730262  0  0  -0.124229  0  4.000676  0  0  -0.124207  0  4.017338  0  0  -0.066009  -0.124297  0  3.989459  0
C  C40  1  0.53456960  0.13692263  0.44953890  1  0  -0.096007  0  3.730306  0  0  -0.124444  0  4.000722  0  0  -0.124382  0  4.017377  0  0  -0.065913  -0.124518  0  3.989518  0
C  C41  1  0.96539637  0.13691016  0.94953222  1  0  -0.095725  0  3.730347  0  0  -0.124224  0  4.00065  0  0  -0.124164  0  4.017299  0  0  -0.065962  -0.124301  0  3.989422  0
C  C42  1  0.64732700  0.78775739  0.54176914  1  0  0.018654  0  3.579867  0  0  -0.028105  0  3.851671  0  0  -0.025453  0  3.865123  0  0  0.039486  -0.029644  0  3.842557  0
C  C43  1  0.85268174  0.78777463  0.04180555  1  0  0.01775  0  3.580631  0  0  -0.028955  0  3.852372  0  0  -0.026312  0  3.865833  0  0  0.039165  -0.030508  0  3.843285  0
C  C44  1  0.35264938  0.21224029  0.45821930  1  0  0.018586  0  3.579982  0  0  -0.028234  0  3.851853  0  0  -0.025581  0  3.865304  0  0  0.039371  -0.029775  0  3.842746  0
C  C45  1  0.14731627  0.21222898  0.95821089  1  0  0.01812  0  3.580344  0  0  -0.028554  0  3.852039  0  0  -0.025909  0  3.865491  0  0  0.039235  -0.030097  0  3.842933  0
C  C46  1  0.16401883  0.80644493  0.78958175  1  0  -0.343218  0  3.703728  0  0  -0.427198  0  3.94428  0  0  -0.42978  0  3.951425  0  0  -0.244967  -0.425074  0  3.939268  0
C  C47  1  0.33596558  0.80646560  0.28960307  1  0  -0.343362  0  3.703933  0  0  -0.427286  0  3.944398  0  0  -0.429853  0  3.951581  0  0  -0.244911  -0.42516  0  3.93938  0
C  C48  1  0.83598279  0.19355583  0.21041524  1  0  -0.343065  0  3.703582  0  0  -0.427032  0  3.944155  0  0  -0.429597  0  3.951256  0  0  -0.244937  -0.424905  0  3.939135  0
C  C49  1  0.66405407  0.19353736  0.71040523  1  0  -0.34337  0  3.703703  0  0  -0.427211  0  3.944143  0  0  -0.429799  0  3.9513  0  0  -0.24491  -0.425087  0  3.939127  0
C  C50  1  0.49544603  0.56530926  0.40039389  1  0  0.305301  0  3.994381  0  0  0.285375  0  4.294441  0  0  0.30708  0  4.311201  0  0  0.147278  0.270555  0  4.282573  0
C  C51  1  0.00455580  0.56532180  0.90040285  1  0  0.305422  0  3.993989  0  0  0.285517  0  4.29402  0  0  0.307232  0  4.310798  0  0  0.147275  0.270692  0  4.282152  0
C  C52  1  0.50454116  0.43468111  0.59959475  1  0  0.305348  0  3.993944  0  0  0.285437  0  4.294012  0  0  0.307149  0  4.310781  0  0  0.147233  0.270612  0  4.282144  0
C  C53  1  0.99546925  0.43468452  0.09959947  1  0  0.305196  0  3.993961  0  0  0.285279  0  4.294034  0  0  0.306991  0  4.310821  0  0  0.147136  0.270454  0  4.282163  0
S  S54  1  0.74858268  0.53631685  0.34125046  1  0  -0.298778  0  2.175849  0  0  -0.262866  0  2.508055  0  0  -0.28275  0  2.502283  0  0  -0.118919  -0.24875  0  2.511664  0
S  S55  1  0.75144243  0.53634139  0.84126933  1  0  -0.298604  0  2.176068  0  0  -0.262637  0  2.508168  0  0  -0.282532  0  2.502406  0  0  -0.1188  -0.248512  0  2.511779  0
S  S56  1  0.25142074  0.46366479  0.65872865  1  0  -0.298595  0  2.176242  0  0  -0.262637  0  2.508363  0  0  -0.28252  0  2.502597  0  0  -0.118814  -0.248523  0  2.511971  0
S  S57  1  0.24856099  0.46366251  0.15873257  1  0  -0.298433  0  2.176548  0  0  -0.26247  0  2.508687  0  0  -0.282353  0  2.502927  0  0  -0.11872  -0.248349  0  2.512295  0
N  N58  1  0.67292011  0.72375741  0.61233948  1  0  0.307639  0  3.728819  0  0  0.357149  0  3.995564  0  0  0.361609  0  4.017491  0  0  -0.097818  0.35367  0  3.980949  0
N  N59  1  0.82709649  0.72377048  0.11237280  1  0  0.307741  0  3.729463  0  0  0.357249  0  3.996181  0  0  0.361713  0  4.018113  0  0  -0.097883  0.353769  0  3.981564  0
N  N60  1  0.32706168  0.27624191  0.38764851  1  0  0.30768  0  3.728958  0  0  0.357227  0  3.995708  0  0  0.361688  0  4.017635  0  0  -0.097755  0.353748  0  3.981094  0
N  N61  1  0.17291955  0.27622994  0.88764090  1  0  0.307626  0  3.728999  0  0  0.35724  0  3.995702  0  0  0.361706  0  4.017628  0  0  -0.09777  0.353758  0  3.981088  0
N  N62  1  0.12521405  0.95814652  0.63699268  1  0  0.486331  0  3.931402  0  0  0.543136  0  4.186093  0  0  0.566145  0  4.189873  0  0  0.054899  0.527631  0  4.183469  0
N  N63  1  0.37477024  0.95817320  0.13701056  1  0  0.485858  0  3.93267  0  0  0.542913  0  4.187  0  0  0.565919  0  4.190782  0  0  0.054731  0.527417  0  4.184353  0
N  N64  1  0.87476414  0.04184779  0.36300247  1  0  0.486388  0  3.931302  0  0  0.543068  0  4.186178  0  0  0.56608  0  4.189961  0  0  0.054785  0.527563  0  4.183547  0
N  N65  1  0.62523318  0.04182901  0.86299470  1  0  0.485864  0  3.932404  0  0  0.542914  0  4.186707  0  0  0.565932  0  4.190474  0  0  0.054742  0.527416  0  4.184064  0
N  N66  1  0.31347769  0.58912750  0.44396884  1  0  -0.559574  0  2.897303  0  0  -0.50728  0  3.174519  0  0  -0.530191  0  3.183269  0  0  -0.403745  -0.491396  0  3.168258  0
N  N67  1  0.18655088  0.58913538  0.94398696  1  0  -0.559937  0  2.896714  0  0  -0.507679  0  3.174018  0  0  -0.530555  0  3.182674  0  0  -0.403853  -0.491793  0  3.167782  0
N  N68  1  0.68655278  0.41086554  0.55600859  1  0  -0.559897  0  2.896623  0  0  -0.507605  0  3.173876  0  0  -0.530527  0  3.182634  0  0  -0.403793  -0.491714  0  3.167613  0
N  N69  1  0.81344714  0.41086864  0.05600914  1  0  -0.559845  0  2.89629  0  0  -0.50753  0  3.173525  0  0  -0.530456  0  3.182282  0  0  -0.403758  -0.491632  0  3.167263  0
O  O70  1  0.85600105  0.65890010  0.61037896  1  0  -0.501554  0  1.81363  0  0  -0.468255  0  2.068704  0  0  -0.494776  0  2.070609  0  0  -0.219556  -0.449832  0  2.067118  0
O  O71  1  0.64403802  0.65890380  0.11041386  1  0  -0.501521  0  1.813889  0  0  -0.46811  0  2.068779  0  0  -0.49463  0  2.070691  0  0  -0.219481  -0.449693  0  2.067203  0
O  O72  1  0.14398074  0.34109845  0.38960672  1  0  -0.501572  0  1.813671  0  0  -0.46823  0  2.068664  0  0  -0.494751  0  2.070574  0  0  -0.219577  -0.449814  0  2.067094  0
O  O73  1  0.35598343  0.34109490  0.88960465  1  0  -0.501436  0  1.813541  0  0  -0.468168  0  2.068547  0  0  -0.494686  0  2.070457  0  0  -0.219528  -0.449756  0  2.066992  0
O  O74  1  0.16613889  0.03554351  0.59320149  1  0  -0.361732  0  1.746074  0  0  -0.352169  0  1.938783  0  0  -0.363827  0  1.934781  0  0  -0.136078  -0.344301  0  1.941513  0
O  O75  1  0.33384180  0.03556594  0.09321586  1  0  -0.361636  0  1.746416  0  0  -0.352093  0  1.938939  0  0  -0.363792  0  1.935006  0  0  -0.136044  -0.344284  0  1.941738  0
O  O76  1  0.83384651  0.96445395  0.40679785  1  0  -0.361783  0  1.746032  0  0  -0.352151  0  1.938768  0  0  -0.363831  0  1.93481  0  0  -0.136109  -0.344305  0  1.941521  0
O  O77  1  0.66615261  0.96443546  0.90678926  1  0  -0.361613  0  1.746293  0  0  -0.352137  0  1.938863  0  0  -0.363809  0  1.934897  0  0  -0.136096  -0.344301  0  1.941634  0
O  O78  1  0.93988650  0.95013183  0.68635253  1  0  -0.35313  0  1.804668  0  0  -0.338765  0  2.006275  0  0  -0.35096  0  2.005317  0  0  -0.120089  -0.330621  0  2.007097  0
O  O79  1  0.56009747  0.95016303  0.18636481  1  0  -0.352952  0  1.805214  0  0  -0.338692  0  2.006759  0  0  -0.350877  0  2.005799  0  0  -0.119993  -0.330539  0  2.007564  0
O  O80  1  0.06009168  0.04986086  0.31364161  1  0  -0.35318  0  1.804761  0  0  -0.33874  0  2.006399  0  0  -0.350954  0  2.005461  0  0  -0.119995  -0.330594  0  2.00721  0
O  O81  1  0.43991136  0.04984005  0.81363769  1  0  -0.352899  0  1.805014  0  0  -0.338637  0  2.006525  0  0  -0.350887  0  2.005624  0  0  -0.119966  -0.330485  0  2.007336  0
