# generated using pymatgen
data_CdH9C10N5O3
_symmetry_space_group_name_H-M   'P 1'
_cell_length_a   7.08993197
_cell_length_b   10.01585339
_cell_length_c   17.27406529
_cell_angle_alpha   89.99934389
_cell_angle_beta   104.81932423
_cell_angle_gamma   90.00025995
_symmetry_Int_Tables_number   1
_chemical_formula_structural   CdH9C10N5O3
_chemical_formula_sum   'Cd4 H36 C40 N20 O12'
_cell_volume   1185.85886498
_cell_formula_units_Z   4
loop_
 _symmetry_equiv_pos_site_id
 _symmetry_equiv_pos_as_xyz
  1  'x, y, z'
loop_
 _atom_site_type_symbol
 _atom_site_label
 _atom_site_symmetry_multiplicity
 _atom_site_fract_x
 _atom_site_fract_y
 _atom_site_fract_z
 _atom_site_occupancy
 _atom_site_hle17_bader_spin_density
 _atom_site_hle17_ddec_charge
 _atom_site_hle17_ddec_spin_density
 _atom_site_hle17_ddec_sum_bond_order
 _atom_site_hle17_magmom
 _atom_site_hse06_10hf_bader_spin_density
 _atom_site_hse06_10hf_ddec_charge
 _atom_site_hse06_10hf_ddec_spin_density
 _atom_site_hse06_10hf_ddec_sum_bond_order
 _atom_site_hse06_10hf_magmom
 _atom_site_hse06_bader_spin_density
 _atom_site_hse06_ddec_charge
 _atom_site_hse06_ddec_spin_density
 _atom_site_hse06_ddec_sum_bond_order
 _atom_site_hse06_magmom
 _atom_site_pbe_bader_spin_density
 _atom_site_pbe_cm5_charge
 _atom_site_pbe_ddec_charge
 _atom_site_pbe_ddec_spin_density
 _atom_site_pbe_ddec_sum_bond_order
 _atom_site_pbe_magmom
Cd  Cd0  1  0.00810308  0.97611147  0.10811228  1  0  1.118428  0  1.784377  0  0  0.931575  0  2.244616  0  0  0.979488  0  2.200445  0  0  0.802751  0.898634  0  2.275035  0
Cd  Cd1  1  0.99188938  0.47611188  0.39188881  1  0  1.118486  0  1.784231  0  0  0.931598  0  2.244483  0  0  0.979515  0  2.200302  0  0  0.802771  0.898653  0  2.274901  0
Cd  Cd2  1  0.99189801  0.02389085  0.89188833  1  0  1.118389  0  1.784377  0  0  0.931533  0  2.2446  0  0  0.979448  0  2.200429  0  0  0.802739  0.898592  0  2.275018  0
Cd  Cd3  1  0.00810744  0.52389144  0.60811369  1  0  1.118381  0  1.784342  0  0  0.931517  0  2.244571  0  0  0.979431  0  2.200397  0  0  0.802718  0.89857  0  2.274991  0
H  H4  1  0.19991853  0.38192304  0.08066544  1  0  0.110894  0  0.94927  0  0  0.120788  0  1.010924  0  0  0.123437  0  1.009845  0  0  0.106479  0.118733  0  1.011938  0
H  H5  1  0.80006632  0.88192396  0.41933379  1  0  0.110953  0  0.949313  0  0  0.120785  0  1.011026  0  0  0.123434  0  1.009944  0  0  0.106439  0.118727  0  1.012044  0
H  H6  1  0.80009113  0.61807729  0.91933195  1  0  0.110934  0  0.949282  0  0  0.120786  0  1.010981  0  0  0.123438  0  1.009892  0  0  0.106474  0.118729  0  1.011996  0
H  H7  1  0.19993188  0.11807637  0.58066711  1  0  0.110931  0  0.949294  0  0  0.120776  0  1.010992  0  0  0.123421  0  1.009924  0  0  0.10646  0.118717  0  1.01201  0
H  H8  1  0.39543569  0.55848591  0.03278956  1  0  0.106178  0  0.942128  0  0  0.115895  0  1.002894  0  0  0.119283  0  1.000481  0  0  0.107941  0.113469  0  1.004651  0
H  H9  1  0.60454544  0.05848461  0.46721202  1  0  0.106285  0  0.942011  0  0  0.116012  0  1.002774  0  0  0.119403  0  1.000353  0  0  0.107981  0.113585  0  1.00453  0
H  H10  1  0.60456394  0.44152241  0.96721090  1  0  0.106164  0  0.942071  0  0  0.115899  0  1.002827  0  0  0.119287  0  1.000414  0  0  0.107932  0.113471  0  1.004584  0
H  H11  1  0.39545133  0.94151473  0.53278932  1  0  0.106205  0  0.942117  0  0  0.115919  0  1.002898  0  0  0.119306  0  1.000482  0  0  0.107932  0.113491  0  1.004655  0
H  H12  1  0.32503137  0.79884252  0.05640924  1  0  0.066232  0  0.984071  0  0  0.067355  0  1.065033  0  0  0.069403  0  1.063789  0  0  0.10328  0.065871  0  1.065757  0
H  H13  1  0.67496363  0.29884290  0.44359501  1  0  0.066131  0  0.984085  0  0  0.067281  0  1.065034  0  0  0.069335  0  1.063783  0  0  0.103234  0.065795  0  1.065755  0
H  H14  1  0.67496829  0.20116281  0.94359181  1  0  0.066213  0  0.984103  0  0  0.067339  0  1.06505  0  0  0.069386  0  1.063806  0  0  0.103277  0.065853  0  1.065774  0
H  H15  1  0.32503603  0.70115643  0.55640603  1  0  0.06615  0  0.984097  0  0  0.067303  0  1.065037  0  0  0.069354  0  1.063795  0  0  0.103238  0.065814  0  1.065759  0
H  H16  1  0.63161538  0.01027302  0.17072029  1  0  0.067027  0  0.972291  0  0  0.075102  0  1.042343  0  0  0.077279  0  1.040471  0  0  0.106568  0.073484  0  1.043884  0
H  H17  1  0.36838298  0.51027436  0.32927983  1  0  0.06701  0  0.972326  0  0  0.07508  0  1.042378  0  0  0.077255  0  1.040509  0  0  0.106562  0.073462  0  1.04392  0
H  H18  1  0.36837845  0.98972432  0.82928019  1  0  0.067009  0  0.972355  0  0  0.075064  0  1.042417  0  0  0.077243  0  1.040539  0  0  0.106562  0.073451  0  1.04396  0
H  H19  1  0.63161082  0.48972697  0.67072006  1  0  0.066982  0  0.972259  0  0  0.075009  0  1.042361  0  0  0.077185  0  1.040488  0  0  0.106554  0.073393  0  1.043902  0
H  H20  1  0.45495739  0.89389101  0.26103581  1  0  0.113715  0  0.961905  0  0  0.122987  0  1.018653  0  0  0.126998  0  1.016407  0  0  0.106605  0.12021  0  1.020239  0
H  H21  1  0.54504507  0.39389104  0.23896681  1  0  0.113743  0  0.961924  0  0  0.123021  0  1.018658  0  0  0.127032  0  1.01641  0  0  0.106627  0.120242  0  1.020246  0
H  H22  1  0.54503930  0.10610133  0.73896379  1  0  0.113792  0  0.9619  0  0  0.12307  0  1.018628  0  0  0.127079  0  1.016385  0  0  0.106611  0.120292  0  1.020214  0
H  H23  1  0.45495162  0.60611229  0.76103279  1  0  0.113749  0  0.961947  0  0  0.123033  0  1.018672  0  0  0.127045  0  1.016423  0  0  0.106615  0.120252  0  1.020262  0
H  H24  1  0.55744105  0.65905105  0.30367247  1  0  0.100093  0  0.96898  0  0  0.111737  0  1.031311  0  0  0.114201  0  1.03005  0  0  0.104861  0.109967  0  1.032222  0
H  H25  1  0.44255206  0.15905060  0.19633078  1  0  0.1001  0  0.969067  0  0  0.11177  0  1.031355  0  0  0.114239  0  1.030079  0  0  0.104883  0.11  0  1.032265  0
H  H26  1  0.44256283  0.34094229  0.69632551  1  0  0.10014  0  0.968912  0  0  0.11173  0  1.03132  0  0  0.114197  0  1.030046  0  0  0.104851  0.109958  0  1.032233  0
H  H27  1  0.55745049  0.84095172  0.80366997  1  0  0.100092  0  0.969046  0  0  0.111761  0  1.031337  0  0  0.114227  0  1.030067  0  0  0.104887  0.10999  0  1.032248  0
H  H28  1  0.89631996  0.26415236  0.12926295  1  0  0.432362  0  0.86802  0  0  0.399014  0  0.934342  0  0  0.410281  0  0.91818  0  0  0.290555  0.390871  0  0.94608  0
H  H29  1  0.10367326  0.76414806  0.37073614  1  0  0.432349  0  0.868048  0  0  0.399006  0  0.934364  0  0  0.410273  0  0.918203  0  0  0.290549  0.390864  0  0.946102  0
H  H30  1  0.10367665  0.73584897  0.87073490  1  0  0.43231  0  0.86809  0  0  0.398953  0  0.934428  0  0  0.410221  0  0.918266  0  0  0.290538  0.390812  0  0.946165  0
H  H31  1  0.89632632  0.23584928  0.62926316  1  0  0.432345  0  0.868053  0  0  0.39901  0  0.934355  0  0  0.410277  0  0.918194  0  0  0.290554  0.390868  0  0.946093  0
H  H32  1  0.70678165  0.18475637  0.08547194  1  0  0.401467  0  0.911318  0  0  0.370182  0  0.978116  0  0  0.379535  0  0.964496  0  0  0.285779  0.363489  0  0.987904  0
H  H33  1  0.29321124  0.68475179  0.41452475  1  0  0.401423  0  0.911406  0  0  0.370189  0  0.978113  0  0  0.379536  0  0.964505  0  0  0.285745  0.363496  0  0.987899  0
H  H34  1  0.29321202  0.81524696  0.91452504  1  0  0.401408  0  0.911406  0  0  0.370183  0  0.978098  0  0  0.379529  0  0.964491  0  0  0.285767  0.363491  0  0.987884  0
H  H35  1  0.70678980  0.31524954  0.58547469  1  0  0.40144  0  0.911381  0  0  0.37022  0  0.978062  0  0  0.379565  0  0.964456  0  0  0.285765  0.363528  0  0.987848  0
H  H36  1  0.87590599  0.46367229  0.20328154  1  0  0.381768  0  0.942189  0  0  0.348991  0  1.019118  0  0  0.361246  0  1.002531  0  0  0.29147  0.340358  0  1.028308  0
H  H37  1  0.12407782  0.96368050  0.29672168  1  0  0.381606  0  0.942196  0  0  0.348888  0  1.019226  0  0  0.36114  0  1.002644  0  0  0.291433  0.340257  0  1.028273  0
H  H38  1  0.12409943  0.53632305  0.79671833  1  0  0.381777  0  0.942097  0  0  0.348886  0  1.019276  0  0  0.361141  0  1.002689  0  0  0.291451  0.340254  0  1.028462  0
H  H39  1  0.87591898  0.03632383  0.70328024  1  0  0.381568  0  0.942254  0  0  0.34884  0  1.019289  0  0  0.361093  0  1.002707  0  0  0.291416  0.34021  0  1.028334  0
C  C40  1  0.17587635  0.48759938  0.08975958  1  0  -0.132453  0  3.721747  0  0  -0.1578  0  3.980381  0  0  -0.159321  0  3.999786  0  0  -0.086388  -0.156586  0  3.967675  0
C  C41  1  0.82410596  0.98759856  0.41024102  1  0  -0.132644  0  3.72206  0  0  -0.157958  0  3.980729  0  0  -0.159475  0  4.000125  0  0  -0.086381  -0.156744  0  3.968025  0
C  C42  1  0.82412607  0.51240295  0.91023826  1  0  -0.132584  0  3.72181  0  0  -0.157893  0  3.980472  0  0  -0.159414  0  3.99988  0  0  -0.086437  -0.156679  0  3.967767  0
C  C43  1  0.17588928  0.01240277  0.58975843  1  0  -0.132437  0  3.722022  0  0  -0.157739  0  3.980653  0  0  -0.159259  0  4.000052  0  0  -0.086332  -0.156527  0  3.967951  0
C  C44  1  0.28375909  0.58448821  0.06324839  1  0  -0.085447  0  3.756202  0  0  -0.101783  0  4.014603  0  0  -0.105074  0  4.034146  0  0  -0.085499  -0.100056  0  4.001789  0
C  C45  1  0.71622653  0.08449086  0.43675462  1  0  -0.085532  0  3.756046  0  0  -0.101878  0  4.014453  0  0  -0.105158  0  4.033983  0  0  -0.085488  -0.100149  0  4.001639  0
C  C46  1  0.71624055  0.41551512  0.93675207  1  0  -0.085409  0  3.756048  0  0  -0.101762  0  4.014442  0  0  -0.105054  0  4.033986  0  0  -0.0855  -0.100033  0  4.001621  0
C  C47  1  0.28377318  0.91551247  0.56324758  1  0  -0.085468  0  3.756072  0  0  -0.101814  0  4.014478  0  0  -0.105098  0  4.034012  0  0  -0.085502  -0.100085  0  4.001659  0
C  C48  1  0.24538166  0.71806925  0.07604133  1  0  0.101815  0  3.76757  0  0  0.067032  0  4.029951  0  0  0.073015  0  4.048392  0  0  0.026833  0.063286  0  4.017617  0
C  C49  1  0.75461303  0.21807227  0.42396111  1  0  0.102021  0  3.767506  0  0  0.06724  0  4.029769  0  0  0.073173  0  4.048306  0  0  0.026924  0.063496  0  4.017435  0
C  C50  1  0.75461636  0.28193308  0.92395550  1  0  0.101849  0  3.767507  0  0  0.067062  0  4.029914  0  0  0.073048  0  4.048352  0  0  0.026899  0.063317  0  4.017573  0
C  C51  1  0.24538962  0.78192906  0.57604196  1  0  0.101879  0  3.767495  0  0  0.067082  0  4.029833  0  0  0.073037  0  4.048331  0  0  0.026893  0.063341  0  4.017491  0
C  C52  1  0.00090636  0.66241346  0.14057382  1  0  0.073183  0  3.699142  0  0  0.064708  0  3.945702  0  0  0.067811  0  3.966394  0  0  0.099057  0.062366  0  3.932497  0
C  C53  1  0.99908832  0.16241453  0.35943188  1  0  0.072833  0  3.699389  0  0  0.064459  0  3.945755  0  0  0.067565  0  3.96644  0  0  0.098976  0.06212  0  3.932541  0
C  C54  1  0.99909325  0.33758687  0.85942606  1  0  0.07314  0  3.699125  0  0  0.06465  0  3.945701  0  0  0.06775  0  3.966394  0  0  0.099079  0.06231  0  3.932494  0
C  C55  1  0.00091142  0.83758680  0.64057091  1  0  0.072838  0  3.699456  0  0  0.064397  0  3.94594  0  0  0.067502  0  3.966625  0  0  0.098961  0.062064  0  3.932723  0
C  C56  1  0.03233803  0.52405896  0.12893096  1  0  0.27375  0  3.813445  0  0  0.258812  0  4.079117  0  0  0.266917  0  4.097099  0  0  0.090661  0.252731  0  4.06759  0
C  C57  1  0.96765483  0.02406171  0.37107548  1  0  0.273965  0  3.813604  0  0  0.25901  0  4.079239  0  0  0.267116  0  4.097215  0  0  0.090649  0.252929  0  4.067713  0
C  C58  1  0.96766455  0.47594237  0.87107037  1  0  0.27386  0  3.813363  0  0  0.258895  0  4.079051  0  0  0.267  0  4.097033  0  0  0.090668  0.252811  0  4.067531  0
C  C59  1  0.03234626  0.97593963  0.62892512  1  0  0.273817  0  3.813658  0  0  0.258873  0  4.079329  0  0  0.266979  0  4.097305  0  0  0.090649  0.252789  0  4.067807  0
C  C60  1  0.66127815  0.90645713  0.18849813  1  0  0.097169  0  3.755591  0  0  0.058623  0  4.025123  0  0  0.063847  0  4.042896  0  0  0.024279  0.055212  0  4.013035  0
C  C61  1  0.33871405  0.40645907  0.31150166  1  0  0.097087  0  3.75575  0  0  0.058567  0  4.025245  0  0  0.063791  0  4.043017  0  0  0.024221  0.055154  0  4.013159  0
C  C62  1  0.33871705  0.09353721  0.81150074  1  0  0.097141  0  3.755845  0  0  0.058615  0  4.025366  0  0  0.063842  0  4.043138  0  0  0.024236  0.055196  0  4.013289  0
C  C63  1  0.66128709  0.59354126  0.68850011  1  0  0.097183  0  3.755518  0  0  0.058696  0  4.025011  0  0  0.06392  0  4.042789  0  0  0.024232  0.055282  0  4.012931  0
C  C64  1  0.56756058  0.84248390  0.23983274  1  0  -0.084786  0  3.768531  0  0  -0.098956  0  4.028252  0  0  -0.101674  0  4.047271  0  0  -0.087105  -0.097173  0  4.015123  0
C  C65  1  0.43243432  0.34248715  0.26016658  1  0  -0.084804  0  3.768466  0  0  -0.099002  0  4.028202  0  0  -0.101717  0  4.047214  0  0  -0.087126  -0.09722  0  4.015076  0
C  C66  1  0.43243613  0.15750545  0.76016744  1  0  -0.084924  0  3.768724  0  0  -0.099096  0  4.028418  0  0  -0.101817  0  4.047436  0  0  -0.087101  -0.097314  0  4.015296  0
C  C67  1  0.56756531  0.65751618  0.73983388  1  0  -0.084819  0  3.76838  0  0  -0.099012  0  4.028117  0  0  -0.101731  0  4.047134  0  0  -0.087088  -0.097231  0  4.014994  0
C  C68  1  0.62230318  0.71271749  0.26213138  1  0  -0.139441  0  3.711803  0  0  -0.164716  0  3.966211  0  0  -0.167248  0  3.985372  0  0  -0.092287  -0.162431  0  3.952828  0
C  C69  1  0.37768704  0.21271901  0.23786892  1  0  -0.139474  0  3.711838  0  0  -0.16471  0  3.966261  0  0  -0.167237  0  3.985418  0  0  -0.092289  -0.162423  0  3.952877  0
C  C70  1  0.37769781  0.28727486  0.73786690  1  0  -0.139395  0  3.711728  0  0  -0.164614  0  3.966148  0  0  -0.167143  0  3.985316  0  0  -0.092224  -0.162331  0  3.952766  0
C  C71  1  0.62231405  0.78728632  0.76213169  1  0  -0.139417  0  3.711847  0  0  -0.164696  0  3.966266  0  0  -0.167226  0  3.98543  0  0  -0.092303  -0.16241  0  3.952881  0
C  C72  1  0.76606158  0.64692630  0.23328888  1  0  0.279688  0  3.837739  0  0  0.267576  0  4.096825  0  0  0.277391  0  4.113807  0  0  0.085127  0.260649  0  4.085103  0
C  C73  1  0.23392410  0.14693179  0.26671140  1  0  0.279643  0  3.837654  0  0  0.267408  0  4.096908  0  0  0.27722  0  4.113893  0  0  0.085095  0.260481  0  4.08518  0
C  C74  1  0.23394092  0.35307104  0.76671070  1  0  0.279673  0  3.837757  0  0  0.267524  0  4.096865  0  0  0.277336  0  4.11385  0  0  0.085142  0.260601  0  4.085147  0
C  C75  1  0.76607272  0.85307054  0.73329110  1  0  0.279502  0  3.837863  0  0  0.267354  0  4.096991  0  0  0.277163  0  4.113978  0  0  0.085079  0.260427  0  4.085268  0
C  C76  1  0.84965296  0.71707876  0.17807383  1  0  0.07573  0  3.695596  0  0  0.066799  0  3.94422  0  0  0.070057  0  3.963774  0  0  0.09972  0.064355  0  3.931105  0
C  C77  1  0.15034032  0.21708190  0.32192963  1  0  0.075778  0  3.695634  0  0  0.066904  0  3.944177  0  0  0.070165  0  3.963728  0  0  0.099697  0.064457  0  3.931058  0
C  C78  1  0.15034514  0.28292057  0.82192474  1  0  0.075761  0  3.69551  0  0  0.066898  0  3.944082  0  0  0.070159  0  3.963632  0  0  0.099711  0.06445  0  3.93097  0
C  C79  1  0.84966090  0.78292043  0.67807388  1  0  0.075958  0  3.695439  0  0  0.067077  0  3.943967  0  0  0.070342  0  3.963513  0  0  0.099743  0.064626  0  3.930856  0
N  N80  1  0.10883027  0.75379004  0.11278943  1  0  -0.361053  0  3.315022  0  0  -0.286315  0  3.575443  0  0  -0.304642  0  3.596245  0  0  -0.335095  -0.274479  0  3.561902  0
N  N81  1  0.89116615  0.25379123  0.38721700  1  0  -0.360972  0  3.315221  0  0  -0.286233  0  3.57557  0  0  -0.304556  0  3.59637  0  0  -0.335038  -0.274397  0  3.562023  0
N  N82  1  0.89117221  0.24621029  0.88720958  1  0  -0.361003  0  3.315002  0  0  -0.286256  0  3.575419  0  0  -0.304583  0  3.596222  0  0  -0.33511  -0.274422  0  3.561876  0
N  N83  1  0.10883509  0.74620711  0.61278710  1  0  -0.360921  0  3.315193  0  0  -0.28618  0  3.575586  0  0  -0.304506  0  3.596392  0  0  -0.335034  -0.274348  0  3.562037  0
N  N84  1  0.79595006  0.84530558  0.15949174  1  0  -0.358191  0  3.324003  0  0  -0.287865  0  3.591415  0  0  -0.304711  0  3.611611  0  0  -0.33833  -0.275829  0  3.57727  0
N  N85  1  0.20404645  0.34530652  0.34051062  1  0  -0.35811  0  3.324105  0  0  -0.287817  0  3.591487  0  0  -0.304669  0  3.611689  0  0  -0.338278  -0.275781  0  3.57734  0
N  N86  1  0.20405096  0.15468976  0.84050712  1  0  -0.358195  0  3.32397  0  0  -0.287891  0  3.591352  0  0  -0.30474  0  3.611548  0  0  -0.338323  -0.275856  0  3.577216  0
N  N87  1  0.79595764  0.65469281  0.65949202  1  0  -0.358187  0  3.323882  0  0  -0.287876  0  3.591248  0  0  -0.304727  0  3.611444  0  0  -0.338278  -0.275842  0  3.577111  0
N  N88  1  0.20787422  0.04800194  0.02910363  1  0  -0.603874  0  2.734649  0  0  -0.558848  0  3.045583  0  0  -0.583722  0  3.051189  0  0  -0.308093  -0.541652  0  3.041716  0
N  N89  1  0.79212282  0.54800282  0.47089726  1  0  -0.603765  0  2.734821  0  0  -0.558779  0  3.045785  0  0  -0.583639  0  3.051362  0  0  -0.308047  -0.541587  0  3.041921  0
N  N90  1  0.79212255  0.95200139  0.97089771  1  0  -0.603756  0  2.734773  0  0  -0.55874  0  3.045707  0  0  -0.583613  0  3.051321  0  0  -0.308054  -0.541548  0  3.041842  0
N  N91  1  0.20788549  0.45199253  0.52910231  1  0  -0.603691  0  2.734886  0  0  -0.558705  0  3.045862  0  0  -0.583544  0  3.051407  0  0  -0.30798  -0.541518  0  3.042  0
N  N92  1  0.33082859  0.13271874  0.03776401  1  0  0.413974  0  4.249607  0  0  0.440093  0  4.53672  0  0  0.45648  0  4.565936  0  0  0.086543  0.42908  0  4.516833  0
N  N93  1  0.66916721  0.63271141  0.46223621  1  0  0.413865  0  4.2494  0  0  0.440007  0  4.536517  0  0  0.456395  0  4.565737  0  0  0.086543  0.428994  0  4.516629  0
N  N94  1  0.66917386  0.86728858  0.96223442  1  0  0.413883  0  4.249549  0  0  0.440003  0  4.536701  0  0  0.456388  0  4.56592  0  0  0.086487  0.428991  0  4.516811  0
N  N95  1  0.33082958  0.36728492  0.53776571  1  0  0.413899  0  4.249405  0  0  0.440029  0  4.536509  0  0  0.456415  0  4.565741  0  0  0.086539  0.429016  0  4.516622  0
N  N96  1  0.45039314  0.21562344  0.04415602  1  0  -0.411533  0  2.459779  0  0  -0.399236  0  2.68879  0  0  -0.407137  0  2.695592  0  0  -0.192477  -0.393071  0  2.683999  0
N  N97  1  0.54959120  0.71561985  0.45584253  1  0  -0.411523  0  2.45938  0  0  -0.399244  0  2.688351  0  0  -0.407143  0  2.695156  0  0  -0.192538  -0.393075  0  2.683558  0
N  N98  1  0.54960342  0.78438089  0.95584067  1  0  -0.411532  0  2.459568  0  0  -0.399257  0  2.688539  0  0  -0.407153  0  2.695342  0  0  -0.192475  -0.393086  0  2.683745  0
N  N99  1  0.45040999  0.28437249  0.54416041  1  0  -0.411657  0  2.459226  0  0  -0.399394  0  2.688231  0  0  -0.407283  0  2.695012  0  0  -0.192631  -0.393222  0  2.683438  0
O  O100  1  0.84348152  0.17212330  0.11718327  1  0  -0.853016  0  1.901441  0  0  -0.791444  0  2.103063  0  0  -0.812854  0  2.070767  0  0  -0.598286  -0.776926  0  2.12622  0
O  O101  1  0.15651123  0.67211992  0.38281117  1  0  -0.852963  0  1.901608  0  0  -0.791395  0  2.103173  0  0  -0.812809  0  2.070885  0  0  -0.598236  -0.77688  0  2.12633  0
O  O102  1  0.15651499  0.82787803  0.88281225  1  0  -0.852901  0  1.901653  0  0  -0.791345  0  2.103218  0  0  -0.812757  0  2.070933  0  0  -0.598268  -0.77683  0  2.126379  0
O  O103  1  0.84348833  0.32787942  0.61718754  1  0  -0.852933  0  1.901586  0  0  -0.791379  0  2.103122  0  0  -0.812789  0  2.070831  0  0  -0.598238  -0.776866  0  2.12628  0
O  O104  1  0.82110573  0.52436143  0.25992302  1  0  -0.622204  0  2.169365  0  0  -0.54697  0  2.415047  0  0  -0.572861  0  2.406523  0  0  -0.35271  -0.528111  0  2.419094  0
O  O105  1  0.17886648  0.02436628  0.24007618  1  0  -0.621985  0  2.16911  0  0  -0.546802  0  2.414932  0  0  -0.57269  0  2.406412  0  0  -0.352691  -0.527966  0  2.418977  0
O  O106  1  0.17890107  0.47563890  0.74007525  1  0  -0.622174  0  2.169286  0  0  -0.546931  0  2.415113  0  0  -0.572825  0  2.406593  0  0  -0.352744  -0.528051  0  2.419108  0
O  O107  1  0.82113454  0.97563506  0.75992268  1  0  -0.621994  0  2.169336  0  0  -0.54681  0  2.415104  0  0  -0.572696  0  2.406584  0  0  -0.35268  -0.527964  0  2.419125  0
O  O108  1  0.92727242  0.42718673  0.15137773  1  0  -0.561518  0  2.177452  0  0  -0.493359  0  2.389659  0  0  -0.51745  0  2.38222  0  0  -0.342216  -0.476463  0  2.393512  0
O  O109  1  0.07271866  0.92719175  0.34862818  1  0  -0.561465  0  2.177438  0  0  -0.493369  0  2.389732  0  0  -0.517461  0  2.382299  0  0  -0.342204  -0.476464  0  2.393481  0
O  O110  1  0.07273294  0.57280961  0.84862098  1  0  -0.561557  0  2.177386  0  0  -0.493307  0  2.389677  0  0  -0.517395  0  2.382235  0  0  -0.342189  -0.476411  0  2.393529  0
O  O111  1  0.92727657  0.07280958  0.65137127  1  0  -0.561409  0  2.177371  0  0  -0.49331  0  2.389676  0  0  -0.517402  0  2.382243  0  0  -0.342203  -0.476398  0  2.393413  0
