# generated using pymatgen
data_MnH12C8S2(NO2)2
_symmetry_space_group_name_H-M   'P 1'
_cell_length_a   5.95666395
_cell_length_b   8.97972699
_cell_length_c   21.52700000
_cell_angle_alpha   90.00000000
_cell_angle_beta   90.00000000
_cell_angle_gamma   90.00000000
_symmetry_Int_Tables_number   1
_chemical_formula_structural   MnH12C8S2(NO2)2
_chemical_formula_sum   'Mn4 H48 C32 S8 N8 O16'
_cell_volume   1151.46235355
_cell_formula_units_Z   4
loop_
 _symmetry_equiv_pos_site_id
 _symmetry_equiv_pos_as_xyz
  1  'x, y, z'
loop_
 _atom_site_type_symbol
 _atom_site_label
 _atom_site_symmetry_multiplicity
 _atom_site_fract_x
 _atom_site_fract_y
 _atom_site_fract_z
 _atom_site_occupancy
 _atom_site_hle17_ddec_charge
 _atom_site_hle17_ddec_spin_density
 _atom_site_hle17_ddec_sum_bond_order
 _atom_site_hle17_magmom
 _atom_site_hse06_10hf_ddec_charge
 _atom_site_hse06_10hf_ddec_spin_density
 _atom_site_hse06_10hf_ddec_sum_bond_order
 _atom_site_hse06_10hf_magmom
 _atom_site_hse06_ddec_charge
 _atom_site_hse06_ddec_spin_density
 _atom_site_hse06_ddec_sum_bond_order
 _atom_site_hse06_magmom
 _atom_site_pbe_bader_charge
 _atom_site_pbe_bader_spin_density
 _atom_site_pbe_cm5_charge
 _atom_site_pbe_ddec_charge
 _atom_site_pbe_ddec_spin_density
 _atom_site_pbe_ddec_sum_bond_order
 _atom_site_pbe_magmom
Mn  Mn0  1  0.93608772  0.56735132  0.80099967  1  1.142292  4.798859  1.735306  4.675  0.967844  4.730698  2.224065  4.54  1.030796  4.770714  2.155874  4.6  1.474951  4.570262  0.591099  0.916572  4.690498  2.276107  4.481
Mn  Mn1  1  0.56389953  0.43264233  0.30100153  1  1.142168  4.798854  1.735451  4.675  0.967768  4.730705  2.224178  4.54  1.030726  4.770721  2.155983  4.6  1.474938  4.570279  0.591075  0.916493  4.690509  2.276209  4.481
Mn  Mn2  1  0.06392169  0.06734726  0.69899940  1  1.142164  4.798862  1.735504  4.675  0.967719  4.73069  2.224261  4.54  1.030665  4.770706  2.15608  4.6  1.474979  4.570242  0.591046  0.916443  4.690488  2.276296  4.481
Mn  Mn3  1  0.43606623  0.93264083  0.19899707  1  1.141946  4.798912  1.735558  4.675  0.967595  4.730722  2.224277  4.54  1.030543  4.770735  2.156094  4.6  1.474932  4.570271  0.591018  0.91636  4.690522  2.276228  4.481
H  H4  1  0.86029194  0.67891596  0.93462768  1  0.220458  -8.6e-05  0.982446  0.0  0.207067  0.000417  1.057899  0.001  0.212702  0.000235  1.054278  0.0  0.401921  0.001036  0.269182  0.202839  0.0006  1.060875  0.001
H  H5  1  0.63971042  0.32108214  0.43462350  1  0.220432  -8.5e-05  0.982496  0.0  0.207085  0.000418  1.057916  0.001  0.212726  0.000235  1.054294  0.0  0.401969  0.001036  0.269168  0.202855  0.0006  1.060893  0.001
H  H6  1  0.13972250  0.17890633  0.56537325  1  0.220403  -8.6e-05  0.98246  0.0  0.207045  0.000418  1.057922  0.001  0.212681  0.000234  1.054287  0.0  0.401795  0.001036  0.269156  0.202817  0.0006  1.0609  0.001
H  H7  1  0.36027045  0.82109623  0.06537790  1  0.22051  -8.5e-05  0.982413  0.0  0.207149  0.000418  1.057864  0.001  0.212784  0.000235  1.054236  0.0  0.402066  0.001036  0.269165  0.20292  0.0006  1.060845  0.001
H  H8  1  0.91817669  0.26648917  0.83066196  1  0.283096  -0.000408  0.8977  0.0  0.269887  0.000178  0.959654  0.001  0.276474  -6.1e-05  0.954659  0.001  0.457817  0.001186  0.304641  0.264752  0.00014  0.963828  0.001
H  H9  1  0.58182231  0.73351228  0.33066660  1  0.283048  -0.000406  0.897802  0.0  0.269853  0.000178  0.95974  0.001  0.276442  -6.1e-05  0.95474  0.001  0.457833  0.001186  0.304647  0.264716  0.00014  0.963915  0.001
H  H10  1  0.08183272  0.76648321  0.66934129  1  0.283114  -0.000408  0.897631  0.0  0.269851  0.000178  0.959629  0.001  0.276434  -6.2e-05  0.954642  0.001  0.457821  0.001186  0.304657  0.264719  0.00014  0.9638  0.001
H  H11  1  0.41816359  0.23351267  0.16934454  1  0.283138  -0.000407  0.897696  0.0  0.269861  0.000178  0.959722  0.001  0.276446  -6.2e-05  0.954729  0.001  0.457848  0.001186  0.304645  0.264726  0.00014  0.963895  0.001
H  H12  1  0.89678888  0.98526603  0.97143076  1  0.079194  -7.8e-05  0.983732  0.0  0.084467  -5.2e-05  1.066085  0.0  0.086256  -6.1e-05  1.065214  0.0  0.070048  8.6e-05  0.083142  0.083382  -4.5e-05  1.066394  0.0
H  H13  1  0.60320845  0.01473876  0.47143169  1  0.079193  -7.8e-05  0.983769  0.0  0.084423  -5.2e-05  1.066186  0.0  0.086213  -6.1e-05  1.065309  0.0  0.070022  8.6e-05  0.083112  0.083338  -4.5e-05  1.066494  0.0
H  H14  1  0.10321885  0.48526531  0.52856924  1  0.079197  -8e-05  0.98373  0.0  0.084456  -5.2e-05  1.066126  0.0  0.086245  -6.1e-05  1.065237  0.0  0.070036  8.6e-05  0.08313  0.083371  -4.5e-05  1.066435  0.0
H  H15  1  0.39678586  0.51474728  0.02856738  1  0.079212  -7.8e-05  0.983715  0.0  0.084457  -5.2e-05  1.066064  0.0  0.086247  -6.1e-05  1.065182  0.0  0.070063  8.6e-05  0.08314  0.083373  -4.5e-05  1.06637  0.0
H  H16  1  0.05566035  0.07702907  0.91310540  1  0.103019  4e-05  0.958968  0.0  0.118111  0.000287  1.022548  0.0  0.119644  0.000158  1.022211  0.0  0.083813  0.001025  0.097942  0.116724  0.000398  1.023562  0.0
H  H17  1  0.44434771  0.92296904  0.41310958  1  0.103026  3.9e-05  0.958924  0.0  0.118125  0.000287  1.022504  0.0  0.119625  0.000158  1.022202  0.0  0.083815  0.001025  0.097941  0.116737  0.000398  1.023518  0.0
H  H18  1  0.94434402  0.57701643  0.58689599  1  0.103035  4.1e-05  0.959026  0.0  0.118076  0.000287  1.022656  0.0  0.119562  0.000158  1.022362  0.0  0.083859  0.001025  0.09791  0.116693  0.000398  1.023663  0.0
H  H19  1  0.55565666  0.42298168  0.08689367  1  0.10312  3.9e-05  0.958875  0.0  0.118125  0.000287  1.022518  0.0  0.119652  0.000158  1.022187  0.0  0.084007  0.001025  0.097934  0.116738  0.000398  1.02353  0.0
H  H20  1  0.30416858  0.69442312  0.87613741  1  0.088507  -6.4e-05  0.967359  0.0  0.096872  0.000117  1.036618  0.0  0.098963  -2.2e-05  1.03507  0.0  0.124616  0.001032  0.107351  0.095633  0.000264  1.037078  0.0
H  H21  1  0.19582773  0.30557945  0.37613787  1  0.08854  -6.2e-05  0.967327  0.0  0.096909  0.000118  1.036595  0.0  0.099001  -2.1e-05  1.035045  0.0  0.124586  0.001033  0.107356  0.095669  0.000264  1.037056  0.0
H  H22  1  0.69584251  0.19441237  0.62385980  1  0.088431  -6.3e-05  0.967415  0.0  0.096809  0.000117  1.036629  0.0  0.098899  -2.2e-05  1.035081  0.0  0.124655  0.001032  0.107331  0.095571  0.000263  1.037087  0.0
H  H23  1  0.80416153  0.80559576  0.12386213  1  0.088483  -6.3e-05  0.967475  0.0  0.09684  0.000117  1.036706  0.0  0.09893  -2.2e-05  1.035159  0.0  0.124609  0.001032  0.107358  0.095601  0.000263  1.037168  0.0
H  H24  1  0.22083166  0.60406179  0.94664747  1  0.08726  -0.00025  0.930473  0.0  0.105272  -0.000265  0.990141  0.0  0.105878  -0.000272  0.990213  0.0  0.082425  0.0001  0.108322  0.105205  -0.000259  0.989543  0.0
H  H25  1  0.27917640  0.39593854  0.44664840  1  0.087308  -0.000251  0.930394  0.0  0.105315  -0.000265  0.990051  0.0  0.105926  -0.000272  0.990122  0.0  0.082426  0.0001  0.108315  0.105247  -0.000259  0.989454  0.0
H  H26  1  0.77918782  0.10405550  0.55335114  1  0.087316  -0.00025  0.930502  0.0  0.105262  -0.000265  0.990201  0.0  0.105873  -0.000272  0.990272  0.0  0.082341  0.0001  0.108336  0.105194  -0.000259  0.989602  0.0
H  H27  1  0.72080615  0.89594929  0.05335346  1  0.087332  -0.000251  0.930477  0.0  0.105281  -0.000265  0.990165  0.0  0.105892  -0.000272  0.990236  0.0  0.082344  0.0001  0.108324  0.105214  -0.000259  0.989567  0.0
H  H28  1  0.72396396  0.88042989  0.88333720  1  0.084196  -0.00023  0.91235  0.0  0.094019  -9.3e-05  0.974521  0.0  0.095819  -0.00017  0.973554  0.0  0.097033  0.000573  0.119748  0.093197  -1e-06  0.974309  0.0
H  H29  1  0.77603169  0.11956934  0.38333860  1  0.084187  -0.000228  0.912361  0.0  0.093995  -9.3e-05  0.974535  0.0  0.095802  -0.00017  0.973561  0.0  0.097063  0.000573  0.119741  0.093171  -1e-06  0.974322  0.0
H  H30  1  0.27604713  0.38042137  0.61666326  1  0.084185  -0.00023  0.912361  0.0  0.093992  -9.3e-05  0.97451  0.0  0.095786  -0.00017  0.973557  0.0  0.097037  0.000573  0.119744  0.093198  -1e-06  0.974274  0.0
H  H31  1  0.22396597  0.61957452  0.11666558  1  0.08418  -0.000229  0.912379  0.0  0.094014  -9.3e-05  0.974537  0.0  0.095807  -0.00017  0.97358  0.0  0.097034  0.000573  0.119746  0.093201  -1e-06  0.974321  0.0
H  H32  1  0.72968360  0.46160201  0.92709528  1  0.057857  0.000154  0.975012  0.0  0.07154  0.000433  1.043887  0.0  0.071892  0.0003  1.044007  0.0  0.070129  0.001103  0.093522  0.071238  0.000676  1.043953  0.001
H  H33  1  0.77031876  0.53840278  0.42710271  1  0.057816  0.000153  0.974963  0.0  0.071524  0.000432  1.043779  0.0  0.071876  0.0003  1.043898  0.0  0.070413  0.001103  0.093532  0.071238  0.000676  1.043832  0.001
H  H34  1  0.27031406  0.96158825  0.57290287  1  0.057865  0.000152  0.974917  0.0  0.07156  0.000433  1.043756  0.0  0.071911  0.0003  1.043877  0.0  0.070413  0.001103  0.093523  0.071275  0.000676  1.043807  0.001
H  H35  1  0.22969401  0.03841654  0.07290287  1  0.057891  0.000153  0.974862  0.0  0.071601  0.000433  1.043693  0.0  0.071951  0.0003  1.043813  0.0  0.070494  0.001103  0.093554  0.071315  0.000676  1.043741  0.001
H  H36  1  0.94070104  0.32191068  0.93472802  1  0.081508  -0.000251  0.943535  0.0  0.096594  -0.000218  1.010081  0.0  0.097391  -0.000239  1.009832  0.0  0.091292  0.000178  0.102077  0.095609  -0.000174  1.010819  0.0
H  H37  1  0.55930300  0.67810079  0.43473498  1  0.081531  -0.000252  0.943453  0.0  0.096596  -0.000218  1.010003  0.0  0.097394  -0.000239  1.009749  0.0  0.09153  0.000178  0.10208  0.095605  -0.000174  1.010744  0.0
H  H38  1  0.05929829  0.82190027  0.56527245  1  0.081469  -0.000252  0.943562  0.0  0.096558  -0.000218  1.010099  0.0  0.097357  -0.000239  1.009842  0.0  0.091222  0.000178  0.10207  0.095572  -0.000174  1.010836  0.0
H  H39  1  0.44070977  0.17810786  0.06527616  1  0.081465  -0.000252  0.943637  0.0  0.096575  -0.000218  1.010154  0.0  0.097373  -0.000239  1.0099  0.0  0.091262  0.000178  0.102076  0.095584  -0.000174  1.010894  0.0
H  H40  1  0.53297786  0.08588903  0.83436103  1  0.092345  -0.000326  0.936586  0.0  0.105196  -0.000364  1.001981  0.0  0.106685  -0.000377  1.001655  0.0  0.091489  7.7e-05  0.092726  0.104424  -0.000346  1.00127  0.0
H  H41  1  0.96702618  0.91411131  0.33436568  1  0.092324  -0.000323  0.936526  0.0  0.105154  -0.000364  1.001962  0.0  0.106661  -0.000377  1.001618  0.0  0.091339  7.7e-05  0.092755  0.104382  -0.000346  1.001249  0.0
H  H42  1  0.46705170  0.58588084  0.66563293  1  0.092343  -0.000327  0.936616  0.0  0.105172  -0.000364  1.002037  0.0  0.106684  -0.000376  1.001683  0.0  0.091642  7.7e-05  0.092768  0.1044  -0.000346  1.001326  0.0
H  H43  1  0.03294797  0.41412506  0.16563571  1  0.092324  -0.000325  0.93659  0.0  0.105123  -0.000364  1.002022  0.0  0.106621  -0.000377  1.001683  0.0  0.091704  7.7e-05  0.092745  0.10435  -0.000346  1.001312  0.0
H  H44  1  0.29331015  0.20038582  0.84686487  1  0.108938  -0.000308  0.962834  0.0  0.121953  -0.00016  1.028075  0.0  0.124286  -0.000276  1.026402  0.0  0.073882  0.000889  0.100227  0.119806  -6.4e-05  1.030076  0.0
H  H45  1  0.20668952  0.79961228  0.34686812  1  0.108915  -0.000308  0.962875  0.0  0.121974  -0.00016  1.028061  0.0  0.124304  -0.000275  1.026392  0.0  0.073863  0.000889  0.100248  0.119824  -6.4e-05  1.03007  0.0
H  H46  1  0.70670430  0.70037875  0.65312863  1  0.108892  -0.000308  0.963045  0.0  0.121925  -0.00016  1.02826  0.0  0.124252  -0.000276  1.026593  0.0  0.073769  0.000889  0.100208  0.119784  -6.4e-05  1.030257  0.0
H  H47  1  0.79329471  0.29962047  0.15312956  1  0.108895  -0.000309  0.9631  0.0  0.121931  -0.00016  1.028267  0.0  0.124257  -0.000276  1.026601  0.0  0.073788  0.000889  0.100214  0.119783  -6.4e-05  1.030271  0.0
H  H48  1  0.61626777  0.28553875  0.76744786  1  0.104584  -0.000492  0.911419  0.0  0.114071  -0.000185  0.97065  0.0  0.116962  -0.000364  0.968748  0.0  0.147625  0.001008  0.128451  0.111947  -2.6e-05  0.971895  0.0
H  H49  1  0.88372788  0.71446381  0.26745343  1  0.10473  -0.00049  0.911336  0.0  0.114139  -0.000185  0.970649  0.0  0.117028  -0.000364  0.968752  0.0  0.147683  0.001008  0.12849  0.112015  -2.6e-05  0.971893  0.0
H  H50  1  0.38376347  0.78552722  0.73254657  1  0.104724  -0.000491  0.911365  0.0  0.114077  -0.000185  0.970739  0.0  0.11697  -0.000365  0.968837  0.0  0.147746  0.001008  0.12843  0.111955  -2.6e-05  0.97198  0.0
H  H51  1  0.11623956  0.21447423  0.23254843  1  0.104618  -0.000492  0.911434  0.0  0.113981  -0.000185  0.970789  0.0  0.116876  -0.000364  0.968883  0.0  0.147681  0.001008  0.128398  0.11186  -2.6e-05  0.97203  0.0
C  C52  1  0.01237438  0.96818756  0.93253774  1  -0.175055  0.000208  3.644418  0.0  -0.222039  0.000927  3.9108  0.001  -0.221808  0.000583  3.920803  0.001  -0.113126  0.002028  -0.15435  -0.222133  0.001252  3.904201  0.001
C  C53  1  0.48762529  0.03181166  0.43253960  1  -0.175045  0.000208  3.644312  0.0  -0.222023  0.000927  3.910675  0.001  -0.221779  0.000584  3.920715  0.001  -0.113087  0.002028  -0.154323  -0.222115  0.001252  3.904074  0.001
C  C54  1  0.98764007  0.46818127  0.56746226  1  -0.175068  0.000209  3.644543  0.0  -0.222077  0.000928  3.910874  0.001  -0.221848  0.000583  3.921002  0.001  -0.113625  0.002029  -0.154319  -0.222176  0.001252  3.904279  0.001
C  C55  1  0.51237237  0.53182352  0.06746133  1  -0.175202  0.000209  3.644488  0.0  -0.222044  0.000927  3.910754  0.001  -0.22185  0.000583  3.920856  0.001  -0.113899  0.002029  -0.154333  -0.222138  0.001251  3.904156  0.001
C  C56  1  0.19405493  0.70125072  0.91675477  1  -0.010582  8.9e-05  3.621023  0.0  -0.065097  0.00164  3.895008  0.001  -0.05968  0.001037  3.903944  0.0  0.186087  0.002122  -0.060773  -0.068901  0.002223  3.888181  0.001
C  C57  1  0.30594642  0.29874962  0.41675431  1  -0.010642  8.9e-05  3.621012  0.0  -0.06512  0.00164  3.894914  0.001  -0.059703  0.001037  3.903863  0.0  0.186054  0.002123  -0.060742  -0.068924  0.002224  3.888087  0.001
C  C58  1  0.80595952  0.20123997  0.58324430  1  -0.010534  8.7e-05  3.621146  0.0  -0.064949  0.001639  3.894964  0.001  -0.059542  0.001037  3.903908  0.0  0.185762  0.002122  -0.060727  -0.068752  0.002223  3.888135  0.001
C  C59  1  0.69404285  0.79876259  0.08324709  1  -0.010686  8.9e-05  3.621206  0.0  -0.065055  0.001639  3.894987  0.001  -0.059644  0.001037  3.903931  0.0  0.185785  0.002122  -0.060749  -0.068861  0.002223  3.888167  0.001
C  C60  1  0.90789073  0.86644839  0.88276629  1  0.018554  0.000343  3.613057  0.001  0.007886  0.001487  3.849537  0.001  0.006687  0.000863  3.862331  0.001  0.290532  0.003378  0.008376  0.008459  0.002163  3.840723  0.002
C  C61  1  0.59210827  0.13354749  0.38276444  1  0.018547  0.000343  3.61296  0.001  0.007923  0.001488  3.849426  0.001  0.006737  0.000861  3.862188  0.001  0.290134  0.003379  0.008356  0.008499  0.002164  3.840608  0.002
C  C62  1  0.09212036  0.36643653  0.61723231  1  0.018515  0.000341  3.613319  0.001  0.007995  0.001488  3.84961  0.001  0.006789  0.000862  3.862404  0.001  0.290972  0.003377  0.008426  0.008546  0.002163  3.840798  0.002
C  C63  1  0.40788939  0.63355824  0.11723324  1  0.018522  0.000343  3.613251  0.001  0.007901  0.001488  3.849714  0.001  0.006704  0.000863  3.862497  0.001  0.291094  0.003377  0.008405  0.008464  0.002164  3.840909  0.002
C  C64  1  0.98629368  0.90141382  0.81625726  1  0.658062  0.005646  3.813352  0.005  0.602681  0.012436  4.111907  0.011  0.636277  0.009254  4.10793  0.008  1.581671  0.014861  0.22856  0.579542  0.015398  4.112745  0.013
C  C65  1  0.51371708  0.09857538  0.31625494  1  0.657998  0.005648  3.813485  0.005  0.60259  0.012438  4.112079  0.011  0.636188  0.009255  4.108103  0.008  1.582008  0.014865  0.228494  0.579449  0.015398  4.112923  0.013
C  C66  1  0.01370398  0.40139305  0.68374042  1  0.65806  0.005645  3.813243  0.005  0.602353  0.012437  4.112169  0.011  0.635946  0.009255  4.108198  0.008  1.582577  0.014851  0.22836  0.579214  0.015398  4.11301  0.013
C  C67  1  0.48629233  0.59860506  0.18374228  1  0.65798  0.005644  3.813443  0.005  0.602471  0.012433  4.112264  0.011  0.636062  0.009252  4.10829  0.008  1.582716  0.014852  0.228314  0.579329  0.015394  4.113113  0.013
C  C68  1  0.78339487  0.35112760  0.91133925  1  0.006507  0.00056  3.619633  0.0  -0.050162  0.002612  3.892887  0.002  -0.044205  0.001748  3.902791  0.001  0.226492  0.003507  -0.060136  -0.054401  0.003465  3.886095  0.002
C  C69  1  0.71660917  0.64888053  0.41134389  1  0.006561  0.000562  3.619396  0.0  -0.050049  0.002612  3.892632  0.002  -0.044094  0.001747  3.902542  0.001  0.22586  0.003507  -0.060118  -0.054298  0.003464  3.885823  0.002
C  C70  1  0.21660614  0.85111719  0.58865982  1  0.006546  0.000563  3.619494  0.0  -0.050107  0.002613  3.892721  0.002  -0.044153  0.00175  3.902633  0.001  0.226307  0.003508  -0.060138  -0.054358  0.003465  3.885918  0.002
C  C71  1  0.28339688  0.14888537  0.08866215  1  0.006479  0.000562  3.619513  0.0  -0.050204  0.002612  3.892775  0.002  -0.044255  0.001747  3.902699  0.001  0.226223  0.003507  -0.060167  -0.054453  0.003465  3.885968  0.002
C  C72  1  0.47576463  0.19425089  0.85174386  1  -0.164063  -5.9e-05  3.637573  0.0  -0.210864  0.000578  3.910259  0.001  -0.210015  0.000218  3.919203  0.001  -0.133128  0.002012  -0.15287  -0.211602  0.00085  3.904593  0.001
C  C73  1  0.02423672  0.80574499  0.35174711  1  -0.164072  -6.3e-05  3.637417  0.0  -0.210854  0.000577  3.910093  0.001  -0.210016  0.000217  3.919037  0.001  -0.132971  0.002012  -0.152874  -0.211592  0.00085  3.904433  0.001
C  C74  1  0.52425486  0.69424494  0.64825243  1  -0.164059  -6.2e-05  3.637632  0.0  -0.210788  0.000577  3.910129  0.001  -0.209943  0.000217  3.919066  0.001  -0.133155  0.002012  -0.152881  -0.211532  0.00085  3.904463  0.001
C  C75  1  0.97574583  0.30575874  0.14825429  1  -0.164079  -5.9e-05  3.6375  0.0  -0.210746  0.000577  3.909949  0.001  -0.209888  0.000217  3.91888  0.001  -0.133237  0.002012  -0.152872  -0.211485  0.00085  3.904286  0.001
C  C76  1  0.58979658  0.32040952  0.81595949  1  0.010363  0.00189  3.616366  0.001  -0.005993  0.003253  3.85865  0.002  -0.007564  0.002381  3.870697  0.002  0.28533  0.004845  0.00435  -0.004955  0.004055  3.850249  0.003
C  C77  1  0.91019404  0.67958859  0.31596414  1  0.010361  0.00189  3.61638  0.001  -0.006013  0.003251  3.858838  0.002  -0.007585  0.002381  3.870886  0.002  0.283647  0.004847  0.004308  -0.004986  0.004055  3.850446  0.003
C  C78  1  0.41021283  0.82040579  0.68403679  1  0.010334  0.001891  3.616335  0.001  -0.005971  0.003251  3.858645  0.002  -0.007547  0.002381  3.870694  0.002  0.285267  0.004846  0.004345  -0.004932  0.004055  3.850246  0.003
C  C79  1  0.08978012  0.17959789  0.18403865  1  0.010559  0.001891  3.616242  0.001  -0.005717  0.003251  3.858395  0.002  -0.007283  0.002379  3.870447  0.002  0.285306  0.004846  0.004408  -0.004687  0.004055  3.849999  0.003
C  C80  1  0.45744901  0.46747301  0.81351744  1  0.663737  0.006303  3.821519  0.007  0.613529  0.012554  4.117814  0.013  0.647657  0.009353  4.112796  0.01  1.601243  0.016175  0.226648  0.589617  0.015996  4.120329  0.015
C  C81  1  0.04254059  0.53252176  0.31352069  1  0.663723  0.006299  3.821427  0.007  0.613419  0.012554  4.117835  0.013  0.647554  0.009353  4.112807  0.01  1.602737  0.016171  0.226612  0.589508  0.015996  4.12035  0.015
C  C82  1  0.54255201  0.96747262  0.68648023  1  0.663769  0.006302  3.821366  0.007  0.613512  0.012556  4.117721  0.013  0.647647  0.009355  4.112691  0.01  1.601303  0.016175  0.226664  0.589599  0.015998  4.120234  0.015
C  C83  1  0.95743692  0.03253106  0.18648256  1  0.663425  0.006305  3.821759  0.007  0.613228  0.012554  4.118004  0.013  0.647335  0.009355  4.113022  0.01  1.601148  0.016173  0.226528  0.589317  0.015997  4.120524  0.015
S  S84  1  0.26684903  0.87488183  0.95880661  1  -0.080557  0.001371  2.235297  0.001  -0.060878  0.003004  2.582108  0.002  -0.064508  0.001956  2.577953  0.002  -0.098177  0.006527  -0.034128  -0.058026  0.004283  2.584253  0.003
S  S85  1  0.23315064  0.12512073  0.45880661  1  -0.080536  0.001373  2.235331  0.001  -0.06084  0.003005  2.582112  0.002  -0.064468  0.001955  2.577953  0.002  -0.098174  0.006527  -0.034119  -0.057993  0.004282  2.584258  0.003
S  S86  1  0.73316038  0.37487331  0.54119339  1  -0.080525  0.001373  2.235222  0.001  -0.060878  0.003005  2.581954  0.002  -0.064505  0.001955  2.577803  0.002  -0.098029  0.006527  -0.034135  -0.058027  0.004282  2.5841  0.003
S  S87  1  0.76684870  0.62513148  0.04119478  1  -0.080471  0.001372  2.235297  0.001  -0.060817  0.003005  2.581947  0.002  -0.064446  0.001957  2.577807  0.002  -0.098097  0.006529  -0.034121  -0.057969  0.004282  2.584095  0.003
S  S88  1  0.55877586  0.21701105  0.93258187  1  -0.111448  0.002809  2.206805  0.003  -0.103692  0.004655  2.564  0.004  -0.108099  0.003299  2.561683  0.003  -0.083318  0.009014  -0.060542  -0.101531  0.00641  2.566087  0.005
S  S89  1  0.94122986  0.78299597  0.43258652  1  -0.111441  0.002808  2.206735  0.003  -0.103702  0.004653  2.563915  0.004  -0.108108  0.003298  2.5616  0.003  -0.083359  0.009012  -0.060536  -0.101544  0.006409  2.566007  0.005
S  S90  1  0.44123020  0.71700064  0.56741348  1  -0.111479  0.00281  2.206674  0.003  -0.10374  0.004655  2.563827  0.004  -0.108144  0.003299  2.561509  0.003  -0.083542  0.009015  -0.060544  -0.101578  0.006411  2.565923  0.005
S  S91  1  0.05877451  0.28300415  0.06741534  1  -0.111428  0.002809  2.206616  0.003  -0.103732  0.004654  2.56376  0.004  -0.108137  0.003299  2.561439  0.003  -0.08349  0.009013  -0.060544  -0.101574  0.00641  2.565855  0.005
N  N92  1  0.96002898  0.71038463  0.89782924  1  -0.412234  0.024238  3.231216  0.016  -0.356499  0.030313  3.487312  0.019  -0.374906  0.027067  3.497343  0.017  -1.052787  0.043816  -0.463583  -0.34247  0.033423  3.48002  0.021
N  N93  1  0.53996835  0.28961348  0.39782599  1  -0.41222  0.02424  3.231346  0.016  -0.35656  0.030315  3.487442  0.019  -0.374995  0.027072  3.497494  0.017  -1.052717  0.043823  -0.46357  -0.342527  0.033426  3.480149  0.021
N  N94  1  0.03998211  0.21037722  0.60216983  1  -0.412071  0.024239  3.231484  0.016  -0.35641  0.030313  3.487428  0.019  -0.37479  0.027069  3.497445  0.017  -1.052376  0.043819  -0.463518  -0.342387  0.033424  3.480144  0.021
N  N95  1  0.46001924  0.78962089  0.10217401  1  -0.412119  0.024245  3.231326  0.016  -0.35645  0.030318  3.487372  0.019  -0.374842  0.027073  3.497386  0.017  -1.052738  0.043828  -0.463512  -0.342431  0.033429  3.480095  0.021
N  N96  1  0.81010613  0.34919102  0.84420031  1  -0.431469  0.027188  3.255792  0.016  -0.36926  0.03044  3.519214  0.015  -0.388583  0.027219  3.527095  0.013  -1.127211  0.047943  -0.475464  -0.353755  0.034122  3.512834  0.018
N  N97  1  0.68988951  0.65081043  0.34420588  1  -0.431533  0.02718  3.255807  0.016  -0.36932  0.030437  3.519176  0.015  -0.388642  0.027216  3.527053  0.013  -1.126961  0.047937  -0.475551  -0.353812  0.034117  3.512798  0.018
N  N98  1  0.18990496  0.84917949  0.65579784  1  -0.43149  0.027184  3.255976  0.016  -0.369226  0.030436  3.519384  0.015  -0.388546  0.027213  3.527263  0.013  -1.12724  0.047952  -0.475451  -0.353725  0.034118  3.513013  0.018
N  N99  1  0.31009136  0.15081862  0.15579969  1  -0.431624  0.027188  3.256041  0.016  -0.369344  0.030439  3.519436  0.015  -0.388666  0.027219  3.527317  0.013  -1.127202  0.047946  -0.475486  -0.353835  0.034121  3.513049  0.018
O  O100  1  0.02025127  0.79170336  0.78034050  1  -0.619161  0.034935  2.078907  0.022  -0.54763  0.042716  2.343884  0.026  -0.57858  0.037836  2.331832  0.022  -1.201171  0.068175  -0.291597  -0.524039  0.047269  2.351189  0.03
O  O101  1  0.47975344  0.20828918  0.28033818  1  -0.619091  0.03493  2.078864  0.022  -0.547553  0.042711  2.343862  0.026  -0.578505  0.037832  2.331815  0.022  -1.201108  0.068184  -0.291541  -0.523966  0.047265  2.351169  0.03
O  O102  1  0.97973800  0.29169261  0.71965671  1  -0.619296  0.034944  2.079417  0.022  -0.547598  0.042716  2.344401  0.026  -0.578543  0.037838  2.332353  0.022  -1.201356  0.068178  -0.291566  -0.523998  0.04727  2.351691  0.03
O  O103  1  0.52027108  0.70829436  0.21965532  1  -0.618977  0.034924  2.079429  0.022  -0.547456  0.042707  2.344501  0.026  -0.578396  0.037829  2.332448  0.022  -1.201261  0.068169  -0.291458  -0.523875  0.047259  2.351806  0.03
O  O104  1  0.00685787  0.03660356  0.79987736  1  -0.617809  0.031246  2.008123  0.021  -0.547432  0.03941  2.260195  0.026  -0.576994  0.034633  2.248754  0.022  -1.196349  0.06396  -0.296252  -0.525314  0.044186  2.267573  0.031
O  O105  1  0.49316698  0.96338675  0.29987458  1  -0.61763  0.031235  2.008194  0.021  -0.547296  0.039402  2.260341  0.026  -0.576855  0.034626  2.248894  0.022  -1.196463  0.063944  -0.296201  -0.525184  0.044177  2.26772  0.031
O  O106  1  0.99312468  0.53658981  0.70011938  1  -0.617958  0.031255  2.007847  0.021  -0.547262  0.039408  2.259733  0.026  -0.576813  0.034631  2.24828  0.022  -1.197124  0.063973  -0.296177  -0.525151  0.044184  2.267119  0.031
O  O107  1  0.50684578  0.46339828  0.20011846  1  -0.617867  0.031243  2.007551  0.021  -0.547466  0.03941  2.259686  0.026  -0.577025  0.034631  2.248243  0.022  -1.197216  0.063964  -0.296232  -0.525343  0.044186  2.267061  0.031
O  O108  1  0.57009259  0.58626059  0.80383333  1  -0.634376  0.033382  1.971425  0.024  -0.571001  0.041421  2.227337  0.029  -0.601489  0.036273  2.215189  0.024  -1.198768  0.06658  -0.310133  -0.548816  0.046768  2.234852  0.034
O  O109  1  0.92989802  0.41373195  0.30383704  1  -0.634507  0.033384  1.971602  0.024  -0.570964  0.041418  2.227394  0.029  -0.601456  0.036269  2.215245  0.024  -1.198911  0.066571  -0.310087  -0.548782  0.046763  2.234911  0.034
O  O110  1  0.42990339  0.08625763  0.69616621  1  -0.634368  0.033386  1.971452  0.024  -0.570926  0.041422  2.227345  0.029  -0.601418  0.036272  2.215195  0.024  -1.198732  0.066587  -0.310119  -0.548745  0.046768  2.234872  0.034
O  O111  1  0.07007446  0.91374827  0.19617039  1  -0.634148  0.033375  1.971597  0.024  -0.570719  0.041413  2.22745  0.029  -0.6012  0.036265  2.215315  0.024  -1.198883  0.06659  -0.309983  -0.548512  0.046758  2.2349  0.034
O  O112  1  0.24706950  0.46045832  0.81992335  1  -0.633622  0.033279  2.10309  0.021  -0.566466  0.041763  2.37679  0.026  -0.597952  0.036718  2.365231  0.022  -1.234358  0.066574  -0.306533  -0.543021  0.046552  2.384167  0.031
O  O113  1  0.25292177  0.53953867  0.31992149  1  -0.633632  0.033283  2.103081  0.021  -0.566414  0.041764  2.376783  0.026  -0.597902  0.036719  2.365218  0.022  -1.234148  0.066564  -0.306552  -0.54296  0.046552  2.38414  0.031
O  O114  1  0.75292983  0.96046795  0.68007990  1  -0.63363  0.033279  2.102977  0.021  -0.566456  0.041761  2.37669  0.026  -0.59794  0.036717  2.365123  0.022  -1.234321  0.06657  -0.306537  -0.543015  0.04655  2.384077  0.031
O  O115  1  0.74704903  0.03954352  0.18007804  1  -0.633522  0.033277  2.103132  0.021  -0.566417  0.041761  2.376837  0.026  -0.597894  0.036715  2.36529  0.022  -1.234109  0.066561  -0.306529  -0.542994  0.046551  2.384246  0.031
