# generated using pymatgen
data_MnH8C12(NO2)2
_symmetry_space_group_name_H-M   'P 1'
_cell_length_a   10.31105820
_cell_length_b   10.33034398
_cell_length_c   10.95240000
_cell_angle_alpha   90.00000000
_cell_angle_beta   90.00000000
_cell_angle_gamma   107.96150401
_symmetry_Int_Tables_number   1
_chemical_formula_structural   MnH8C12(NO2)2
_chemical_formula_sum   'Mn4 H32 C48 N8 O16'
_cell_volume   1109.75815449
_cell_formula_units_Z   4
loop_
 _symmetry_equiv_pos_site_id
 _symmetry_equiv_pos_as_xyz
  1  'x, y, z'
loop_
 _atom_site_type_symbol
 _atom_site_label
 _atom_site_symmetry_multiplicity
 _atom_site_fract_x
 _atom_site_fract_y
 _atom_site_fract_z
 _atom_site_occupancy
 _atom_site_hle17_ddec_charge
 _atom_site_hle17_ddec_spin_density
 _atom_site_hle17_ddec_sum_bond_order
 _atom_site_hle17_magmom
 _atom_site_hse06_10hf_ddec_charge
 _atom_site_hse06_10hf_ddec_spin_density
 _atom_site_hse06_10hf_ddec_sum_bond_order
 _atom_site_hse06_10hf_magmom
 _atom_site_hse06_ddec_charge
 _atom_site_hse06_ddec_spin_density
 _atom_site_hse06_ddec_sum_bond_order
 _atom_site_hse06_magmom
 _atom_site_pbe_bader_charge
 _atom_site_pbe_bader_spin_density
 _atom_site_pbe_cm5_charge
 _atom_site_pbe_ddec_charge
 _atom_site_pbe_ddec_spin_density
 _atom_site_pbe_ddec_sum_bond_order
 _atom_site_pbe_magmom
Mn  Mn0  1  0.91067041  0.48631695  0.63871206  1  1.116731  4.790737  1.827083  4.664  0.941865  4.705746  2.335348  4.509  1.002183  4.758009  2.263187  4.581  1.497564  4.512713  0.611989  0.896895  4.643034  2.389361  4.43
Mn  Mn1  1  0.58932878  0.51368269  0.13869654  1  1.116779  -4.790785  1.826905  -4.664  0.941807  -4.705828  2.335244  -4.509  1.002135  -4.758082  2.263086  -4.581  1.497888  -4.513853  0.612385  0.897379  -4.644542  2.389018  -4.43
Mn  Mn2  1  0.08932932  0.51368473  0.36130437  1  1.116779  4.790742  1.827211  4.664  0.941889  4.705736  2.335547  4.509  1.00221  4.758014  2.263376  4.581  1.498456  4.513803  0.612673  0.897886  4.644905  2.389262  4.43
Mn  Mn3  1  0.41066427  0.48630677  0.86129250  1  1.116726  -4.790727  1.82715  -4.664  0.941852  -4.705728  2.335453  -4.509  1.002175  -4.757998  2.263289  -4.581  1.497946  -4.513455  0.612372  0.89739  -4.644155  2.389298  -4.43
H  H4  1  0.86409464  0.97323937  0.58342099  1  0.129746  0.000179  0.973232  0.0  0.135508  0.000222  1.039661  0.0  0.139908  0.000172  1.036529  0.0  0.147636  0.000716  0.111248  0.132057  0.000424  1.042563  0.0
H  H5  1  0.63590649  0.02676026  0.08342007  1  0.129775  -0.000164  0.973238  0.0  0.135531  -0.000222  1.039674  0.0  0.139931  -0.000172  1.036544  0.0  0.147682  -0.000714  0.111254  0.132094  -0.000423  1.042577  0.0
H  H6  1  0.13590706  0.02675925  0.41657993  1  0.129754  0.000182  0.97327  0.0  0.135517  0.000222  1.039698  0.0  0.139917  0.000172  1.036565  0.0  0.147698  0.000715  0.111255  0.132089  0.000424  1.042589  0.0
H  H7  1  0.36409455  0.97323937  0.91658084  1  0.129841  -0.000185  0.973168  0.0  0.135596  -0.000222  1.039593  0.0  0.139997  -0.000172  1.036461  0.0  0.147667  -0.000715  0.111272  0.132155  -0.000424  1.042498  0.0
H  H8  1  0.68845685  0.87938052  0.74798674  1  0.09205  5.9e-05  0.949443  0.0  0.103764  0.000196  1.007081  0.0  0.105799  0.000171  1.006889  0.0  0.087933  0.000183  0.105674  0.10221  0.000308  1.007369  0.0
H  H9  1  0.81154331  0.12061912  0.24798674  1  0.092066  -4.8e-05  0.949426  0.0  0.103778  -0.000196  1.007067  0.0  0.105815  -0.000171  1.006871  0.0  0.08755  -0.000182  0.105688  0.10222  -0.000307  1.007374  0.0
H  H10  1  0.31154225  0.12061912  0.25201234  1  0.092033  4.8e-05  0.949442  0.0  0.103741  0.000196  1.007094  0.0  0.105781  0.000171  1.006895  0.0  0.086502  0.000182  0.105676  0.102194  0.000307  1.007378  0.0
H  H11  1  0.18845870  0.87938052  0.75201326  1  0.092034  -5.2e-05  0.949468  0.0  0.103743  -0.000196  1.007117  0.0  0.105781  -0.000171  1.006919  0.0  0.08754  -0.000181  0.105672  0.102195  -0.000307  1.00741  0.0
H  H12  1  0.59532667  0.03914364  0.86363172  1  0.116352  0.000201  0.985441  0.0  0.121317  0.000131  1.053786  0.0  0.12482  0.00012  1.05246  0.0  0.13127  0.000338  0.10692  0.118521  0.000149  1.055347  0.0
H  H13  1  0.90467383  0.96085396  0.36363080  1  0.116366  -0.00019  0.985528  0.0  0.121347  -0.000131  1.053842  0.0  0.124848  -0.00012  1.052524  0.0  0.131304  -0.000337  0.106946  0.11858  -0.000148  1.055381  0.0
H  H14  1  0.40467405  0.96085498  0.13636920  1  0.116386  0.000203  0.985472  0.0  0.121356  0.000131  1.053802  0.0  0.124858  0.00012  1.052481  0.0  0.131306  0.000337  0.106951  0.11858  0.000148  1.055348  0.0
H  H15  1  0.09532755  0.03914364  0.63636920  1  0.116367  -0.000201  0.985406  0.0  0.121336  -0.000131  1.053751  0.0  0.12484  -0.00012  1.052424  0.0  0.13129  -0.000336  0.106923  0.11855  -0.000148  1.055315  0.0
H  H16  1  0.67501250  0.28855435  0.80571382  1  0.092714  0.000823  0.956506  0.0  0.09799  0.001543  1.022572  0.001  0.101824  0.001321  1.018672  0.0  0.118418  0.001415  0.119179  0.094965  0.001727  1.025934  0.001
H  H17  1  0.82498897  0.71144325  0.30571473  1  0.092813  -0.000844  0.956354  0.0  0.098074  -0.001542  1.022444  -0.001  0.10191  -0.00132  1.018538  0.0  0.118406  -0.001413  0.119205  0.095048  -0.001725  1.025809  -0.001
H  H18  1  0.32498854  0.71144529  0.19428527  1  0.092826  0.00081  0.956364  0.0  0.098083  0.001542  1.022453  0.001  0.101919  0.001321  1.018548  0.0  0.118446  0.00141  0.11923  0.095062  0.001723  1.025808  0.001
H  H19  1  0.17501370  0.28855537  0.69428071  1  0.092694  -0.000801  0.95652  0.0  0.097988  -0.001543  1.02256  -0.001  0.101822  -0.001323  1.018662  0.0  0.118398  -0.001414  0.119208  0.094969  -0.001726  1.025933  -0.001
H  H20  1  0.17589851  0.69146947  0.03174373  1  0.116016  0.000482  0.961092  0.0  0.122946  0.000544  1.026207  0.0  0.126374  0.000483  1.02497  0.0  0.131048  0.000535  0.112721  0.120233  0.00059  1.027642  0.0
H  H21  1  0.32410467  0.30853423  0.53174190  1  0.115991  -0.000474  0.961204  0.0  0.122944  -0.000544  1.026287  0.0  0.126372  -0.000483  1.025052  0.0  0.131092  -0.000535  0.112746  0.120255  -0.000591  1.027695  0.0
H  H22  1  0.82410573  0.30853423  0.96826266  1  0.116017  0.000499  0.961174  0.0  0.122938  0.000545  1.026276  0.0  0.126366  0.000483  1.025037  0.0  0.131141  0.000538  0.112758  0.120268  0.000593  1.027663  0.0
H  H23  1  0.67589055  0.69146540  0.46826175  1  0.116006  -0.000476  0.961194  0.0  0.12297  -0.000544  1.026275  0.0  0.1264  -0.000483  1.025036  0.0  0.131168  -0.000535  0.112731  0.120268  -0.000591  1.0277  0.0
H  H24  1  0.04825111  0.85639663  0.08958767  1  0.090168  -0.000181  0.945465  0.0  0.102286  -7e-06  1.003981  0.0  0.10431  -3.4e-05  1.003985  0.0  0.094548  7e-06  0.106218  0.100713  -3e-06  1.004313  0.0
H  H25  1  0.45174788  0.14360606  0.58958584  1  0.090159  0.000169  0.945414  0.0  0.102275  6e-06  1.003935  0.0  0.10429  3.4e-05  1.003965  0.0  0.094614  -6e-06  0.106218  0.100729  4e-06  1.00423  0.0
H  H26  1  0.95174385  0.14359588  0.91041507  1  0.090146  -0.000189  0.945413  0.0  0.10228  -7e-06  1.003921  0.0  0.104295  -3.4e-05  1.003952  0.0  0.094553  7e-06  0.106237  0.100747  -3e-06  1.004204  0.0
H  H27  1  0.54824991  0.85639562  0.41041233  1  0.090129  0.000158  0.945508  0.0  0.102274  6e-06  1.003989  0.0  0.1043  3.4e-05  1.003992  0.0  0.09457  -6e-06  0.106212  0.100705  3e-06  1.004324  0.0
H  H28  1  0.85784680  0.87141971  0.95164530  1  0.095476  0.000433  0.959327  0.0  0.106343  0.000385  1.019646  0.0  0.108571  0.000329  1.020271  0.0  0.057683  0.000573  0.104963  0.104752  0.000434  1.019418  0.0
H  H29  1  0.64214982  0.12857789  0.45164530  1  0.095472  -0.000399  0.959303  0.0  0.106333  -0.000384  1.019629  0.0  0.108561  -0.00033  1.020252  0.0  0.057704  -0.000571  0.104971  0.104759  -0.000433  1.019386  0.0
H  H30  1  0.14214842  0.12857993  0.04836474  1  0.095562  0.000424  0.959304  0.0  0.10642  0.000385  1.019614  0.0  0.108646  0.000329  1.020244  0.0  0.057785  0.000572  0.105006  0.104866  0.000434  1.019362  0.0
H  H31  1  0.35784899  0.87141767  0.54835835  1  0.095538  -0.000391  0.959246  0.0  0.106406  -0.000385  1.019567  0.0  0.108633  -0.00033  1.020191  0.0  0.057918  -0.000572  0.105004  0.104822  -0.000433  1.019345  0.0
H  H32  1  0.80119586  0.72058043  0.76803623  1  0.071792  9.5e-05  0.95347  0.0  0.079711  0.000609  1.019859  0.0  0.081835  0.000435  1.01782  0.0  0.090162  0.001331  0.117914  0.077879  0.000866  1.022005  0.0
H  H33  1  0.69880205  0.27941819  0.26803623  1  0.071825  -0.0001  0.953528  0.0  0.079747  -0.000608  1.019904  0.0  0.08187  -0.000435  1.017868  0.0  0.09016  -0.001328  0.117943  0.077934  -0.000864  1.022035  0.0
H  H34  1  0.19881294  0.27941921  0.23195555  1  0.071861  0.000111  0.953375  0.0  0.079766  0.00061  1.019781  0.0  0.081889  0.000435  1.01774  0.0  0.08978  0.001328  0.11794  0.077948  0.000864  1.021929  0.0
H  H35  1  0.30119477  0.72058348  0.73196560  1  0.071902  -0.000119  0.953475  0.0  0.079808  -0.00061  1.019856  0.0  0.08193  -0.000435  1.01782  0.0  0.090128  -0.00133  0.117922  0.07798  -0.000865  1.022004  0.0
C  C36  1  0.95980913  0.24130641  0.51035116  1  0.616293  0.002965  3.913625  0.004  0.564675  0.00765  4.208901  0.007  0.598269  0.005135  4.202662  0.005  1.596721  0.010698  0.219478  0.541458  0.010267  4.211779  0.009
C  C37  1  0.54019105  0.75869017  0.01034476  1  0.61625  -0.003003  3.913985  -0.004  0.56465  -0.007646  4.20923  -0.007  0.598229  -0.005135  4.202991  -0.005  1.597041  -0.010698  0.219415  0.54142  -0.010267  4.212149  -0.009
C  C38  1  0.04019029  0.75869424  0.48964245  1  0.61612  0.002942  3.91374  0.004  0.564556  0.007652  4.208961  0.007  0.598151  0.005136  4.202722  0.005  1.597143  0.010705  0.219451  0.541296  0.010273  4.211855  0.009
C  C39  1  0.45981119  0.24131964  0.98964702  1  0.616046  -0.002962  3.913707  -0.004  0.564515  -0.007649  4.208879  -0.007  0.598108  -0.005137  4.202649  -0.005  1.597146  -0.0107  0.219414  0.541273  -0.01027  4.211793  -0.009
C  C40  1  0.86017707  0.17857136  0.61184124  1  0.08774  0.003807  3.741947  0.004  0.09248  0.005483  3.981045  0.005  0.093097  0.004473  4.00103  0.005  0.499663  0.009736  0.111684  0.091422  0.007021  3.968359  0.006
C  C41  1  0.63982536  0.82142624  0.11184215  1  0.087684  -0.003524  3.742153  -0.004  0.092391  -0.005484  3.981265  -0.005  0.093061  -0.004471  4.001186  -0.005  0.499664  -0.009728  0.111683  0.091348  -0.007015  3.968611  -0.006
C  C42  1  0.13983039  0.82143336  0.38815602  1  0.087838  0.003747  3.741955  0.004  0.09247  0.005483  3.981152  0.005  0.093088  0.004471  4.00114  0.005  0.499191  0.009707  0.1117  0.091514  0.006997  3.968406  0.006
C  C43  1  0.36016152  0.17856526  0.88814415  1  0.087961  -0.0037  3.742053  -0.004  0.092586  -0.005478  3.981201  -0.005  0.093203  -0.004471  4.001201  -0.005  0.499683  -0.009721  0.111756  0.091611  -0.007008  3.968438  -0.006
C  C44  1  0.82002402  0.03902356  0.63576385  1  -0.134989  -0.00138  3.707295  -0.001  -0.155359  -7.3e-05  3.953355  0.0  -0.160493  -0.000858  3.973855  -0.001  -0.062439  0.000996  -0.080689  -0.151668  0.000572  3.940103  0.0
C  C45  1  0.67997713  0.96097302  0.13576202  1  -0.135011  0.001067  3.707396  0.001  -0.155366  7.4e-05  3.953449  0.0  -0.160519  0.000856  3.973937  0.001  -0.062368  -0.000997  -0.080662  -0.15166  -0.000574  3.94019  0.0
C  C46  1  0.17997830  0.96097709  0.36423706  1  -0.135074  -0.00131  3.70744  -0.001  -0.15543  -7.3e-05  3.953521  0.0  -0.160565  -0.000859  3.974023  -0.001  -0.062444  0.001004  -0.080701  -0.151736  0.000578  3.940195  0.0
C  C47  1  0.32001940  0.03902458  0.86423980  1  -0.135156  0.001279  3.707501  0.001  -0.155499  7.1e-05  3.953586  0.0  -0.160636  0.000858  3.974089  0.001  -0.062578  -0.000997  -0.080674  -0.151812  -0.000573  3.940296  0.0
C  C48  1  0.72364947  0.98789000  0.72740221  1  -0.013295  0.003161  3.730703  0.003  -0.029071  0.004737  3.978512  0.004  -0.02709  0.003968  3.998622  0.003  -0.076102  0.007489  -0.071226  -0.030295  0.005754  3.964541  0.004
C  C49  1  0.77635134  0.01210862  0.22740221  1  -0.013211  -0.002916  3.730685  -0.003  -0.028982  -0.004739  3.978481  -0.004  -0.027  -0.003963  3.998593  -0.003  -0.075733  -0.007476  -0.071184  -0.030187  -0.005745  3.964529  -0.004
C  C50  1  0.27635028  0.01210862  0.27259779  1  -0.013194  0.003093  3.730683  0.003  -0.028959  0.004736  3.978476  0.004  -0.026979  0.003968  3.998588  0.003  -0.074614  0.007458  -0.071155  -0.030142  0.005731  3.964452  0.004
C  C51  1  0.22364873  0.98789102  0.77259870  1  -0.013189  -0.003072  3.730781  -0.003  -0.028948  -0.004739  3.978564  -0.004  -0.026965  -0.003964  3.998673  -0.003  -0.075729  -0.007471  -0.071172  -0.030152  -0.005741  3.964596  -0.004
C  C52  1  0.67038545  0.07646269  0.79159271  1  -0.119325  -0.001347  3.711894  -0.001  -0.133769  -0.000323  3.962304  0.0  -0.139628  -0.001053  3.983514  -0.001  -0.009188  0.000866  -0.082575  -0.129788  0.000425  3.948451  0.0
C  C53  1  0.82961859  0.92353694  0.29159362  1  -0.119458  0.001045  3.712007  0.001  -0.133921  0.000331  3.962424  0.0  -0.139785  0.001049  3.983639  0.001  -0.009307  -0.000873  -0.082628  -0.129931  -0.000431  3.948562  0.0
C  C54  1  0.32961656  0.92353694  0.20840729  1  -0.11946  -0.001281  3.711969  -0.001  -0.133909  -0.000323  3.962385  0.0  -0.139772  -0.001051  3.983602  -0.001  -0.009192  0.000873  -0.082602  -0.129893  0.000431  3.94844  0.0
C  C55  1  0.17038633  0.07646269  0.70840729  1  -0.119441  0.001268  3.711819  0.001  -0.133903  0.000331  3.962264  0.0  -0.139764  0.001047  3.983474  0.001  -0.009234  -0.000868  -0.082619  -0.129911  -0.000428  3.948419  0.0
C  C56  1  0.71561053  0.21444031  0.76159837  1  0.123744  0.003982  3.688892  0.004  0.09554  0.006607  3.944779  0.005  0.101415  0.005523  3.961013  0.004  0.450804  0.008707  0.051026  0.091497  0.007637  3.934145  0.006
C  C57  1  0.78438931  0.78555831  0.26159837  1  0.123745  -0.003688  3.688812  -0.003  0.095534  -0.006613  3.944704  -0.005  0.101408  -0.005519  3.960946  -0.004  0.450829  -0.008692  0.051046  0.091528  -0.007626  3.934082  -0.006
C  C58  1  0.28438954  0.78555932  0.23840163  1  0.123698  0.00396  3.688866  0.004  0.095487  0.00661  3.944738  0.005  0.101361  0.00552  3.960976  0.004  0.450663  0.008682  0.051051  0.091506  0.007619  3.934085  0.006
C  C59  1  0.21561914  0.21444337  0.73840437  1  0.123842  -0.003979  3.689067  -0.004  0.095617  -0.006616  3.944941  -0.005  0.101494  -0.005518  3.961172  -0.004  0.450928  -0.008692  0.051055  0.091585  -0.007627  3.934346  -0.006
C  C60  1  0.12467451  0.52161603  0.83631076  1  0.609219  -0.005226  3.942155  -0.005  0.554373  -0.007074  4.243955  -0.006  0.588829  -0.005365  4.238463  -0.005  1.603887  -0.010642  0.216407  0.529888  -0.010085  4.246929  -0.008
C  C61  1  0.37532741  0.47838361  0.33630802  1  0.609119  0.005258  3.941793  0.005  0.554274  0.007078  4.243572  0.006  0.588732  0.00537  4.238083  0.005  1.603748  0.010635  0.216413  0.529846  0.010077  4.246482  0.008
C  C62  1  0.87530325  0.47838361  0.16367737  1  0.609831  -0.005219  3.942469  -0.005  0.554797  -0.007056  4.244481  -0.006  0.589247  -0.00535  4.238994  -0.005  1.604546  -0.010634  0.216615  0.53035  -0.010078  4.247428  -0.008
C  C63  1  0.62469012  0.52161603  0.66369654  1  0.60956  0.005242  3.942978  0.005  0.554679  0.007059  4.244847  0.006  0.589129  0.005356  4.239357  0.005  1.604716  0.010669  0.216511  0.530179  0.010109  4.24782  0.008
C  C64  1  0.05043603  0.61949956  0.87546109  1  0.083044  0.004263  3.75763  0.004  0.088464  0.006135  3.999515  0.006  0.08923  0.005647  4.018964  0.005  0.386512  0.007478  0.112945  0.087227  0.006072  3.987382  0.006
C  C65  1  0.44956558  0.38049906  0.37546017  1  0.083024  -0.004312  3.757533  -0.004  0.088387  -0.006129  3.999488  -0.006  0.089154  -0.005647  4.018938  -0.005  0.386611  -0.007478  0.112931  0.087155  -0.006072  3.987348  -0.006
C  C66  1  0.94955702  0.38048991  0.12452431  1  0.082995  0.004366  3.757919  0.004  0.088405  0.006114  3.99983  0.006  0.089162  0.005629  4.019294  0.005  0.385843  0.007429  0.112853  0.087206  0.006032  3.987693  0.006
C  C67  1  0.55043001  0.61949549  0.62455170  1  0.083203  -0.004173  3.757662  -0.004  0.088442  -0.006123  3.999854  -0.006  0.089209  -0.005636  4.019308  -0.005  0.386948  -0.007442  0.11299  0.087226  -0.006045  3.987721  -0.006
C  C68  1  0.09030199  0.70110936  0.97868230  1  -0.104502  -0.004342  3.69571  -0.004  -0.127166  -0.003531  3.943895  -0.003  -0.132071  -0.003779  3.964059  -0.003  0.039981  -0.004767  -0.073076  -0.12433  -0.003693  3.931545  -0.003
C  C69  1  0.40969511  0.29888723  0.47868412  1  -0.104452  0.004352  3.695781  0.004  -0.12713  0.003528  3.943981  0.003  -0.132035  0.003777  3.964142  0.003  0.039905  0.004754  -0.073043  -0.124254  0.003682  3.931553  0.003
C  C70  1  0.90970494  0.29891878  0.02132866  1  -0.104591  -0.00447  3.696096  -0.004  -0.12719  -0.003526  3.944218  -0.003  -0.132091  -0.003773  3.964384  -0.003  0.040398  -0.004753  -0.073012  -0.124293  -0.003681  3.931727  -0.003
C  C71  1  0.59029662  0.70110427  0.52132683  1  -0.104669  0.004226  3.695695  0.004  -0.127319  0.003525  3.94398  0.003  -0.132229  0.003769  3.964149  0.003  0.039459  0.004757  -0.073096  -0.124465  0.003685  3.931592  0.003
C  C72  1  0.02034041  0.79244146  0.00860085  1  0.002294  0.005259  3.704008  0.005  -0.015873  0.006147  3.953859  0.005  -0.012684  0.005727  3.971751  0.005  -0.064992  0.008711  -0.06349  -0.01845  0.006799  3.94261  0.005
C  C73  1  0.47965632  0.20756021  0.50859994  1  0.002282  -0.005235  3.704081  -0.005  -0.015881  -0.006142  3.953927  -0.005  -0.012695  -0.005725  3.971814  -0.005  -0.064968  -0.008703  -0.063431  -0.018403  -0.006793  3.94258  -0.005
C  C74  1  0.97966393  0.20755003  0.99140736  1  0.002377  0.005338  3.703864  0.005  -0.015817  0.006142  3.953677  0.005  -0.012631  0.005722  3.971568  0.005  -0.064851  0.008681  -0.06341  -0.01831  0.006776  3.942283  0.005
C  C75  1  0.52034082  0.79244248  0.49140280  1  0.002321  -0.005053  3.704005  -0.004  -0.015849  -0.00614  3.953847  -0.005  -0.012665  -0.005713  3.971748  -0.005  -0.064599  -0.008678  -0.06349  -0.018406  -0.006773  3.942573  -0.005
C  C76  1  0.91456576  0.80055899  0.93264216  1  -0.102511  -0.003939  3.700895  -0.004  -0.11773  -0.003174  3.953304  -0.003  -0.122854  -0.003395  3.973133  -0.003  0.012097  -0.005559  -0.076111  -0.114884  -0.00436  3.940815  -0.004
C  C77  1  0.58543471  0.19944166  0.43264033  1  -0.102454  0.003873  3.700813  0.003  -0.117664  0.003174  3.953209  0.003  -0.122784  0.003397  3.973035  0.003  0.012193  0.005542  -0.07605  -0.114781  0.004346  3.940662  0.004
C  C78  1  0.08542458  0.19944370  0.06734780  1  -0.10289  -0.003973  3.701043  -0.004  -0.118098  -0.003162  3.953467  -0.003  -0.12323  -0.003385  3.9733  -0.003  0.012422  -0.005535  -0.076268  -0.115212  -0.00434  3.940894  -0.004
C  C79  1  0.41456638  0.80055187  0.56736606  1  -0.102552  0.003675  3.700902  0.003  -0.117772  0.003172  3.9533  0.003  -0.122897  0.003383  3.973134  0.003  0.011966  0.00556  -0.076142  -0.114939  0.00436  3.940832  0.004
C  C80  1  0.88149711  0.71582816  0.83076038  1  0.157616  0.005479  3.674784  0.005  0.125901  0.006881  3.932209  0.006  0.133393  0.006235  3.947939  0.006  0.514363  0.010022  0.063256  0.120619  0.00809  3.922502  0.007
C  C81  1  0.61850401  0.28417148  0.33076038  1  0.157625  -0.005483  3.674705  -0.005  0.125904  -0.006874  3.932128  -0.006  0.133396  -0.006236  3.947856  -0.006  0.514316  -0.010004  0.063244  0.12062  -0.008076  3.922425  -0.007
C  C82  1  0.11848898  0.28417962  0.16925423  1  0.157778  0.005502  3.674674  0.005  0.126072  0.00688  3.93205  0.006  0.133578  0.006234  3.947769  0.006  0.514883  0.009998  0.063477  0.120812  0.008073  3.92237  0.007
C  C83  1  0.38150413  0.71582918  0.66925240  1  0.157331  -0.005269  3.675217  -0.005  0.125673  -0.006874  3.932572  -0.006  0.13316  -0.00622  3.948306  -0.006  0.51405  -0.009996  0.063219  0.120402  -0.008071  3.922896  -0.007
N  N84  1  0.80895911  0.26453453  0.67429331  1  -0.336709  0.027171  3.258534  0.015  -0.275129  0.031998  3.52908  0.015  -0.291848  0.027787  3.543877  0.012  -1.256435  0.052538  -0.313117  -0.262935  0.036214  3.51928  0.019
N  N85  1  0.69103976  0.73546409  0.17429331  1  -0.336716  -0.027395  3.258615  -0.015  -0.275108  -0.031993  3.529148  -0.015  -0.291849  -0.027785  3.543934  -0.012  -1.256423  -0.052557  -0.31314  -0.262982  -0.03624  3.5194  -0.019
N  N86  1  0.19103968  0.73546409  0.32570852  1  -0.336708  0.027214  3.258523  0.015  -0.27507  0.032  3.529059  0.015  -0.291788  0.027791  3.543854  0.012  -1.255846  0.052535  -0.313158  -0.263028  0.03623  3.519352  0.019
N  N87  1  0.30895810  0.26452842  0.82570669  1  -0.336858  -0.027228  3.259288  -0.015  -0.275207  -0.032001  3.529827  -0.015  -0.291926  -0.027795  3.544625  -0.012  -1.256239  -0.05254  -0.313209  -0.263095  -0.036235  3.520065  -0.019
N  N88  1  0.94692269  0.62591461  0.80263778  1  -0.33547  0.023489  3.226021  0.009  -0.274442  0.027852  3.498795  0.008  -0.290968  0.024815  3.511764  0.006  -1.244643  0.043638  -0.305687  -0.26256  0.029233  3.490646  0.009
N  N89  1  0.55307779  0.37408604  0.30263413  1  -0.335518  -0.023436  3.225918  -0.009  -0.274465  -0.027853  3.498693  -0.008  -0.290992  -0.024811  3.511665  -0.006  -1.244698  -0.043684  -0.305694  -0.262664  -0.029284  3.490616  -0.009
N  N90  1  0.05307707  0.37408401  0.19735766  1  -0.335566  0.023408  3.226424  0.009  -0.274498  0.027859  3.499131  0.008  -0.291033  0.024823  3.512108  0.006  -1.24493  0.043681  -0.305734  -0.262742  0.02929  3.491104  0.009
N  N91  1  0.44693604  0.62592988  0.69736222  1  -0.335431  -0.023604  3.226871  -0.009  -0.274362  -0.027856  3.499661  -0.008  -0.290888  -0.024825  3.51264  -0.006  -1.24509  -0.043657  -0.305739  -0.262558  -0.029262  3.491562  -0.009
O  O92  1  0.01878649  0.17109493  0.45406851  1  -0.57765  0.004977  1.928214  0.006  -0.534364  0.00955  2.156078  0.011  -0.556519  0.007201  2.148736  0.009  -1.167737  0.016523  -0.302532  -0.517882  0.011967  2.16096  0.013
O  O93  1  0.48121640  0.82890470  0.95406943  1  -0.577603  -0.004939  1.92837  -0.006  -0.534327  -0.00955  2.156218  -0.011  -0.55648  -0.007193  2.148886  -0.009  -1.167841  -0.016531  -0.302473  -0.517798  -0.011974  2.16109  -0.013
O  O94  1  0.98121654  0.82889860  0.54592966  1  -0.57755  0.005004  1.928393  0.006  -0.534281  0.009551  2.156239  0.011  -0.556435  0.007201  2.148898  0.009  -1.167969  0.016539  -0.302482  -0.517718  0.011981  2.161081  0.013
O  O95  1  0.51878493  0.17109901  0.04593331  1  -0.577677  -0.004976  1.927959  -0.006  -0.534415  -0.009554  2.155773  -0.011  -0.556568  -0.007197  2.14843  -0.009  -1.168067  -0.016532  -0.302604  -0.517908  -0.011975  2.160666  -0.013
O  O96  1  0.97248019  0.36835177  0.48973193  1  -0.652719  0.059155  2.14658  0.038  -0.567204  0.070981  2.430399  0.045  -0.602553  0.064514  2.413907  0.039  -1.210031  0.10712  -0.304579  -0.540175  0.076776  2.441042  0.051
O  O97  1  0.52752188  0.63165092  0.98972463  1  -0.652697  -0.059144  2.14678  -0.038  -0.567159  -0.070979  2.430552  -0.045  -0.602505  -0.064514  2.414068  -0.039  -1.210111  -0.107145  -0.30455  -0.54015  -0.076802  2.441226  -0.05
O  O98  1  0.02750832  0.63163870  0.51025803  1  -0.652668  0.059154  2.146628  0.038  -0.56714  0.070991  2.430447  0.045  -0.602488  0.064523  2.413945  0.039  -1.210131  0.107128  -0.304522  -0.54011  0.076797  2.441134  0.051
O  O99  1  0.47249945  0.36835788  0.01023794  1  -0.652507  -0.059154  2.147219  -0.038  -0.56702  -0.070981  2.431071  -0.045  -0.602361  -0.064519  2.414575  -0.039  -1.210175  -0.107125  -0.3045  -0.540032  -0.07681  2.441769  -0.05
O  O100  1  0.22384367  0.51632951  0.90299660  1  -0.613622  -0.029574  2.059934  -0.015  -0.550546  -0.033983  2.336698  -0.014  -0.580936  -0.031023  2.322918  -0.011  -1.192079  -0.054878  -0.306412  -0.527493  -0.037147  2.345545  -0.017
O  O101  1  0.27614312  0.48366198  0.40299843  1  -0.613634  0.029572  2.059673  0.015  -0.550584  0.033987  2.336487  0.014  -0.580977  0.031029  2.322703  0.011  -1.191888  0.05489  -0.306396  -0.527507  0.037163  2.34528  0.017
O  O102  1  0.77617291  0.48366707  0.09700248  1  -0.613735  -0.029576  2.061058  -0.015  -0.550537  -0.033992  2.3378  -0.014  -0.580918  -0.031032  2.324022  -0.012  -1.192253  -0.054879  -0.306288  -0.527401  -0.037152  2.34657  -0.017
O  O103  1  0.72382827  0.51632646  0.59701344  1  -0.613759  0.029566  2.060874  0.015  -0.550614  0.033986  2.337594  0.014  -0.580996  0.031027  2.323816  0.012  -1.19245  0.054827  -0.306386  -0.527489  0.037105  2.346411  0.017
O  O104  1  0.08459385  0.45475557  0.73881067  1  -0.610134  0.024078  2.035188  0.015  -0.552482  0.025839  2.29708  0.014  -0.582179  0.024447  2.286918  0.013  -1.177397  0.038449  -0.292735  -0.530568  0.02655  2.303721  0.015
O  O105  1  0.41541641  0.54525221  0.23880976  1  -0.610153  -0.02409  2.035125  -0.015  -0.552359  -0.025829  2.296881  -0.014  -0.58206  -0.024441  2.286723  -0.013  -1.177299  -0.038487  -0.292671  -0.530454  -0.026591  2.303483  -0.015
O  O106  1  0.91540336  0.54523797  0.26118385  1  -0.610623  0.024093  2.035095  0.015  -0.55285  0.025852  2.297003  0.014  -0.582558  0.024456  2.286845  0.013  -1.177669  0.038509  -0.29289  -0.530961  0.026615  2.303627  0.015
O  O107  1  0.58460447  0.45477083  0.76119389  1  -0.610337  -0.024086  2.03542  -0.015  -0.552629  -0.025844  2.297309  -0.014  -0.582329  -0.02445  2.287148  -0.013  -1.17754  -0.038492  -0.292837  -0.530765  -0.02659  2.303949  -0.015
