# generated using pymatgen
data_ZnH22C24(NO)4
_symmetry_space_group_name_H-M   'P 1'
_cell_length_a   12.04281945
_cell_length_b   21.56711266
_cell_length_c   21.56167573
_cell_angle_alpha   116.60980455
_cell_angle_beta   100.71510134
_cell_angle_gamma   100.73233290
_symmetry_Int_Tables_number   1
_chemical_formula_structural   ZnH22C24(NO)4
_chemical_formula_sum   'Zn6 H132 C144 N24 O24'
_cell_volume   4682.48076753
_cell_formula_units_Z   6
loop_
 _symmetry_equiv_pos_site_id
 _symmetry_equiv_pos_as_xyz
  1  'x, y, z'
loop_
 _atom_site_type_symbol
 _atom_site_label
 _atom_site_symmetry_multiplicity
 _atom_site_fract_x
 _atom_site_fract_y
 _atom_site_fract_z
 _atom_site_occupancy
 _atom_site_pbe_bader_charge
 _atom_site_pbe_bader_spin_density
 _atom_site_pbe_cm5_charge
 _atom_site_pbe_ddec_charge
 _atom_site_pbe_ddec_spin_density
 _atom_site_pbe_ddec_sum_bond_order
 _atom_site_pbe_magmom
Zn  Zn0  1  0.57882030  0.62220532  0.78191964  1  1.264673  0  0.720698  0.773998  0  2.503776  0
Zn  Zn1  1  0.79660405  0.21819510  0.84015625  1  1.258576  0  0.721253  0.776335  0  2.498971  0
Zn  Zn2  1  0.95639296  0.15982547  0.37792949  1  1.262516  0  0.720134  0.773615  0  2.501796  0
Zn  Zn3  1  0.42118030  0.37779444  0.21808326  1  1.264729  0  0.720695  0.774018  0  2.503785  0
Zn  Zn4  1  0.20339407  0.78180302  0.15984010  1  1.258598  0  0.721256  0.776277  0  2.499051  0
Zn  Zn5  1  0.04360736  0.84017538  0.62206970  1  1.262527  0  0.72011  0.773556  0  2.501907  0
H  H6  1  0.33577320  0.62858864  0.73848552  1  0.55152  0  0.312152  0.272685  0  1.012574  0
H  H7  1  0.75393871  0.60773993  0.88634843  1  0.551437  0  0.309096  0.272662  0  1.018832  0
H  H8  1  0.98981388  0.38954100  0.84307484  1  0.106288  0  0.107865  0.113957  0  0.992577  0
H  H9  1  0.11057374  0.49212644  0.83552202  1  0.085739  0  0.1058  0.111251  0  0.986619  0
H  H10  1  0.22801042  0.33950699  0.67090051  1  0.055853  0  0.097895  0.099964  0  1.036638  0
H  H11  1  0.10134484  0.23726469  0.67618589  1  0.087485  0  0.102006  0.103999  0  1.025303  0
H  H12  1  0.41372600  0.43125545  0.80576848  1  0.051266  0  0.096318  0.13972  0  0.999741  0
H  H13  1  0.48875821  0.43418453  0.74350439  1  0.082552  0  0.095439  0.139169  0  1.013049  0
H  H14  1  0.53868115  0.50759496  0.83444889  1  0.058658  0  0.096662  0.138417  0  1.002697  0
H  H15  1  0.02894895  0.49385038  0.70111837  1  0.065523  0  0.095593  0.137631  0  1.025505  0
H  H16  1  0.08577689  0.58965495  0.76078589  1  0.076957  0  0.096164  0.139457  0  1.0186  0
H  H17  1  0.08530186  0.55237269  0.66886344  1  0.047359  0  0.101053  0.143903  0  0.973198  0
H  H18  1  0.95704755  0.95650638  0.23313381  1  0.096207  0  0.10098  0.103201  0  1.028238  0
H  H19  1  0.92958800  0.84538566  0.11667054  1  0.07273  0  0.103028  0.109308  0  0.996938  0
H  H20  1  0.55001732  0.80514150  0.06423600  1  0.106129  0  0.10039  0.111057  0  1.025003  0
H  H21  1  0.58029678  0.91735085  0.18128349  1  0.073612  0  0.099514  0.100368  0  1.028559  0
H  H22  1  0.84833992  0.71475189  0.10018600  1  0.093659  0  0.097872  0.142029  0  1.00957  0
H  H23  1  0.81651261  0.62396589  0.02825943  1  0.046239  0  0.101914  0.146045  0  0.974235  0
H  H24  1  0.94081672  0.69365226  0.04369096  1  0.097423  0  0.100344  0.155052  0  1.012945  0
H  H25  1  0.63940846  0.81491516  0.89929655  1  0.042536  0  0.100552  0.146634  0  0.9771  0
H  H26  1  0.57759492  0.82905305  0.97142541  1  0.070637  0  0.098808  0.142802  0  1.004795  0
H  H27  1  0.50285144  0.75342458  0.88222469  1  0.025144  0  0.096906  0.138576  0  1.015974  0
H  H28  1  0.59698026  0.26159594  0.89011414  1  0.578367  0  0.311898  0.27268  0  1.012131  0
H  H29  1  0.86755986  0.11366554  0.72138627  1  0.571181  0  0.308698  0.272765  0  1.018355  0
H  H30  1  0.14630890  0.15690522  0.54629496  1  0.115726  0  0.108828  0.114998  0  0.993097  0
H  H31  1  0.27452880  0.16433302  0.65642772  1  0.074224  0  0.106521  0.112122  0  0.985338  0
H  H32  1  0.55640567  0.32927317  0.66877006  1  0.10299  0  0.098597  0.100494  0  1.033704  0
H  H33  1  0.42473569  0.32394749  0.56112423  1  0.089167  0  0.102269  0.103998  0  1.025152  0
H  H34  1  0.60751976  0.19434318  0.62539601  1  0.050521  0  0.096509  0.139987  0  1.000037  0
H  H35  1  0.74471207  0.25662219  0.69065780  1  0.043134  0  0.095791  0.140032  0  1.013022  0
H  H36  1  0.70370809  0.16570147  0.67315507  1  0.056789  0  0.09666  0.138886  0  1.003438  0
H  H37  1  0.32731973  0.29900002  0.79298386  1  0.057965  0  0.095808  0.138262  0  1.025394  0
H  H38  1  0.32456757  0.23930556  0.82912651  1  0.080478  0  0.096848  0.141177  0  1.016891  0
H  H39  1  0.41614433  0.33118516  0.88368440  1  0.045143  0  0.10141  0.144375  0  0.973675  0
H  H40  1  0.72397582  0.76698573  0.72338747  1  0.092401  0  0.102113  0.104831  0  1.027655  0
H  H41  1  0.81292852  0.88354978  0.72888980  1  0.068022  0  0.102418  0.108622  0  0.997637  0
H  H42  1  0.48571105  0.93588053  0.74108076  1  0.082018  0  0.101526  0.112356  0  1.025332  0
H  H43  1  0.39890490  0.81867020  0.73597324  1  0.087005  0  0.100806  0.102123  0  1.027216  0
H  H44  1  0.74827214  0.89986925  0.61476389  1  0.061654  0  0.097987  0.142811  0  1.008436  0
H  H45  1  0.78833686  0.97173986  0.59581406  1  0.053737  0  0.101722  0.145802  0  0.974329  0
H  H46  1  0.89721864  0.95634614  0.65010781  1  0.091023  0  0.100574  0.155458  0  1.011837  0
H  H47  1  0.74025156  0.10076650  0.91576595  1  0.060479  0  0.101211  0.146586  0  0.976668  0
H  H48  1  0.60636508  0.02864005  0.85777147  1  0.025437  0  0.098638  0.142375  0  1.004956  0
H  H49  1  0.62068931  0.11784695  0.87140920  1  0.067492  0  0.09746  0.138828  0  1.016429  0
H  H50  1  0.70688207  0.10991169  0.37142697  1  0.544546  0  0.312072  0.272159  0  1.013203  0
H  H51  1  0.14618030  0.27857843  0.39224960  1  0.565683  0  0.308237  0.271365  0  1.020477  0
H  H52  1  0.60005995  0.45365130  0.61066454  1  0.109241  0  0.108449  0.113723  0  0.993974  0
H  H53  1  0.61789188  0.34343419  0.50799684  1  0.075945  0  0.106419  0.111574  0  0.98543  0
H  H54  1  0.88782821  0.33122752  0.66049920  1  0.085447  0  0.099407  0.101892  0  1.033272  0
H  H55  1  0.86393824  0.43893061  0.76280244  1  0.125936  0  0.10216  0.104389  0  1.024453  0
H  H56  1  0.98210200  0.37451815  0.56883080  1  0.054236  0  0.096591  0.140035  0  1.000082  0
H  H57  1  0.05403038  0.30926022  0.56586846  1  0.062044  0  0.095734  0.140356  0  1.011645  0
H  H58  1  0.03045485  0.32672270  0.49239913  1  0.044953  0  0.097148  0.139249  0  1.002676  0
H  H59  1  0.53437347  0.20699637  0.50604219  1  0.06837  0  0.095239  0.136517  0  1.024771  0
H  H60  1  0.49547314  0.17086432  0.41021455  1  0.082412  0  0.096591  0.140437  0  1.016954  0
H  H61  1  0.53246152  0.11629681  0.44754458  1  0.05774  0  0.10126  0.14392  0  0.973012  0
H  H62  1  0.00044548  0.27664377  0.04341990  1  0.084049  0  0.101372  0.10316  0  1.027855  0
H  H63  1  0.08405968  0.27117834  0.15448475  1  0.074454  0  0.102704  0.109201  0  0.998524  0
H  H64  1  0.74484570  0.25908129  0.19492166  1  0.083497  0  0.100262  0.110049  0  1.025339  0
H  H65  1  0.66299186  0.26417676  0.08282335  1  0.07235  0  0.10027  0.101636  0  1.027732  0
H  H66  1  0.13378536  0.38536715  0.28521843  1  0.057576  0  0.097927  0.143091  0  1.008497  0
H  H67  1  0.19265635  0.40412770  0.37598631  1  0.054794  0  0.10225  0.146929  0  0.972176  0
H  H68  1  0.24732473  0.34994455  0.30628196  1  0.091503  0  0.099991  0.153854  0  1.014211  0
H  H69  1  0.82446599  0.08438144  0.18507519  1  0.041855  0  0.100016  0.14516  0  0.977491  0
H  H70  1  0.74855142  0.14236660  0.17092142  1  0.057096  0  0.09918  0.142751  0  1.004079  0
H  H71  1  0.74941193  0.12880726  0.24658534  1  0.052263  0  0.097304  0.138766  0  1.015385  0
H  H72  1  0.66422826  0.37141112  0.26151516  1  0.551495  0  0.312159  0.272672  0  1.012572  0
H  H73  1  0.24606361  0.39225820  0.11365439  1  0.55144  0  0.309103  0.272642  0  1.018874  0
H  H74  1  0.01018416  0.61046039  0.15692667  1  0.106327  0  0.107879  0.113993  0  0.992535  0
H  H75  1  0.88942121  0.50787549  0.16447617  1  0.08582  0  0.105815  0.111285  0  0.986636  0
H  H76  1  0.77198679  0.66049440  0.32909860  1  0.055986  0  0.0979  0.099998  0  1.036648  0
H  H77  1  0.89865743  0.76273671  0.32381653  1  0.087452  0  0.101996  0.103984  0  1.025317  0
H  H78  1  0.58626933  0.56874049  0.19422799  1  0.051588  0  0.096291  0.139668  0  0.999685  0
H  H79  1  0.51124240  0.56581523  0.25649712  1  0.082505  0  0.095432  0.139154  0  1.013  0
H  H80  1  0.46131498  0.49240262  0.16555303  1  0.058547  0  0.096645  0.138391  0  1.002743  0
H  H81  1  0.97105169  0.50614774  0.29888103  1  0.065536  0  0.095586  0.137628  0  1.025508  0
H  H82  1  0.91422348  0.41034263  0.23921277  1  0.076919  0  0.096142  0.139422  0  1.018568  0
H  H83  1  0.91469706  0.44762706  0.33113651  1  0.047349  0  0.101053  0.143896  0  0.973199  0
H  H84  1  0.04295558  0.04349501  0.76686314  1  0.096221  0  0.100974  0.103188  0  1.028229  0
H  H85  1  0.07041460  0.15461300  0.88333023  1  0.072794  0  0.10301  0.109329  0  0.997013  0
H  H86  1  0.44998641  0.19485608  0.93576811  1  0.106064  0  0.100393  0.111022  0  1.024979  0
H  H87  1  0.41970773  0.08265163  0.81871733  1  0.073553  0  0.099536  0.100426  0  1.028497  0
H  H88  1  0.15166494  0.28524624  0.89981708  1  0.093707  0  0.09788  0.141999  0  1.009484  0
H  H89  1  0.18349139  0.37603223  0.97174542  1  0.045986  0  0.101872  0.146033  0  0.974106  0
H  H90  1  0.05918590  0.30634477  0.95631233  1  0.097635  0  0.100324  0.155046  0  1.012982  0
H  H91  1  0.36059359  0.18508242  0.10070739  1  0.042383  0  0.100581  0.146649  0  0.977044  0
H  H92  1  0.42240935  0.17094562  0.02857971  1  0.070576  0  0.09883  0.142877  0  1.004799  0
H  H93  1  0.49714807  0.24657300  0.11777990  1  0.025145  0  0.096868  0.138575  0  1.016047  0
H  H94  1  0.40301618  0.73840055  0.10988315  1  0.578314  0  0.311894  0.272704  0  1.012085  0
H  H95  1  0.13244106  0.88633312  0.27861200  1  0.571109  0  0.308702  0.272781  0  1.018355  0
H  H96  1  0.85368994  0.84309944  0.45370393  1  0.115686  0  0.108827  0.115055  0  0.993066  0
H  H97  1  0.72546787  0.83566728  0.34356899  1  0.074188  0  0.106522  0.11213  0  0.985405  0
H  H98  1  0.44359114  0.67073421  0.33123586  1  0.103073  0  0.098642  0.100571  0  1.033713  0
H  H99  1  0.57526167  0.67606098  0.43888085  1  0.089571  0  0.102289  0.104025  0  1.025201  0
H  H100  1  0.39247797  0.80566094  0.37460298  1  0.050365  0  0.096509  0.139983  0  0.999994  0
H  H101  1  0.25528622  0.74338138  0.30934286  1  0.043197  0  0.095822  0.14006  0  1.012985  0
H  H102  1  0.29628993  0.83430156  0.32684347  1  0.056602  0  0.096662  0.138873  0  1.003397  0
H  H103  1  0.67267584  0.70099810  0.20701593  1  0.057947  0  0.0958  0.138257  0  1.02539  0
H  H104  1  0.67542885  0.76069256  0.17087291  1  0.080541  0  0.096837  0.141188  0  1.01686  0
H  H105  1  0.58385293  0.66881296  0.11631417  1  0.045091  0  0.101372  0.144337  0  0.973655  0
H  H106  1  0.27602370  0.23301185  0.27661388  1  0.092463  0  0.102129  0.104893  0  1.027713  0
H  H107  1  0.18707495  0.11644725  0.27111126  1  0.068011  0  0.10243  0.108617  0  0.997647  0
H  H108  1  0.51429099  0.06411869  0.25891695  1  0.082001  0  0.101552  0.11244  0  1.025398  0
H  H109  1  0.60109683  0.18133010  0.26402770  1  0.08699  0  0.100827  0.102122  0  1.027176  0
H  H110  1  0.25173245  0.10012833  0.38523707  1  0.061388  0  0.098004  0.14281  0  1.008465  0
H  H111  1  0.21166834  0.02825554  0.40418459  1  0.053751  0  0.101696  0.145729  0  0.974313  0
H  H112  1  0.10278764  0.04365144  0.34989240  1  0.091156  0  0.100587  0.155492  0  1.011889  0
H  H113  1  0.25974625  0.89923271  0.08423039  1  0.060363  0  0.10119  0.146551  0  0.976553  0
H  H114  1  0.39363472  0.97135807  0.14222460  1  0.025393  0  0.098613  0.142342  0  1.004964  0
H  H115  1  0.37930684  0.88215063  0.12858623  1  0.067228  0  0.09745  0.138758  0  1.016411  0
H  H116  1  0.29311737  0.89009079  0.62857471  1  0.544554  0  0.312127  0.27231  0  1.013013  0
H  H117  1  0.85381604  0.72142460  0.60774968  1  0.56559  0  0.308192  0.271291  0  1.020573  0
H  H118  1  0.39993785  0.54634791  0.38933504  1  0.109267  0  0.108461  0.113772  0  0.993909  0
H  H119  1  0.38211039  0.65656720  0.49200280  1  0.075961  0  0.106438  0.111589  0  0.985412  0
H  H120  1  0.11217237  0.66877387  0.33950211  1  0.085564  0  0.099394  0.101896  0  1.033333  0
H  H121  1  0.13605869  0.56107024  0.23719918  1  0.125937  0  0.102154  0.104384  0  1.024502  0
H  H122  1  0.01789973  0.62548215  0.43117015  1  0.054229  0  0.09659  0.140015  0  1.00008  0
H  H123  1  0.94597193  0.69073954  0.43413045  1  0.062051  0  0.095754  0.140378  0  1.011588  0
H  H124  1  0.96954239  0.67327705  0.50759925  1  0.044993  0  0.097122  0.139188  0  1.002728  0
H  H125  1  0.46562602  0.79300285  0.49395804  1  0.068393  0  0.095218  0.136484  0  1.02479  0
H  H126  1  0.50452523  0.82913435  0.58978578  1  0.08237  0  0.096576  0.140393  0  1.016948  0
H  H127  1  0.46754301  0.88370404  0.55245737  1  0.057567  0  0.101254  0.143918  0  0.972986  0
H  H128  1  0.99955607  0.72335109  0.95657580  1  0.084669  0  0.101378  0.103231  0  1.027805  0
H  H129  1  0.91594206  0.72882197  0.84551435  1  0.074486  0  0.102689  0.109134  0  0.998526  0
H  H130  1  0.25515626  0.74092283  0.80507638  1  0.083471  0  0.100318  0.110157  0  1.025347  0
H  H131  1  0.33701043  0.73582463  0.91717304  1  0.07235  0  0.100233  0.101588  0  1.027736  0
H  H132  1  0.86621270  0.61463424  0.71478031  1  0.057671  0  0.09796  0.143146  0  1.008493  0
H  H133  1  0.80734114  0.59587424  0.62401261  1  0.054789  0  0.102267  0.146964  0  0.972199  0
H  H134  1  0.75267136  0.65005630  0.69371679  1  0.091477  0  0.099992  0.153867  0  1.01411  0
H  H135  1  0.17553346  0.91562104  0.81492464  1  0.04196  0  0.100009  0.145128  0  0.977539  0
H  H136  1  0.25144439  0.85763371  0.82907752  1  0.057011  0  0.099169  0.142683  0  1.004034  0
H  H137  1  0.25058527  0.87119413  0.75341423  1  0.052314  0  0.097337  0.138792  0  1.015369  0
C  C138  1  0.17664728  0.42267215  0.75236468  1  0.005015  0  -0.003074  0.112766  0  4.033465  0
C  C139  1  0.96449609  0.24669138  0.76493407  1  1.564613  0  0.2099  0.572631  0  4.231335  0
C  C140  1  0.03865562  0.30742237  0.76014855  1  -0.003982  0  -0.024254  -0.052559  0  3.99871  0
C  C141  1  0.04133431  0.37935491  0.80500848  1  -0.091937  0  -0.082558  -0.08655  0  3.98879  0
C  C142  1  0.10841200  0.43619902  0.80051369  1  -0.075751  0  -0.088716  -0.142688  0  3.982895  0
C  C143  1  0.17490878  0.35056903  0.70822676  1  -0.073699  0  -0.091341  -0.146417  0  3.983289  0
C  C144  1  0.10507959  0.29338444  0.71129995  1  -0.017702  0  -0.085345  -0.095141  0  4.003281  0
C  C145  1  0.25193985  0.48351717  0.75088175  1  0.101095  0  -0.032782  -0.180608  0  4.027811  0
C  C146  1  0.37684877  0.50328056  0.76786649  1  0.405568  0  0.102925  0.225943  0  4.004896  0
C  C147  1  0.21780339  0.53573269  0.73644446  1  0.414246  0  0.109656  0.222378  0  3.969299  0
C  C148  1  0.45910736  0.46754603  0.78920266  1  -0.067808  0  -0.233505  -0.422439  0  3.951864  0
C  C149  1  0.09815318  0.54326268  0.71558284  1  -0.070766  0  -0.231319  -0.42701  0  3.961269  0
C  C150  1  0.78811985  0.01561404  0.28021025  1  1.5589  0  0.208652  0.575855  0  4.21985  0
C  C151  1  0.77034636  0.94441074  0.21393097  1  -0.034259  0  -0.026104  -0.051996  0  3.995073  0
C  C152  1  0.86819302  0.92276322  0.19603570  1  -0.030035  0  -0.086857  -0.085854  0  3.987152  0
C  C153  1  0.85236750  0.86038606  0.13076606  1  -0.100514  0  -0.092695  -0.14352  0  3.973989  0
C  C154  1  0.73804855  0.81816624  0.08122988  1  0.024946  0  -0.003113  0.111256  0  4.036352  0
C  C155  1  0.63972831  0.83867000  0.10067012  1  -0.042228  0  -0.094904  -0.151334  0  3.976555  0
C  C156  1  0.65588955  0.90088912  0.16624509  1  -0.076476  0  -0.086702  -0.090399  0  3.996055  0
C  C157  1  0.72205071  0.75577022  0.00988179  1  0.04943  0  -0.033308  -0.181315  0  4.019558  0
C  C158  1  0.77178186  0.69836680  0.99456354  1  0.408294  0  0.109504  0.218265  0  3.977392  0
C  C159  1  0.65625079  0.74271574  0.94124202  1  0.416279  0  0.102296  0.222548  0  4.000504  0
C  C160  1  0.84815934  0.68168854  0.04401454  1  -0.075705  0  -0.232764  -0.435199  0  3.959414  0
C  C161  1  0.59030882  0.78733819  0.92280345  1  -0.007668  0  -0.232226  -0.427479  0  3.950579  0
C  C162  1  0.42358804  0.24770072  0.67031906  1  -0.030122  0  -0.002566  0.112766  0  4.032381  0
C  C163  1  0.19933357  0.23515515  0.48169064  1  1.544966  0  0.209227  0.573093  0  4.2286  0
C  C164  1  0.27804142  0.23996568  0.54727493  1  -0.012121  0  -0.024026  -0.052426  0  3.994793  0
C  C165  1  0.23583963  0.19503175  0.57427873  1  -0.04722  0  -0.083417  -0.087953  0  3.991099  0
C  C166  1  0.30730536  0.19947251  0.63560916  1  -0.053097  0  -0.090338  -0.144068  0  3.983569  0
C  C167  1  0.46599560  0.29194049  0.64244686  1  -0.059154  0  -0.091757  -0.145947  0  3.982053  0
C  C168  1  0.39325545  0.28886901  0.58215277  1  -0.076157  0  -0.085363  -0.09573  0  4.001753  0
C  C169  1  0.50037367  0.24914018  0.73263571  1  0.057317  0  -0.031944  -0.179554  0  4.024839  0
C  C170  1  0.60834924  0.23221983  0.73535545  1  0.465553  0  0.102984  0.227191  0  4.000928  0
C  C171  1  0.48078255  0.26356446  0.79932598  1  0.397271  0  0.110149  0.223229  0  3.967571  0
C  C172  1  0.66935803  0.21092872  0.67829590  1  -0.033766  0  -0.235004  -0.425685  0  3.952409  0
C  C173  1  0.38210643  0.28448202  0.82786058  1  -0.054095  0  -0.233155  -0.430754  0  3.959965  0
C  C174  1  0.50791028  0.71982866  0.73533416  1  1.567113  0  0.205539  0.568538  0  4.22764  0
C  C175  1  0.55643629  0.78614960  0.73049497  1  -0.10684  0  -0.026507  -0.050451  0  3.992617  0
C  C176  1  0.67222512  0.80411076  0.72682093  1  0.020788  0  -0.08638  -0.085996  0  3.988233  0
C  C177  1  0.72162700  0.86942338  0.72980480  1  -0.045528  0  -0.092873  -0.144417  0  3.977039  0
C  C178  1  0.65682127  0.91894945  0.73717455  1  -0.034734  0  -0.003975  0.111713  0  4.033756  0
C  C179  1  0.53902222  0.89946490  0.73817842  1  -0.04606  0  -0.096011  -0.152696  0  3.97636  0
C  C180  1  0.48960219  0.83381283  0.73467664  1  -0.039128  0  -0.087467  -0.092156  0  3.992569  0
C  C181  1  0.71222862  0.99026590  0.74608414  1  0.022224  0  -0.034073  -0.182718  0  4.019117  0
C  C182  1  0.77725640  0.00551003  0.70392640  1  0.446021  0  0.108909  0.2179  0  3.977874  0
C  C183  1  0.71507088  0.05891420  0.80161235  1  0.478207  0  0.103058  0.22446  0  4.001587  0
C  C184  1  0.80422788  0.95602760  0.63782427  1  -0.057353  0  -0.232367  -0.435409  0  3.958086  0
C  C185  1  0.66762652  0.07730183  0.86470601  1  -0.046107  0  -0.233498  -0.42775  0  3.951974  0
C  C186  1  0.75321622  0.32957356  0.57739962  1  -0.070147  0  -0.003375  0.110156  0  4.036045  0
C  C187  1  0.71785683  0.51833461  0.75346047  1  1.554555  0  0.209056  0.570522  0  4.230048  0
C  C188  1  0.73099145  0.45274547  0.69270629  1  -0.028101  0  -0.023602  -0.053125  0  3.997208  0
C  C189  1  0.66159821  0.42567216  0.62080360  1  -0.077968  0  -0.082359  -0.084483  0  3.990469  0
C  C190  1  0.67157586  0.36426164  0.56392453  1  -0.023474  0  -0.089707  -0.142428  0  3.982528  0
C  C191  1  0.82367844  0.35751867  0.64948683  1  0.017345  0  -0.093455  -0.148382  0  3.982139  0
C  C192  1  0.81137033  0.41787321  0.70670883  1  -0.121949  0  -0.085597  -0.095506  0  3.999922  0
C  C193  1  0.76769984  0.26730222  0.51650428  1  0.003478  0  -0.03322  -0.180789  0  4.028378  0
C  C194  1  0.87295707  0.26458563  0.49682932  1  0.455999  0  0.103324  0.225981  0  4.002415  0
C  C195  1  0.68146065  0.20062560  0.46422463  1  0.438411  0  0.108857  0.220964  0  3.966309  0
C  C196  1  0.99101248  0.32161587  0.53253636  1  -0.037205  0  -0.234301  -0.424773  0  3.951183  0
C  C197  1  0.55426945  0.17211160  0.45664155  1  -0.075137  0  -0.230831  -0.425653  0  3.956611  0
C  C198  1  0.77250881  0.26479334  0.98447380  1  1.554626  0  0.209444  0.577304  0  4.219383  0
C  C199  1  0.82592092  0.26966858  0.05566015  1  -0.065011  0  -0.026492  -0.054509  0  3.995648  0
C  C200  1  0.94536232  0.27330545  0.07720469  1  -0.021549  0  -0.086715  -0.083357  0  3.986694  0
C  C201  1  0.99190254  0.27033815  0.13954408  1  0.003743  0  -0.092505  -0.144043  0  3.976619  0
C  C202  1  0.91981321  0.26301033  0.18179292  1  -0.018487  0  -0.003647  0.109634  0  4.036272  0
C  C203  1  0.80104722  0.26204553  0.16139314  1  -0.07133  0  -0.094581  -0.148762  0  3.974768  0
C  C204  1  0.75502177  0.26552119  0.09923272  1  -0.022972  0  -0.087081  -0.091531  0  3.995338  0
C  C205  1  0.96632910  0.25403077  0.24416445  1  0.051896  0  -0.033336  -0.181419  0  4.019968  0
C  C206  1  0.07350264  0.29609265  0.30154343  1  0.392714  0  0.109068  0.219438  0  3.976809  0
C  C207  1  0.91353908  0.19849396  0.25726228  1  0.411714  0  0.102623  0.222935  0  4.001644  0
C  C208  1  0.16660255  0.36221245  0.31824121  1  -0.035129  0  -0.232563  -0.43608  0  3.957201  0
C  C209  1  0.80296108  0.13546150  0.21265278  1  -0.017274  0  -0.232837  -0.426323  0  3.949167  0
C  C210  1  0.82335107  0.57732815  0.24763545  1  0.005182  0  -0.003058  0.112869  0  4.033461  0
C  C211  1  0.03550817  0.75330892  0.23506761  1  1.564797  0  0.209907  0.572508  0  4.231542  0
C  C212  1  0.96134722  0.69257848  0.23985508  1  -0.003983  0  -0.024219  -0.052462  0  3.998847  0
C  C213  1  0.95866682  0.62064757  0.19499245  1  -0.091876  0  -0.082568  -0.086584  0  3.988781  0
C  C214  1  0.89158439  0.56380074  0.19948599  1  -0.075846  0  -0.088735  -0.142772  0  3.982938  0
C  C215  1  0.82508899  0.64943182  0.29177448  1  -0.073873  0  -0.091356  -0.146518  0  3.983303  0
C  C216  1  0.89492241  0.70661641  0.28870127  1  -0.017725  0  -0.085332  -0.095119  0  4.003416  0
C  C217  1  0.74805907  0.51648259  0.24911727  1  0.100602  0  -0.032736  -0.180561  0  4.027832  0
C  C218  1  0.62315072  0.49671865  0.23213328  1  0.4059  0  0.102909  0.225918  0  4.004947  0
C  C219  1  0.78219723  0.46426707  0.26355520  1  0.414133  0  0.109646  0.222315  0  3.96938  0
C  C220  1  0.54089020  0.53245101  0.21079639  1  -0.067947  0  -0.233439  -0.422315  0  3.951796  0
C  C221  1  0.90184743  0.45673708  0.28441682  1  -0.070736  0  -0.231309  -0.426973  0  3.961224  0
C  C222  1  0.21189620  0.98438954  0.71978810  1  1.559137  0  0.208443  0.575685  0  4.220195  0
C  C223  1  0.22965451  0.05559120  0.78606691  1  -0.034367  0  -0.026159  -0.052057  0  3.994885  0
C  C224  1  0.13181122  0.07723872  0.80396393  1  -0.029959  0  -0.086812  -0.085766  0  3.987251  0
C  C225  1  0.14763455  0.13961152  0.86923370  1  -0.100453  0  -0.09276  -0.143672  0  3.974249  0
C  C226  1  0.26195603  0.18183134  0.91877340  1  0.02495  0  -0.002945  0.111489  0  4.036147  0
C  C227  1  0.36027262  0.16132704  0.89933253  1  -0.04202  0  -0.094954  -0.151418  0  3.976527  0
C  C228  1  0.34411750  0.09911336  0.83375693  1  -0.076757  0  -0.086715  -0.090414  0  3.995831  0
C  C229  1  0.27795049  0.24422736  0.99012020  1  0.049459  0  -0.033268  -0.181257  0  4.019227  0
C  C230  1  0.22822188  0.30163078  0.00543965  1  0.408474  0  0.109416  0.21803  0  3.977313  0
C  C231  1  0.34375155  0.25728075  0.05876238  1  0.416003  0  0.102275  0.2226  0  4.000532  0
C  C232  1  0.15184301  0.31830794  0.95598801  1  -0.075819  0  -0.232743  -0.435152  0  3.959238  0
C  C233  1  0.40969096  0.21265994  0.07720096  1  -0.007335  0  -0.232261  -0.427642  0  3.950857  0
C  C234  1  0.57640829  0.75230230  0.32968208  1  -0.03029  0  -0.00257  0.112786  0  4.0325  0
C  C235  1  0.80066694  0.76485114  0.51830962  1  1.545518  0  0.20921  0.573039  0  4.228645  0
C  C236  1  0.72195543  0.76004008  0.45272563  1  -0.01287  0  -0.024019  -0.052445  0  3.994928  0
C  C237  1  0.76415753  0.80497291  0.42572091  1  -0.046952  0  -0.08354  -0.088218  0  3.991093  0
C  C238  1  0.69269040  0.80053106  0.36438938  1  -0.053059  0  -0.090287  -0.143994  0  3.983435  0
C  C239  1  0.53399844  0.70806471  0.35755501  1  -0.059202  0  -0.091801  -0.146096  0  3.982158  0
C  C240  1  0.60674448  0.71113784  0.41785138  1  -0.07609  0  -0.085338  -0.095599  0  4.001802  0
C  C241  1  0.49962217  0.75085849  0.26736296  1  0.057325  0  -0.032011  -0.179559  0  4.024533  0
C  C242  1  0.39164658  0.76778048  0.26464348  1  0.465249  0  0.103  0.227146  0  4.000821  0
C  C243  1  0.51921302  0.73643366  0.20067196  1  0.397513  0  0.110194  0.223334  0  3.967255  0
C  C244  1  0.33064027  0.78907485  0.32170291  1  -0.033501  0  -0.235056  -0.4257  0  3.952348  0
C  C245  1  0.61789083  0.71551610  0.17213892  1  -0.054092  0  -0.233059  -0.430707  0  3.959843  0
C  C246  1  0.49208834  0.28017219  0.26466717  1  1.567153  0  0.205622  0.568657  0  4.227478  0
C  C247  1  0.44356461  0.21384907  0.26950563  1  -0.106935  0  -0.026509  -0.050474  0  3.992795  0
C  C248  1  0.32777969  0.19589063  0.27318036  1  0.020624  0  -0.086399  -0.086154  0  3.988391  0
C  C249  1  0.27837197  0.13057310  0.27019508  1  -0.04529  0  -0.09291  -0.144409  0  3.977014  0
C  C250  1  0.34317991  0.08104977  0.26282400  1  -0.034646  0  -0.004022  0.111777  0  4.033917  0
C  C251  1  0.46098096  0.10053322  0.26182078  1  -0.04611  0  -0.095954  -0.152811  0  3.976343  0
C  C252  1  0.51039981  0.16618802  0.26532411  1  -0.039126  0  -0.087503  -0.092075  0  3.992352  0
C  C253  1  0.28777429  0.00973168  0.25391386  1  0.028784  0  -0.034007  -0.182684  0  4.018979  0
C  C254  1  0.22274847  0.99448809  0.29607204  1  0.43948  0  0.108907  0.217903  0  3.977858  0
C  C255  1  0.28492893  0.94108392  0.19838417  1  0.478315  0  0.103002  0.224401  0  4.001442  0
C  C256  1  0.19577475  0.04396944  0.36217439  1  -0.057184  0  -0.232384  -0.435375  0  3.958115  0
C  C257  1  0.33237045  0.92269739  0.13528978  1  -0.045837  0  -0.233394  -0.427555  0  3.95171  0
C  C258  1  0.24678493  0.67042729  0.42260151  1  -0.070224  0  -0.003375  0.110173  0  4.036163  0
C  C259  1  0.28213816  0.48166406  0.24653904  1  1.55489  0  0.209091  0.570488  0  4.230316  0
C  C260  1  0.26900409  0.54725429  0.30729330  1  -0.028214  0  -0.02359  -0.053163  0  3.997313  0
C  C261  1  0.33839902  0.57432760  0.37919664  1  -0.078193  0  -0.082383  -0.08454  0  3.990497  0
C  C262  1  0.32842445  0.63573921  0.43607605  1  -0.023242  0  -0.089735  -0.142438  0  3.982689  0
C  C263  1  0.17632072  0.64248327  0.35051505  1  0.017184  0  -0.093473  -0.148427  0  3.982223  0
C  C264  1  0.18862998  0.58212763  0.29329222  1  -0.12191  0  -0.085557  -0.095462  0  4.000044  0
C  C265  1  0.23230047  0.73269863  0.48349677  1  0.003393  0  -0.03318  -0.180721  0  4.028331  0
C  C266  1  0.12704408  0.73541522  0.50317227  1  0.45619  0  0.10329  0.225914  0  4.002471  0
C  C267  1  0.31853966  0.79937525  0.53577595  1  0.438363  0  0.108883  0.220972  0  3.966314  0
C  C268  1  0.00898813  0.67838389  0.46746330  1  -0.037226  0  -0.234273  -0.424662  0  3.951093  0
C  C269  1  0.44573143  0.82788871  0.54335931  1  -0.074893  0  -0.230793  -0.425564  0  3.956521  0
C  C270  1  0.22748682  0.73520152  0.01552221  1  1.554691  0  0.209398  0.577061  0  4.219448  0
C  C271  1  0.17407834  0.73032845  0.94433630  1  -0.064871  0  -0.026374  -0.054337  0  3.995738  0
C  C272  1  0.05464059  0.72669213  0.92279052  1  -0.022178  0  -0.086783  -0.083476  0  3.987026  0
C  C273  1  0.00809949  0.72966106  0.86045456  1  0.003713  0  -0.092486  -0.144046  0  3.97657  0
C  C274  1  0.08018907  0.73699106  0.81820440  1  -0.018522  0  -0.003743  0.109671  0  4.036167  0
C  C275  1  0.19895476  0.73795695  0.83860649  1  -0.071539  0  -0.094576  -0.148897  0  3.974753  0
C  C276  1  0.24497855  0.73447966  0.90076368  1  -0.022866  0  -0.087122  -0.091518  0  3.995266  0
C  C277  1  0.03366865  0.74597171  0.75583473  1  0.052015  0  -0.033258  -0.181337  0  4.020069  0
C  C278  1  0.92649457  0.70390875  0.69845614  1  0.392597  0  0.109054  0.219456  0  3.976639  0
C  C279  1  0.08645671  0.80150798  0.74273739  1  0.411565  0  0.102618  0.222844  0  4.001726  0
C  C280  1  0.83339439  0.63778840  0.68175716  1  -0.035188  0  -0.232618  -0.436177  0  3.957111  0
C  C281  1  0.19703471  0.86454043  0.78734642  1  -0.017329  0  -0.232847  -0.426226  0  3.94918  0
N  N282  1  0.41531061  0.56366123  0.76383175  1  -0.777488  0  -0.270239  -0.253077  0  3.540236  0
N  N283  1  0.31859704  0.58220199  0.74438144  1  -0.844093  0  -0.277777  -0.141522  0  3.66909  0
N  N284  1  0.73530694  0.65532263  0.92143702  1  -0.829072  0  -0.277168  -0.142596  0  3.662294  0
N  N285  1  0.66607579  0.68161948  0.88844325  1  -0.795096  0  -0.273102  -0.262305  0  3.543829  0
N  N286  1  0.65096791  0.23624610  0.79975881  1  -0.778955  0  -0.271542  -0.255974  0  3.538103  0
N  N287  1  0.57373122  0.25565108  0.83780751  1  -0.877914  0  -0.276185  -0.139667  0  3.666298  0
N  N288  1  0.81382855  0.07862570  0.73391093  1  -0.878763  0  -0.27835  -0.14607  0  3.664512  0
N  N289  1  0.77759657  0.11167403  0.79321295  1  -0.789572  0  -0.271687  -0.260121  0  3.539512  0
N  N290  1  0.85120681  0.20021027  0.43645034  1  -0.774407  0  -0.26925  -0.250592  0  3.535243  0
N  N291  1  0.73594745  0.16216976  0.41782916  1  -0.845096  0  -0.277583  -0.141193  0  3.667443  0
N  N292  1  0.08001171  0.26605214  0.34462719  1  -0.847183  0  -0.277053  -0.144406  0  3.664138  0
N  N293  1  0.98443167  0.20680887  0.31838507  1  -0.799634  0  -0.272869  -0.261187  0  3.542626  0
N  N294  1  0.58468861  0.43633744  0.23616820  1  -0.777366  0  -0.270275  -0.253172  0  3.540299  0
N  N295  1  0.68140554  0.41779832  0.25561959  1  -0.844097  0  -0.277756  -0.141422  0  3.669203  0
N  N296  1  0.26469399  0.34467440  0.07856470  1  -0.828916  0  -0.277099  -0.142338  0  3.662211  0
N  N297  1  0.33392372  0.31837809  0.11155949  1  -0.79537  0  -0.273095  -0.262403  0  3.543912  0
N  N298  1  0.34902905  0.76375311  0.20023884  1  -0.778823  0  -0.27146  -0.255834  0  3.537981  0
N  N299  1  0.42626634  0.74434596  0.16219061  1  -0.877858  0  -0.276279  -0.139856  0  3.666198  0
N  N300  1  0.18617156  0.92137133  0.26608561  1  -0.878801  0  -0.27842  -0.146158  0  3.664694  0
N  N301  1  0.22240212  0.88832355  0.20678275  1  -0.789499  0  -0.271614  -0.260044  0  3.539526  0
N  N302  1  0.14879492  0.79979003  0.56355153  1  -0.773961  0  -0.269271  -0.250608  0  3.535469  0
N  N303  1  0.26405259  0.83783054  0.58217254  1  -0.845618  0  -0.27764  -0.141352  0  3.667481  0
N  N304  1  0.91998293  0.73395089  0.65537192  1  -0.84709  0  -0.277026  -0.144502  0  3.664116  0
N  N305  1  0.01556186  0.79319362  0.68161460  1  -0.799657  0  -0.272823  -0.261001  0  3.542499  0
O  O306  1  0.92209400  0.26861339  0.81910914  1  -1.190272  0  -0.337093  -0.559253  0  2.404611  0
O  O307  1  0.94819824  0.18142244  0.71821429  1  -1.17849  0  -0.323786  -0.547203  0  2.150244  0
O  O308  1  0.89799552  0.05425337  0.31640040  1  -1.186926  0  -0.338161  -0.559233  0  2.370518  0
O  O309  1  0.69923865  0.03468481  0.29515482  1  -1.187904  0  -0.321358  -0.559086  0  2.174277  0
O  O310  1  0.10302820  0.18080707  0.44924509  1  -1.192982  0  -0.33551  -0.557954  0  2.404373  0
O  O311  1  0.22967381  0.28198455  0.46324761  1  -1.174155  0  -0.324131  -0.547227  0  2.149989  0
O  O312  1  0.58168049  0.68368074  0.73781848  1  -1.186195  0  -0.337066  -0.556555  0  2.372224  0
O  O313  1  0.40406443  0.70481520  0.73936620  1  -1.194619  0  -0.319638  -0.555291  0  2.177319  0
O  O314  1  0.65384246  0.55071795  0.73154954  1  -1.185028  0  -0.335031  -0.555635  0  2.403408  0
O  O315  1  0.76671705  0.53681442  0.81872445  1  -1.174719  0  -0.324836  -0.547909  0  2.150085  0
O  O316  1  0.84369488  0.26220850  0.94574864  1  -1.185871  0  -0.339322  -0.560945  0  2.370732  0
O  O317  1  0.66463471  0.26080646  0.96548081  1  -1.193817  0  -0.321266  -0.558723  0  2.174313  0
O  O318  1  0.07790800  0.73138746  0.18089301  1  -1.190409  0  -0.337115  -0.559213  0  2.404742  0
O  O319  1  0.05180433  0.81857787  0.28178721  1  -1.178517  0  -0.32382  -0.547206  0  2.150311  0
O  O320  1  0.10200538  0.94574693  0.68359536  1  -1.186662  0  -0.338124  -0.55922  0  2.37006  0
O  O321  1  0.30076072  0.96532258  0.70484395  1  -1.188236  0  -0.321137  -0.558896  0  2.175115  0
O  O322  1  0.89697544  0.81919705  0.55075359  1  -1.192974  0  -0.3356  -0.557969  0  2.404248  0
O  O323  1  0.77033065  0.71802120  0.53675328  1  -1.174604  0  -0.324017  -0.547091  0  2.150124  0
O  O324  1  0.41832373  0.31632120  0.26218671  1  -1.186159  0  -0.337092  -0.556545  0  2.372291  0
O  O325  1  0.59593871  0.29518455  0.26063465  1  -1.19461  0  -0.319716  -0.555397  0  2.177181  0
O  O326  1  0.34615392  0.44928181  0.26845061  1  -1.185283  0  -0.335065  -0.555677  0  2.403525  0
O  O327  1  0.23327628  0.46318262  0.18127508  1  -1.174664  0  -0.324861  -0.547864  0  2.150178  0
O  O328  1  0.15630555  0.73778581  0.05424717  1  -1.185889  0  -0.339275  -0.560781  0  2.370763  0
O  O329  1  0.33536572  0.73918785  0.03451454  1  -1.193831  0  -0.3213  -0.558697  0  2.174194  0
