# generated using pymatgen
data_Zn2H39C37(NO)11
_symmetry_space_group_name_H-M   'P 1'
_cell_length_a   10.80783438
_cell_length_b   15.94175665
_cell_length_c   17.02836784
_cell_angle_alpha   87.93283967
_cell_angle_beta   89.53251823
_cell_angle_gamma   87.20287310
_symmetry_Int_Tables_number   1
_chemical_formula_structural   Zn2H39C37(NO)11
_chemical_formula_sum   'Zn2 H39 C37 N11 O11'
_cell_volume   2928.45466738
_cell_formula_units_Z   1
loop_
 _symmetry_equiv_pos_site_id
 _symmetry_equiv_pos_as_xyz
  1  'x, y, z'
loop_
 _atom_site_type_symbol
 _atom_site_label
 _atom_site_symmetry_multiplicity
 _atom_site_fract_x
 _atom_site_fract_y
 _atom_site_fract_z
 _atom_site_occupancy
 _atom_site_pbe_bader_charge
 _atom_site_pbe_bader_spin_density
 _atom_site_pbe_cm5_charge
 _atom_site_pbe_ddec_charge
 _atom_site_pbe_ddec_spin_density
 _atom_site_pbe_ddec_sum_bond_order
 _atom_site_pbe_magmom
Zn  Zn0  1  0.49134092  0.58911508  0.49785214  1  1.276687  0  0.674141  0.82137  0  2.432493  0
Zn  Zn1  1  0.50712979  0.41270526  0.49880883  1  1.278984  0  0.669318  0.828963  0  2.386176  0
H  H2  1  0.90519104  0.57988955  0.60266871  1  0.026886  0  0.092356  0.089171  0  1.01587  0
H  H3  1  0.09334437  0.41282017  0.41681794  1  -0.007078  0  0.107996  0.058877  0  0.954436  0
H  H4  1  0.91021846  0.37324434  0.51009655  1  0.050385  0  0.096467  0.039027  0  0.97625  0
H  H5  1  0.11624528  0.37074924  0.55093476  1  0.034619  0  0.090562  0.095508  0  1.000959  0
H  H6  1  0.39292723  0.61135481  0.74156864  1  0.069349  0  0.104641  0.107792  0  1.007936  0
H  H7  1  0.35456557  0.60213304  0.88798723  1  0.099483  0  0.104202  0.104854  0  1.017993  0
H  H8  1  0.44378333  0.65042729  0.10176421  1  0.085441  0  0.106171  0.109756  0  0.993627  0
H  H9  1  0.49188356  0.64360512  0.24710778  1  0.08919  0  0.102097  0.11013  0  1.00182  0
H  H10  1  0.54680538  0.35827834  0.74835976  1  0.094926  0  0.107161  0.114292  0  0.991972  0
H  H11  1  0.50978595  0.34881197  0.89520625  1  0.114741  0  0.106366  0.107453  0  0.998401  0
H  H12  1  0.87952630  0.64256281  0.51670143  1  0.050621  0  0.089493  0.098434  0  1.008196  0
H  H13  1  0.38483732  0.38790446  0.26065003  1  0.09618  0  0.109176  0.128779  0  0.999392  0
H  H14  1  0.65097417  0.72132589  0.44744155  1  0.112304  0  0.127473  0.111535  0  0.986715  0
H  H15  1  0.67566092  0.12149025  0.40519575  1  0.082921  0  0.110393  0.128966  0  0.995858  0
H  H16  1  0.29908522  0.71963535  0.54656176  1  0.173908  0  0.124297  0.111747  0  1.015122  0
H  H17  1  0.28583519  0.87906439  0.54935923  1  0.097508  0  0.12019  0.130212  0  0.979966  0
H  H18  1  0.39116196  0.27609681  0.57953248  1  0.143004  0  0.131865  0.123147  0  0.972642  0
H  H19  1  0.08482913  0.62996337  0.47475758  1  0.049145  0  0.104995  0.050638  0  0.983165  0
H  H20  1  0.08381127  0.44375151  0.62343023  1  0.014246  0  0.093137  0.09724  0  1.004784  0
H  H21  1  0.89327528  0.44665321  0.39004156  1  0.000656  0  0.087115  0.02183  0  0.989554  0
H  H22  1  0.45834799  0.30907458  0.06730692  1  0.034896  0  0.090419  0.080167  0  1.023006  0
H  H23  1  0.31431390  0.26036098  0.08748926  1  0.050343  0  0.106273  0.112911  0  0.971087  0
H  H24  1  0.41344857  0.28294199  0.16720345  1  0.065252  0  0.09152  0.085878  0  1.003179  0
H  H25  1  0.67102710  0.95065334  0.44102436  1  0.501394  0  0.298394  0.274404  0  1.055088  0
H  H26  1  0.74742841  0.85245400  0.41769580  1  0.460836  0  0.327913  0.323098  0  0.909356  0
H  H27  1  0.70925432  0.34881734  0.42091869  1  0.541328  0  0.301217  0.323109  0  1.000161  0
H  H28  1  0.76017326  0.25748599  0.37403298  1  0.443001  0  0.319074  0.314793  0  0.925482  0
H  H29  1  0.19186675  0.07639416  0.61337833  1  0.070533  0  0.108647  0.118578  0  0.965984  0
H  H30  1  0.24701527  0.05981714  0.51496288  1  0.043512  0  0.085813  0.070989  0  1.050593  0
H  H31  1  0.19807467  0.16420874  0.54463623  1  0.029104  0  0.094678  0.093286  0  0.991492  0
H  H32  1  0.11205529  0.54476132  0.68332777  1  0.03458  0  0.090214  0.085414  0  1.022101  0
H  H33  1  0.01040971  0.63716613  0.68485479  1  0.00537  0  0.08616  0.076686  0  1.009991  0
H  H34  1  0.17237994  0.64388574  0.70135781  1  0.054398  0  0.099955  0.102712  0  0.993481  0
H  H35  1  0.87664404  0.45347366  0.66149940  1  0.362711  0  0.274063  0.258966  0  0.990191  0
H  H36  1  0.77082625  0.40353905  0.61503367  1  0.389016  0  0.272409  0.275805  0  0.997435  0
H  H37  1  0.81579492  0.58518908  0.35734098  1  0.378465  0  0.277636  0.268075  0  0.975434  0
H  H38  1  0.95596072  0.57488322  0.31821213  1  0.432964  0  0.274894  0.262803  0  1.004788  0
H  H39  1  0.22488750  0.48847698  0.34594908  1  0.407661  0  0.278727  0.271014  0  0.996265  0
H  H40  1  0.16039180  0.58012343  0.36511406  1  0.408878  0  0.286068  0.276776  0  0.964703  0
C  C41  1  0.47996597  0.50800038  0.34640389  1  1.566767  0  0.206553  0.579645  0  4.18644  0
C  C42  1  0.12182181  0.49999637  0.50763379  1  0.019296  0  -0.023622  -0.098912  0  3.763656  0
C  C43  1  0.06746927  0.43138878  0.56146369  1  -0.029551  0  -0.163509  -0.235226  0  3.884648  0
C  C44  1  0.07757469  0.48117094  0.42163813  1  0.404016  0  0.014549  0.121338  0  3.775635  0
C  C45  1  0.44706953  0.51400398  0.26094623  1  0.019143  0  -0.017512  -0.010563  0  3.977599  0
C  C46  1  0.39990130  0.44468429  0.22493907  1  -0.07803  0  -0.095021  -0.209611  0  3.966979  0
C  C47  1  0.37194935  0.44797013  0.14515487  1  0.532408  0  0.091159  0.198948  0  4.013786  0
C  C48  1  0.39542145  0.52194317  0.09977891  1  0.384654  0  0.086507  0.079779  0  4.032838  0
C  C49  1  0.43213321  0.59339490  0.13784051  1  -0.096082  0  -0.084929  -0.135373  0  3.99344  0
C  C50  1  0.45958321  0.58948700  0.21741373  1  0.026994  0  -0.093709  -0.104442  0  4.001686  0
C  C51  1  0.39597622  0.54929521  0.85663373  1  -0.062645  0  -0.085558  -0.144653  0  3.960982  0
C  C52  1  0.73999816  0.51044117  0.49597749  1  1.515189  0  0.222036  0.598568  0  4.106588  0
C  C53  1  0.41741065  0.55432684  0.77630646  1  0.006088  0  -0.081404  -0.083108  0  3.981925  0
C  C54  1  0.43111064  0.47482460  0.89938096  1  0.311122  0  0.086405  0.169767  0  4.041259  0
C  C55  1  0.47274698  0.48569179  0.73720379  1  -0.058905  0  -0.013526  -0.024029  0  3.94699  0
C  C56  1  0.50476541  0.41098168  0.77964098  1  0.040878  0  -0.083349  -0.085833  0  3.97558  0
C  C57  1  0.48388660  0.40558224  0.86034690  1  -0.097829  0  -0.08111  -0.141548  0  3.965075  0
C  C58  1  0.45213596  0.23986367  0.54059577  1  0.521099  0  0.043848  0.003651  0  3.951814  0
C  C59  1  0.44373911  0.15334105  0.53933596  1  0.527024  0  0.073745  0.112733  0  4.044952  0
C  C60  1  0.52606812  0.10925326  0.48746330  1  0.359551  0  0.095919  0.126409  0  4.071783  0
C  C61  1  0.61030805  0.15517841  0.44328782  1  -0.000651  0  -0.095929  -0.308894  0  3.925187  0
C  C62  1  0.61263121  0.24307352  0.44791374  1  1.027866  0  0.229647  0.457832  0  4.088157  0
C  C63  1  0.49534561  0.49285458  0.65038713  1  1.587071  0  0.211924  0.583984  0  4.178869  0
C  C64  1  0.57365358  0.84770388  0.46726917  1  0.516103  0  0.126329  0.227031  0  4.053866  0
C  C65  1  0.57122818  0.75902783  0.46865124  1  0.554142  0  0.051314  -0.01645  0  3.875535  0
C  C66  1  0.46634611  0.89227555  0.49766662  1  0.434677  0  0.094882  0.075989  0  4.013616  0
C  C67  1  0.37353813  0.75848586  0.52507311  1  0.410528  0  0.031772  0.04946  0  3.937928  0
C  C68  1  0.36718467  0.84515766  0.52598818  1  -0.003604  0  -0.071938  -0.16787  0  3.978277  0
C  C69  1  0.26240619  0.49660914  0.50614868  1  1.554181  0  0.217078  0.598252  0  4.116757  0
C  C70  1  0.92792507  0.58506184  0.53962808  1  -0.030269  0  -0.172378  -0.243562  0  3.912897  0
C  C71  1  0.06789777  0.58908864  0.52661074  1  0.455353  0  0.001907  0.15448  0  3.804419  0
C  C72  1  0.92685817  0.42617364  0.54792719  1  0.336005  0  0.001372  0.167659  0  3.85836  0
C  C73  1  0.93461855  0.50128938  0.41637107  1  0.310405  0  0.006184  0.120965  0  3.8248  0
C  C74  1  0.88048228  0.50770322  0.50062978  1  0.052192  0  -0.021107  -0.091592  0  3.786688  0
C  C75  1  0.37983616  0.30464516  0.10867033  1  0.396059  0  -0.138155  -0.164522  0  3.947593  0
C  C76  1  0.24328562  0.10347721  0.56364706  1  0.403518  0  -0.139766  -0.170983  0  3.942374  0
C  C77  1  0.10344932  0.61237587  0.66749140  1  0.426387  0  -0.148749  -0.165938  0  3.989946  0
N  N78  1  0.39049724  0.53062124  0.01732663  1  -0.524144  0  -0.14784  -0.120705  0  3.290696  0
N  N79  1  0.42421586  0.46447440  0.98211749  1  -0.421246  0  -0.142567  -0.127659  0  3.271929  0
N  N80  1  0.53131090  0.28429800  0.49604676  1  -1.264604  0  -0.334054  -0.29607  0  3.457209  0
N  N81  1  0.54015768  0.02192720  0.47928842  1  -0.539244  0  -0.150839  -0.132622  0  3.317805  0
N  N82  1  0.44906501  0.97891698  0.50267943  1  -0.536328  0  -0.137469  -0.088022  0  3.286214  0
N  N83  1  0.47605934  0.71717113  0.49643794  1  -1.227707  0  -0.316215  -0.162726  0  3.575413  0
N  N84  1  0.67359268  0.88658723  0.43848839  1  -1.262742  0  -0.560762  -0.561454  0  3.38677  0
N  N85  1  0.69361354  0.28859355  0.40504146  1  -1.276938  0  -0.580355  -0.633313  0  3.303252  0
N  N86  1  0.86416230  0.40772404  0.62226181  1  -1.092148  0  -0.651469  -0.658323  0  3.182897  0
N  N87  1  0.90805651  0.57921787  0.37009357  1  -1.124963  0  -0.641319  -0.642905  0  3.205546  0
N  N88  1  0.14144265  0.51936499  0.35487492  1  -1.129329  0  -0.641094  -0.640868  0  3.213104  0
O  O89  1  0.52021690  0.57299222  0.37704215  1  -1.173674  0  -0.325375  -0.558994  0  2.299101  0
O  O90  1  0.46342258  0.43767711  0.38236930  1  -1.174143  0  -0.322703  -0.554857  0  2.332829  0
O  O91  1  0.67957049  0.57737248  0.51335106  1  -1.169452  0  -0.305374  -0.52442  0  2.34242  0
O  O92  1  0.69053040  0.44354838  0.47457276  1  -1.199971  0  -0.316546  -0.577803  0  2.400468  0
O  O93  1  0.46529848  0.56310057  0.61634960  1  -1.165424  0  -0.311756  -0.534664  0  2.321913  0
O  O94  1  0.54196314  0.42804523  0.61666414  1  -1.176707  0  -0.322942  -0.562959  0  2.317881  0
O  O95  1  0.31230759  0.56313253  0.48085492  1  -1.170825  0  -0.31595  -0.558328  0  2.412156  0
O  O96  1  0.32063710  0.42761021  0.52568268  1  -1.167422  0  -0.318177  -0.54595  0  2.306197  0
O  O97  1  0.31294680  0.38425817  0.11120944  1  -1.077271  0  -0.209161  -0.189776  0  2.55877  0
O  O98  1  0.36588025  0.11529050  0.59212372  1  -1.068484  0  -0.211575  -0.189125  0  2.562022  0
O  O99  1  0.13126953  0.63118499  0.58711507  1  -1.046735  0  -0.241998  -0.227026  0  2.48808  0
