# generated using pymatgen
data_NdH6C6(NO4)2
_symmetry_space_group_name_H-M   'P 1'
_cell_length_a   8.19163671
_cell_length_b   8.35152845
_cell_length_c   17.47662269
_cell_angle_alpha   89.99982709
_cell_angle_beta   90.00022382
_cell_angle_gamma   110.30940707
_symmetry_Int_Tables_number   1
_chemical_formula_structural   NdH6C6(NO4)2
_chemical_formula_sum   'Nd4 H24 C24 N8 O32'
_cell_volume   1121.29319759
_cell_formula_units_Z   4
loop_
 _symmetry_equiv_pos_site_id
 _symmetry_equiv_pos_as_xyz
  1  'x, y, z'
loop_
 _atom_site_type_symbol
 _atom_site_label
 _atom_site_symmetry_multiplicity
 _atom_site_fract_x
 _atom_site_fract_y
 _atom_site_fract_z
 _atom_site_occupancy
 _atom_site_hle17_bader_spin_density
 _atom_site_hle17_ddec_charge
 _atom_site_hle17_ddec_spin_density
 _atom_site_hle17_ddec_sum_bond_order
 _atom_site_hle17_magmom
 _atom_site_hse06_10hf_bader_spin_density
 _atom_site_hse06_10hf_ddec_charge
 _atom_site_hse06_10hf_ddec_spin_density
 _atom_site_hse06_10hf_ddec_sum_bond_order
 _atom_site_hse06_10hf_magmom
 _atom_site_hse06_bader_spin_density
 _atom_site_hse06_ddec_charge
 _atom_site_hse06_ddec_spin_density
 _atom_site_hse06_ddec_sum_bond_order
 _atom_site_hse06_magmom
 _atom_site_pbe_bader_spin_density
 _atom_site_pbe_cm5_charge
 _atom_site_pbe_ddec_charge
 _atom_site_pbe_ddec_spin_density
 _atom_site_pbe_ddec_sum_bond_order
 _atom_site_pbe_magmom
Nd  Nd0  1  0.25808277  0.28334401  0.52006676  1  0  2.324433  0  1.650619  0  0  2.214651  0  2.023875  0  0  2.255857  0  1.979262  0  0  1.496222  2.131011  0  2.155521  0
Nd  Nd1  1  0.24191851  0.71665643  0.02006651  1  0  2.324449  0  1.650585  0  0  2.214669  0  2.023842  0  0  2.255877  0  1.979227  0  0  1.496224  2.13104  0  2.155474  0
Nd  Nd2  1  0.74192125  0.71665423  0.47993328  1  0  2.324413  0  1.650629  0  0  2.214629  0  2.023889  0  0  2.255834  0  1.979276  0  0  1.496207  2.130974  0  2.155568  0
Nd  Nd3  1  0.75807709  0.28334562  0.97993353  1  0  2.324449  0  1.6506  0  0  2.21467  0  2.023855  0  0  2.255879  0  1.979239  0  0  1.49622  2.131031  0  2.155509  0
H  H4  1  0.39154105  0.99741940  0.53176829  1  0  0.433229  0  0.831491  0  0  0.407064  0  0.90137  0  0  0.416004  0  0.890416  0  0  0.320574  0.400621  0  0.908192  0
H  H5  1  0.10846032  0.00258099  0.03176882  1  0  0.433236  0  0.831492  0  0  0.407068  0  0.901377  0  0  0.416008  0  0.890415  0  0  0.320561  0.400625  0  0.908199  0
H  H6  1  0.60846542  0.00257885  0.46822946  1  0  0.433246  0  0.831466  0  0  0.40708  0  0.901347  0  0  0.416019  0  0.890395  0  0  0.320568  0.400637  0  0.908168  0
H  H7  1  0.89153573  0.99742233  0.96822950  1  0  0.433247  0  0.831458  0  0  0.407083  0  0.901335  0  0  0.416023  0  0.890387  0  0  0.320567  0.400641  0  0.908156  0
H  H8  1  0.22315557  0.89633953  0.48142267  1  0  0.450638  0  0.839957  0  0  0.420005  0  0.901193  0  0  0.431317  0  0.884711  0  0  0.310524  0.411773  0  0.913023  0
H  H9  1  0.27684494  0.10366162  0.98142264  1  0  0.450659  0  0.83993  0  0  0.420029  0  0.901161  0  0  0.431341  0  0.884679  0  0  0.310534  0.411797  0  0.912989  0
H  H10  1  0.77684523  0.10365998  0.51857680  1  0  0.450644  0  0.839949  0  0  0.420015  0  0.901179  0  0  0.431326  0  0.884698  0  0  0.310526  0.411782  0  0.91301  0
H  H11  1  0.72315509  0.89633916  0.01857740  1  0  0.450644  0  0.839945  0  0  0.420015  0  0.901175  0  0  0.431327  0  0.884693  0  0  0.310533  0.411784  0  0.913003  0
H  H12  1  0.50025575  0.21460837  0.65417990  1  0  0.456084  0  0.795341  0  0  0.434537  0  0.849029  0  0  0.443384  0  0.835973  0  0  0.334333  0.42785  0  0.858787  0
H  H13  1  0.99974398  0.78539278  0.15418002  1  0  0.456084  0  0.795366  0  0  0.434534  0  0.84904  0  0  0.44338  0  0.835984  0  0  0.334326  0.427847  0  0.858798  0
H  H14  1  0.49974962  0.78539370  0.34582014  1  0  0.45608  0  0.795395  0  0  0.434533  0  0.849044  0  0  0.443379  0  0.835988  0  0  0.334345  0.427845  0  0.858802  0
H  H15  1  0.00025072  0.21460671  0.84582059  1  0  0.456071  0  0.795391  0  0  0.434523  0  0.849055  0  0  0.44337  0  0.836  0  0  0.334342  0.427837  0  0.858811  0
H  H16  1  0.62322526  0.32261952  0.58681108  1  0  0.444846  0  0.849421  0  0  0.414021  0  0.911454  0  0  0.425858  0  0.894025  0  0  0.30417  0.405435  0  0.923924  0
H  H17  1  0.87677555  0.67737935  0.08681113  1  0  0.444836  0  0.849441  0  0  0.414006  0  0.911479  0  0  0.425843  0  0.89405  0  0  0.304172  0.405421  0  0.923947  0
H  H18  1  0.37677799  0.67737999  0.41319067  1  0  0.44488  0  0.84938  0  0  0.414046  0  0.911423  0  0  0.425884  0  0.893994  0  0  0.30419  0.40546  0  0.923894  0
H  H19  1  0.12321993  0.32261887  0.91319005  1  0  0.444887  0  0.849352  0  0  0.41406  0  0.911386  0  0  0.425896  0  0.893958  0  0  0.304206  0.405475  0  0.923854  0
H  H20  1  0.30700601  0.61877503  0.78796844  1  0  0.14708  0  0.92734  0  0  0.158316  0  0.981964  0  0  0.162282  0  0.97957  0  0  0.124078  0.155386  0  0.984016  0
H  H21  1  0.19299180  0.38122306  0.28796858  1  0  0.147031  0  0.927362  0  0  0.158289  0  0.981964  0  0  0.162239  0  0.979589  0  0  0.124064  0.155355  0  0.984022  0
H  H22  1  0.69299357  0.38122448  0.21203217  1  0  0.147056  0  0.927337  0  0  0.158295  0  0.981958  0  0  0.162261  0  0.979565  0  0  0.124065  0.155365  0  0.984011  0
H  H23  1  0.80701023  0.61877645  0.71203088  1  0  0.147069  0  0.927375  0  0  0.158319  0  0.981986  0  0  0.162274  0  0.979602  0  0  0.124076  0.155393  0  0.984033  0
H  H24  1  0.61470594  0.93455990  0.61465869  1  0  0.295992  0  0.914169  0  0  0.275804  0  0.977809  0  0  0.283665  0  0.971369  0  0  0.328297  0.270371  0  0.982084  0
H  H25  1  0.88529917  0.06544014  0.11465621  1  0  0.296052  0  0.914165  0  0  0.275874  0  0.977777  0  0  0.283729  0  0.971337  0  0  0.328322  0.27044  0  0.982052  0
H  H26  1  0.38529487  0.06543961  0.38534249  1  0  0.296057  0  0.914187  0  0  0.275877  0  0.977807  0  0  0.283738  0  0.971365  0  0  0.32832  0.270444  0  0.982081  0
H  H27  1  0.11470086  0.93456064  0.88534269  1  0  0.296069  0  0.914164  0  0  0.275889  0  0.977771  0  0  0.283748  0  0.971329  0  0  0.328333  0.270455  0  0.982046  0
C  C28  1  0.92673079  0.42863483  0.52117503  1  0  0.583659  0  3.883271  0  0  0.535286  0  4.186601  0  0  0.565454  0  4.177251  0  0  0.235452  0.515089  0  4.187634  0
C  C29  1  0.57326621  0.57136174  0.02117583  1  0  0.583545  0  3.883344  0  0  0.535248  0  4.186584  0  0  0.565408  0  4.177242  0  0  0.235448  0.515051  0  4.187617  0
C  C30  1  0.07327079  0.57136341  0.47882558  1  0  0.583675  0  3.8832  0  0  0.535365  0  4.186451  0  0  0.565526  0  4.177109  0  0  0.235512  0.515167  0  4.187485  0
C  C31  1  0.42672515  0.42863519  0.97882478  1  0  0.58368  0  3.883207  0  0  0.535311  0  4.186528  0  0  0.56548  0  4.177177  0  0  0.235487  0.515113  0  4.187561  0
C  C32  1  0.38878585  0.59526491  0.62115827  1  0  0.663986  0  3.961177  0  0  0.620765  0  4.256165  0  0  0.655945  0  4.24395  0  0  0.214742  0.597079  0  4.258125  0
C  C33  1  0.11121614  0.40473513  0.12115880  1  0  0.664041  0  3.960924  0  0  0.620811  0  4.255919  0  0  0.655991  0  4.243705  0  0  0.214777  0.597125  0  4.257881  0
C  C34  1  0.61121541  0.40473588  0.37884177  1  0  0.664021  0  3.961134  0  0  0.620785  0  4.256138  0  0  0.655966  0  4.243921  0  0  0.214722  0.597099  0  4.258099  0
C  C35  1  0.88878100  0.59526437  0.87884123  1  0  0.664053  0  3.960966  0  0  0.620821  0  4.255978  0  0  0.656001  0  4.243762  0  0  0.214757  0.597135  0  4.257939  0
C  C36  1  0.44071093  0.72901574  0.67981143  1  0  0.033685  0  3.738099  0  0  0.0273  0  3.992904  0  0  0.024471  0  4.01224  0  0  0.087603  0.028653  0  3.980983  0
C  C37  1  0.05929224  0.27098279  0.17981092  1  0  0.03369  0  3.738095  0  0  0.027319  0  3.992884  0  0  0.024479  0  4.012217  0  0  0.087578  0.028674  0  3.98096  0
C  C38  1  0.55929033  0.27098505  0.32018918  1  0  0.03356  0  3.738198  0  0  0.027198  0  3.992988  0  0  0.024367  0  4.012325  0  0  0.087559  0.028551  0  3.981069  0
C  C39  1  0.94070857  0.72901672  0.82018855  1  0  0.033749  0  3.737961  0  0  0.027344  0  3.99279  0  0  0.02451  0  4.012125  0  0  0.087569  0.028697  0  3.980872  0
C  C40  1  0.39545552  0.72538848  0.75655391  1  0  -0.161832  0  3.664644  0  0  -0.204406  0  3.922887  0  0  -0.206341  0  3.942344  0  0  -0.085298  -0.203119  0  3.910673  0
C  C41  1  0.10454375  0.27461102  0.25655347  1  0  -0.16175  0  3.664668  0  0  -0.204344  0  3.922919  0  0  -0.206265  0  3.94239  0  0  -0.085254  -0.203061  0  3.910702  0
C  C42  1  0.60454407  0.27461103  0.24344727  1  0  -0.161736  0  3.664669  0  0  -0.204317  0  3.922908  0  0  -0.206251  0  3.942367  0  0  -0.085262  -0.203037  0  3.91069  0
C  C43  1  0.89545751  0.72538977  0.74344542  1  0  -0.161887  0  3.664744  0  0  -0.204453  0  3.923003  0  0  -0.206377  0  3.942462  0  0  -0.085301  -0.203178  0  3.910782  0
C  C44  1  0.49538453  0.88818548  0.78446774  1  0  0.013454  0  3.762564  0  0  0.019188  0  4.02677  0  0  0.014613  0  4.045616  0  0  0.083689  0.021609  0  4.015649  0
C  C45  1  0.00461660  0.11181518  0.28446736  1  0  0.013462  0  3.762583  0  0  0.019155  0  4.026815  0  0  0.01458  0  4.045663  0  0  0.083675  0.0216  0  4.015664  0
C  C46  1  0.50461672  0.11181531  0.21553230  1  0  0.013448  0  3.762586  0  0  0.019172  0  4.026788  0  0  0.014596  0  4.045634  0  0  0.083699  0.021616  0  4.015637  0
C  C47  1  0.99538343  0.88818560  0.71553211  1  0  0.01353  0  3.762616  0  0  0.019191  0  4.026842  0  0  0.014617  0  4.045687  0  0  0.083694  0.021638  0  4.015688  0
C  C48  1  0.50521313  0.94663813  0.86475153  1  0  0.734473  0  3.866432  0  0  0.689084  0  4.154536  0  0  0.725395  0  4.140382  0  0  0.245043  0.664009  0  4.160686  0
C  C49  1  0.99478885  0.05336091  0.36475155  1  0  0.734354  0  3.866544  0  0  0.689013  0  4.154587  0  0  0.725322  0  4.140435  0  0  0.245014  0.66393  0  4.160736  0
C  C50  1  0.49478646  0.05336137  0.13524908  1  0  0.734513  0  3.86644  0  0  0.689164  0  4.154473  0  0  0.725474  0  4.140318  0  0  0.245107  0.664082  0  4.160624  0
C  C51  1  0.00521363  0.94663988  0.63524792  1  0  0.734392  0  3.866571  0  0  0.689112  0  4.154523  0  0  0.725422  0  4.140369  0  0  0.245067  0.664029  0  4.160672  0
N  N52  1  0.55833339  0.88863919  0.66643584  1  0  -0.154349  0  3.514075  0  0  -0.097061  0  3.758551  0  0  -0.107755  0  3.776303  0  0  -0.260622  -0.089909  0  3.746965  0
N  N53  1  0.94167086  0.11136064  0.16643396  1  0  -0.154468  0  3.514223  0  0  -0.097191  0  3.758706  0  0  -0.107855  0  3.776418  0  0  -0.26069  -0.09004  0  3.747124  0
N  N54  1  0.44166741  0.11136032  0.33356534  1  0  -0.154444  0  3.514216  0  0  -0.097182  0  3.758722  0  0  -0.107876  0  3.77647  0  0  -0.260644  -0.090031  0  3.747141  0
N  N55  1  0.05833040  0.88864014  0.83356550  1  0  -0.154495  0  3.514177  0  0  -0.097192  0  3.75865  0  0  -0.107877  0  3.776386  0  0  -0.260666  -0.090042  0  3.747068  0
N  N56  1  0.59290980  0.98837801  0.72816111  1  0  -0.185893  0  2.85756  0  0  -0.193575  0  3.130011  0  0  -0.193302  0  3.141346  0  0  -0.213054  -0.193738  0  3.123126  0
N  N57  1  0.90709366  0.01162158  0.22815989  1  0  -0.185864  0  2.857547  0  0  -0.193534  0  3.130002  0  0  -0.193271  0  3.14133  0  0  -0.212996  -0.193704  0  3.123111  0
N  N58  1  0.40709145  0.01162278  0.27183950  1  0  -0.185833  0  2.857582  0  0  -0.193511  0  3.130042  0  0  -0.193238  0  3.141378  0  0  -0.213045  -0.19368  0  3.123151  0
N  N59  1  0.09290760  0.98837921  0.77184015  1  0  -0.185876  0  2.857545  0  0  -0.193547  0  3.129999  0  0  -0.193278  0  3.141332  0  0  -0.213038  -0.193718  0  3.123107  0
O  O60  1  0.32269516  0.00692555  0.48752869  1  0  -0.88942  0  1.912156  0  0  -0.842973  0  2.108588  0  0  -0.86105  0  2.078609  0  0  -0.603045  -0.824794  0  2.131224  0
O  O61  1  0.17730495  0.99307430  0.98752835  1  0  -0.889414  0  1.912069  0  0  -0.842983  0  2.10853  0  0  -0.861061  0  2.078546  0  0  -0.603032  -0.824804  0  2.131167  0
O  O62  1  0.67730642  0.99307268  0.51247134  1  0  -0.889413  0  1.91209  0  0  -0.842978  0  2.108549  0  0  -0.861056  0  2.078573  0  0  -0.60303  -0.824797  0  2.131187  0
O  O63  1  0.82269386  0.00692648  0.01247112  1  0  -0.889418  0  1.912091  0  0  -0.842978  0  2.108527  0  0  -0.861056  0  2.078558  0  0  -0.603026  -0.824799  0  2.131164  0
O  O64  1  0.50277207  0.24617299  0.60035998  1  0  -0.907707  0  1.830621  0  0  -0.864085  0  2.012797  0  0  -0.881421  0  1.980094  0  0  -0.618606  -0.845692  0  2.039692  0
O  O65  1  0.99722638  0.75382582  0.10036072  1  0  -0.907719  0  1.830653  0  0  -0.864078  0  2.012818  0  0  -0.881412  0  1.980113  0  0  -0.618596  -0.845689  0  2.039719  0
O  O66  1  0.49723041  0.75382780  0.39963948  1  0  -0.907757  0  1.830644  0  0  -0.864119  0  2.012801  0  0  -0.881453  0  1.980095  0  0  -0.61864  -0.845727  0  2.039707  0
O  O67  1  0.00276742  0.24617112  0.89963989  1  0  -0.907753  0  1.83063  0  0  -0.864119  0  2.012795  0  0  -0.881453  0  1.980092  0  0  -0.618649  -0.845731  0  2.039699  0
O  O68  1  0.94721730  0.28622698  0.52955091  1  0  -0.646467  0  2.079883  0  0  -0.596389  0  2.309819  0  0  -0.619744  0  2.299272  0  0  -0.332978  -0.574802  0  2.317336  0
O  O69  1  0.55278098  0.71376956  0.02955147  1  0  -0.646427  0  2.079886  0  0  -0.596368  0  2.30979  0  0  -0.619723  0  2.299248  0  0  -0.332978  -0.574783  0  2.317306  0
O  O70  1  0.05278428  0.71377125  0.47044970  1  0  -0.646496  0  2.079797  0  0  -0.596434  0  2.309711  0  0  -0.619786  0  2.299166  0  0  -0.333019  -0.574846  0  2.317228  0
O  O71  1  0.44721237  0.28622611  0.97044914  1  0  -0.646488  0  2.079849  0  0  -0.596408  0  2.30979  0  0  -0.619762  0  2.299238  0  0  -0.332982  -0.574823  0  2.317308  0
O  O72  1  0.79713391  0.46617702  0.54322205  1  0  -0.656862  0  2.098271  0  0  -0.604526  0  2.329047  0  0  -0.628762  0  2.319017  0  0  -0.334534  -0.582184  0  2.336182  0
O  O73  1  0.70286659  0.53382202  0.04322085  1  0  -0.656809  0  2.09828  0  0  -0.604508  0  2.329034  0  0  -0.628742  0  2.319006  0  0  -0.334554  -0.582168  0  2.336167  0
O  O74  1  0.20286812  0.53382249  0.45677799  1  0  -0.656879  0  2.098277  0  0  -0.60457  0  2.329029  0  0  -0.628804  0  2.319002  0  0  -0.33456  -0.582229  0  2.336163  0
O  O75  1  0.29712856  0.46617875  0.95677862  1  0  -0.656869  0  2.098224  0  0  -0.604559  0  2.329023  0  0  -0.628794  0  2.318993  0  0  -0.334603  -0.582221  0  2.336156  0
O  O76  1  0.48661918  0.60950488  0.56173268  1  0  -0.817044  0  2.080292  0  0  -0.773928  0  2.342767  0  0  -0.797493  0  2.328622  0  0  -0.427693  -0.745594  0  2.352068  0
O  O77  1  0.01338284  0.39049667  0.06173305  1  0  -0.817073  0  2.080242  0  0  -0.773952  0  2.342702  0  0  -0.797516  0  2.328558  0  0  -0.427675  -0.74562  0  2.352005  0
O  O78  1  0.51338375  0.39049719  0.43826736  1  0  -0.817046  0  2.080298  0  0  -0.773928  0  2.342776  0  0  -0.797491  0  2.328627  0  0  -0.42767  -0.745594  0  2.352078  0
O  O79  1  0.98661064  0.60950282  0.93826813  1  0  -0.817051  0  2.08025  0  0  -0.773933  0  2.342726  0  0  -0.797495  0  2.328578  0  0  -0.427639  -0.745602  0  2.352028  0
O  O80  1  0.25036439  0.46847270  0.63050501  1  0  -0.663161  0  1.943607  0  0  -0.622297  0  2.162834  0  0  -0.644344  0  2.152116  0  0  -0.36884  -0.601678  0  2.171018  0
O  O81  1  0.24964011  0.53152731  0.13050561  1  0  -0.663198  0  1.94345  0  0  -0.622334  0  2.162683  0  0  -0.644381  0  2.151963  0  0  -0.368884  -0.601716  0  2.170867  0
O  O82  1  0.74963687  0.53152809  0.36949503  1  0  -0.663156  0  1.943526  0  0  -0.622288  0  2.16276  0  0  -0.644336  0  2.152042  0  0  -0.368844  -0.601669  0  2.170946  0
O  O83  1  0.75036025  0.46847092  0.86949271  1  0  -0.663229  0  1.943504  0  0  -0.622363  0  2.162741  0  0  -0.644411  0  2.15202  0  0  -0.368891  -0.601745  0  2.170926  0
O  O84  1  0.39068649  0.85263659  0.91048000  1  0  -0.769775  0  2.066924  0  0  -0.731096  0  2.339007  0  0  -0.754891  0  2.323239  0  0  -0.427183  -0.705762  0  2.350238  0
O  O85  1  0.10931341  0.14736101  0.41048090  1  0  -0.769718  0  2.06692  0  0  -0.731065  0  2.339003  0  0  -0.754858  0  2.323235  0  0  -0.427196  -0.705728  0  2.350234  0
O  O86  1  0.60931265  0.14736164  0.08951946  1  0  -0.769836  0  2.066931  0  0  -0.731182  0  2.339015  0  0  -0.754977  0  2.323246  0  0  -0.427249  -0.705847  0  2.350253  0
O  O87  1  0.89068862  0.85263850  0.58951856  1  0  -0.769786  0  2.066974  0  0  -0.731162  0  2.339053  0  0  -0.754955  0  2.323282  0  0  -0.427218  -0.705821  0  2.350285  0
O  O88  1  0.62664342  0.08234328  0.88387838  1  0  -0.729035  0  2.038272  0  0  -0.685672  0  2.290541  0  0  -0.709129  0  2.274968  0  0  -0.412859  -0.661597  0  2.302532  0
O  O89  1  0.87335592  0.91765823  0.38387751  1  0  -0.728986  0  2.038304  0  0  -0.68563  0  2.290542  0  0  -0.709085  0  2.27497  0  0  -0.412843  -0.661553  0  2.302536  0
O  O90  1  0.37335539  0.91765750  0.11612166  1  0  -0.729031  0  2.038263  0  0  -0.685678  0  2.290511  0  0  -0.709134  0  2.274938  0  0  -0.412862  -0.661604  0  2.302504  0
O  O91  1  0.12664656  0.08234255  0.61612196  1  0  -0.728977  0  2.038334  0  0  -0.685638  0  2.290535  0  0  -0.709094  0  2.274965  0  0  -0.412846  -0.661563  0  2.302527  0
