# generated using pymatgen
data_MnH20C22(NO)4
_symmetry_space_group_name_H-M   'P 1'
_cell_length_a   11.91703545
_cell_length_b   11.91710644
_cell_length_c   16.43341228
_cell_angle_alpha   72.49213192
_cell_angle_beta   72.49151462
_cell_angle_gamma   78.03382100
_symmetry_Int_Tables_number   1
_chemical_formula_structural   MnH20C22(NO)4
_chemical_formula_sum   'Mn4 H80 C88 N16 O16'
_cell_volume   2105.00814936
_cell_formula_units_Z   4
loop_
 _symmetry_equiv_pos_site_id
 _symmetry_equiv_pos_as_xyz
  1  'x, y, z'
loop_
 _atom_site_type_symbol
 _atom_site_label
 _atom_site_symmetry_multiplicity
 _atom_site_fract_x
 _atom_site_fract_y
 _atom_site_fract_z
 _atom_site_occupancy
 _atom_site_pbe_bader_charge
 _atom_site_pbe_bader_spin_density
 _atom_site_pbe_cm5_charge
 _atom_site_pbe_ddec_charge
 _atom_site_pbe_ddec_spin_density
 _atom_site_pbe_ddec_sum_bond_order
 _atom_site_pbe_magmom
Mn  Mn0  1  0.32872880  0.10385419  0.54896200  1  1.505622  4.534403  0.611026  0.929049  4.666055  2.377155  4.454
Mn  Mn1  1  0.89613811  0.67127013  0.95103614  1  1.505557  4.534424  0.611025  0.929124  4.666089  2.377089  4.454
Mn  Mn2  1  0.67127081  0.89614657  0.45103413  1  1.505508  4.534422  0.610998  0.929028  4.666017  2.377139  4.454
Mn  Mn3  1  0.10385787  0.32872584  0.04896003  1  1.505523  4.534404  0.611079  0.929187  4.666068  2.377084  4.454
H  H4  1  0.97932582  0.65157442  0.74835328  1  0.122026  -4.4e-05  0.109094  0.120269  -0.000348  1.04273  0.0
H  H5  1  0.34842521  0.02067875  0.75164775  1  0.121787  -4.4e-05  0.109136  0.120333  -0.000349  1.042814  0.0
H  H6  1  0.02067651  0.34843038  0.25164439  1  0.1219  -4.4e-05  0.10911  0.120291  -0.000348  1.042754  0.0
H  H7  1  0.65157446  0.97932555  0.24835123  1  0.121847  -4.4e-05  0.109082  0.120283  -0.000349  1.042731  0.0
H  H8  1  0.93110942  0.66352050  0.53377236  1  0.4914  0.000411  0.300347  0.263141  -2.9e-05  1.000118  0.0
H  H9  1  0.33647418  0.06889010  0.96623047  1  0.491455  0.000411  0.300352  0.263131  -2.9e-05  1.000189  0.0
H  H10  1  0.06888750  0.33647713  0.46622689  1  0.491448  0.000411  0.300385  0.263152  -2.9e-05  1.000125  0.0
H  H11  1  0.66352369  0.93111095  0.03377206  1  0.491475  0.000411  0.300381  0.263144  -2.9e-05  1.000139  0.0
H  H12  1  0.15830523  0.29572432  0.78268785  1  0.085795  0.000512  0.096924  0.095633  -5e-05  1.087003  0.0
H  H13  1  0.70427443  0.84170208  0.71730751  1  0.085843  0.000512  0.096956  0.095703  -5e-05  1.086935  0.0
H  H14  1  0.84170065  0.70427997  0.21730733  1  0.085759  0.000512  0.096927  0.095641  -5e-05  1.086967  0.0
H  H15  1  0.29572258  0.15830346  0.28268936  1  0.085803  0.000512  0.096938  0.095678  -5e-05  1.08699  0.0
H  H16  1  0.06940069  0.47777894  0.53674968  1  0.066759  0.000397  0.10141  0.108542  0.00014  1.040793  0.0
H  H17  1  0.52221858  0.93059559  0.96325165  1  0.066757  0.000397  0.101386  0.10847  0.00014  1.040855  0.0
H  H18  1  0.93059357  0.52221907  0.46325068  1  0.066772  0.000397  0.101397  0.108535  0.00014  1.04086  0.0
H  H19  1  0.47778017  0.06940533  0.03674828  1  0.066863  0.000397  0.101378  0.108502  0.00014  1.040856  0.0
H  H20  1  0.86540984  0.76548519  0.68168178  1  0.091567  0.000362  0.107164  0.091707  -3.4e-05  1.030355  0.0
H  H21  1  0.23451476  0.13458936  0.81831803  1  0.091602  0.000362  0.107159  0.091694  -3.4e-05  1.030248  0.0
H  H22  1  0.13458891  0.23451833  0.31831453  1  0.091525  0.000362  0.107137  0.09173  -3.4e-05  1.030136  0.0
H  H23  1  0.76548576  0.86541305  0.18167936  1  0.091356  0.000362  0.107145  0.091653  -3.4e-05  1.030401  0.0
H  H24  1  0.84524817  0.83045238  0.57463578  1  0.097482  0.000667  0.118479  0.106175  0.00026  1.012041  0.0
H  H25  1  0.16954009  0.15475477  0.92536512  1  0.097407  0.000667  0.118506  0.106136  0.00026  1.011989  0.0
H  H26  1  0.15475498  0.16954614  0.42536188  1  0.097417  0.000667  0.118484  0.106142  0.00026  1.011969  0.0
H  H27  1  0.83045776  0.84524626  0.07463438  1  0.097437  0.000667  0.118504  0.106138  0.00026  1.012027  0.0
H  H28  1  0.12814811  0.79164528  0.48520324  1  0.097634  0.000569  0.109727  0.122766  0.000296  1.004829  0.0
H  H29  1  0.20835598  0.87185049  0.01479192  1  0.097741  0.00057  0.109717  0.12272  0.000296  1.00486  0.0
H  H30  1  0.87185243  0.20835975  0.51479173  1  0.097681  0.00057  0.109728  0.122729  0.000296  1.00489  0.0
H  H31  1  0.79163924  0.12815267  0.98520770  1  0.097653  0.00057  0.109705  0.122667  0.000296  1.004927  0.0
H  H32  1  0.91194901  0.94536517  0.69669762  1  0.08276  0.000732  0.108229  0.119303  0.000241  1.007873  0.0
H  H33  1  0.05463197  0.08804929  0.80330586  1  0.082749  0.000732  0.108266  0.119362  0.000241  1.00791  0.0
H  H34  1  0.08805324  0.05463173  0.30330182  1  0.082709  0.000732  0.108216  0.119283  0.000241  1.00799  0.0
H  H35  1  0.94537296  0.91194986  0.19669067  1  0.082716  0.000732  0.108261  0.11928  0.000241  1.007913  0.0
H  H36  1  0.27791249  0.92588259  0.46053318  1  0.098913  0.001348  0.118617  0.086825  0.000551  0.99639  0.001
H  H37  1  0.07411572  0.72208866  0.03946140  1  0.099017  0.001347  0.118587  0.086713  0.000551  0.996417  0.001
H  H38  1  0.72208804  0.07411981  0.53946420  1  0.099083  0.001348  0.118621  0.086815  0.000551  0.996333  0.001
H  H39  1  0.92587503  0.27791510  0.96053663  1  0.098841  0.001347  0.118621  0.086848  0.000551  0.996339  0.001
H  H40  1  0.07409547  0.06934205  0.66627910  1  0.095409  0.001302  0.114839  0.079799  0.00064  1.025432  0.001
H  H41  1  0.93065501  0.92590900  0.83372047  1  0.095269  0.001302  0.114831  0.079775  0.00064  1.025426  0.001
H  H42  1  0.92590681  0.93065749  0.33372096  1  0.095335  0.001302  0.114837  0.079788  0.00064  1.025438  0.001
H  H43  1  0.06934466  0.07409704  0.16627508  1  0.095414  0.001302  0.114849  0.079835  0.00064  1.025405  0.001
H  H44  1  0.67288856  0.21665160  0.36320178  1  0.103268  0.000108  0.094057  0.134765  -0.000553  1.053124  0.0
H  H45  1  0.78334551  0.32711929  0.13679004  1  0.104016  0.000108  0.09408  0.134744  -0.000553  1.053068  0.0
H  H46  1  0.32711008  0.78333966  0.63680214  1  0.103384  0.000108  0.094082  0.134769  -0.000553  1.053066  0.0
H  H47  1  0.21664969  0.67288559  0.86320432  1  0.103548  0.000108  0.09404  0.134719  -0.000553  1.053081  0.0
H  H48  1  0.80525866  0.28499266  0.28580510  1  0.090582  6.5e-05  0.099254  0.145558  -0.000106  1.019765  0.0
H  H49  1  0.71500989  0.19474183  0.21418452  1  0.091082  6.5e-05  0.099165  0.145398  -0.000106  1.019784  0.0
H  H50  1  0.19473732  0.71500071  0.71419590  1  0.090636  6.5e-05  0.099227  0.145501  -0.000106  1.019819  0.0
H  H51  1  0.28497918  0.80526747  0.78581570  1  0.090926  6.5e-05  0.099167  0.145427  -0.000106  1.019714  0.0
H  H52  1  0.74687035  0.45962735  0.34339792  1  0.104882  0.000149  0.096082  0.090078  7.6e-05  1.067077  0.0
H  H53  1  0.54036226  0.25313386  0.15660724  1  0.104792  0.000149  0.09615  0.090145  7.6e-05  1.067144  0.0
H  H54  1  0.25313272  0.54036328  0.65660395  1  0.104798  0.000149  0.096087  0.090109  7.6e-05  1.067155  0.0
H  H55  1  0.45962421  0.74687849  0.84339836  1  0.105209  0.000149  0.096093  0.090141  7.6e-05  1.067103  0.0
H  H56  1  0.62186973  0.41887064  0.49685869  1  0.151854  0.000889  0.117805  0.141534  0.000545  1.008049  0.001
H  H57  1  0.58110858  0.37814228  0.00314973  1  0.151867  0.00089  0.117905  0.141666  0.000545  1.007994  0.001
H  H58  1  0.37813692  0.58112040  0.50314594  1  0.151766  0.00089  0.117868  0.141628  0.000545  1.007984  0.001
H  H59  1  0.41888126  0.62185811  0.99685108  1  0.151515  0.000891  0.117869  0.141667  0.000546  1.007959  0.001
H  H60  1  0.52885319  0.48623579  0.42375257  1  0.103766  0.001302  0.115346  0.12232  0.000784  0.998391  0.001
H  H61  1  0.51373111  0.47114913  0.07626122  1  0.103288  0.001303  0.115325  0.122385  0.000785  0.998222  0.001
H  H62  1  0.47115166  0.51375286  0.57625360  1  0.103818  0.001302  0.115339  0.122295  0.000785  0.998353  0.001
H  H63  1  0.48625344  0.52885724  0.92373396  1  0.103529  0.001304  0.115301  0.122328  0.000785  0.998427  0.001
H  H64  1  0.31922093  0.32795926  0.38027147  1  0.144241  0.000156  0.123207  0.149341  -0.000131  0.985229  0.0
H  H65  1  0.67203488  0.68077664  0.11972228  1  0.144244  0.000156  0.123197  0.149291  -0.000131  0.985183  0.0
H  H66  1  0.68076181  0.67203864  0.61973694  1  0.144561  0.000156  0.123201  0.149422  -0.000131  0.985135  0.0
H  H67  1  0.32798516  0.31921957  0.88027885  1  0.144401  0.000156  0.123265  0.149425  -0.000131  0.985035  0.0
H  H68  1  0.44448374  0.39815119  0.31550531  1  0.058024  7.6e-05  0.113331  0.126384  1e-05  0.962346  0.0
H  H69  1  0.60183605  0.55551296  0.18448999  1  0.057859  7.6e-05  0.113303  0.126321  1e-05  0.962199  0.0
H  H70  1  0.55550249  0.60183920  0.68450643  1  0.057752  7.6e-05  0.113367  0.126419  1e-05  0.962109  0.0
H  H71  1  0.39818219  0.44448173  0.81551005  1  0.057924  7.6e-05  0.113271  0.126308  1e-05  0.962259  0.0
H  H72  1  0.32769207  0.36069089  0.22032912  1  0.081053  0.000101  0.099105  0.096641  -7e-05  1.021157  0.0
H  H73  1  0.63929838  0.67230413  0.27966609  1  0.081018  0.000101  0.099088  0.096626  -7e-05  1.021202  0.0
H  H74  1  0.67229955  0.63930665  0.77967802  1  0.081126  0.000101  0.099059  0.096622  -7e-05  1.021148  0.0
H  H75  1  0.36071984  0.32768880  0.72033373  1  0.081236  0.000101  0.099091  0.096612  -7e-05  1.021101  0.0
H  H76  1  0.20681343  0.60643782  0.24959584  1  0.073851  1.9e-05  0.094717  0.134456  1.4e-05  1.017726  0.0
H  H77  1  0.39355338  0.79318838  0.25040125  1  0.074023  1.9e-05  0.094675  0.134402  1.4e-05  1.01765  0.0
H  H78  1  0.79319515  0.39356528  0.75040691  1  0.073604  1.9e-05  0.094733  0.1345  1.4e-05  1.017676  0.0
H  H79  1  0.60646296  0.20679602  0.74960210  1  0.074238  1.9e-05  0.094596  0.134291  1.4e-05  1.017575  0.0
H  H80  1  0.20559141  0.54013443  0.16095449  1  0.075257  0.00015  0.092293  0.132374  -0.000118  1.044591  0.0
H  H81  1  0.45986061  0.79440659  0.33904239  1  0.075305  0.00015  0.092254  0.132303  -0.000118  1.044674  0.0
H  H82  1  0.79441365  0.45987267  0.83904754  1  0.07511  0.00015  0.09232  0.132483  -0.000118  1.044542  0.0
H  H83  1  0.54014953  0.20557954  0.66096073  1  0.074979  0.00015  0.092257  0.132316  -0.000118  1.044706  0.0
C  C84  1  0.01072523  0.57611771  0.63663640  1  0.471076  -0.000556  0.102449  0.243495  -0.000716  4.08427  -0.001
C  C85  1  0.42387996  0.98927727  0.86336460  1  0.471497  -0.000556  0.102512  0.243521  -0.000716  4.084119  -0.001
C  C86  1  0.98927526  0.42388120  0.36336359  1  0.471414  -0.000556  0.102457  0.243458  -0.000716  4.084387  -0.001
C  C87  1  0.57611876  0.01072362  0.13663230  1  0.471421  -0.000556  0.102534  0.243553  -0.000716  4.084049  -0.001
C  C88  1  0.01683786  0.57510639  0.72132843  1  -0.061487  0.006696  -0.09103  -0.198604  0.005124  3.908502  0.004
C  C89  1  0.42489035  0.98317045  0.77867147  1  -0.061339  0.006695  -0.091007  -0.198571  0.005123  3.908526  0.004
C  C90  1  0.98316623  0.42489554  0.27867010  1  -0.061374  0.006695  -0.091028  -0.198579  0.005124  3.908419  0.004
C  C91  1  0.57510667  0.01683509  0.22132660  1  -0.061408  0.006697  -0.091003  -0.198574  0.005124  3.908196  0.004
C  C92  1  0.18188710  0.27408882  0.61681218  1  1.526789  0.007518  0.19939  0.552256  0.00874  4.203888  0.005
C  C93  1  0.72590752  0.81811088  0.88318503  1  1.527118  0.007513  0.199276  0.552201  0.00874  4.203919  0.005
C  C94  1  0.81811251  0.72590934  0.38318879  1  1.526797  0.007519  0.19937  0.552284  0.008742  4.203716  0.005
C  C95  1  0.27409029  0.18188750  0.11681263  1  1.526941  0.007515  0.199384  0.552259  0.00874  4.203665  0.005
C  C96  1  0.11796908  0.37547596  0.65597142  1  -0.008372  -0.001301  -0.028671  -0.029636  -0.002251  4.040179  -0.002
C  C97  1  0.62451922  0.88203331  0.84402984  1  -0.00858  -0.001301  -0.028762  -0.029891  -0.00225  4.040383  -0.002
C  C98  1  0.88202967  0.62452408  0.34402993  1  -0.008443  -0.001302  -0.028673  -0.029659  -0.002251  4.040279  -0.002
C  C99  1  0.37547867  0.11797036  0.15596968  1  -0.008622  -0.0013  -0.028686  -0.029733  -0.00225  4.040357  -0.002
C  C100  1  0.11775164  0.37334088  0.74189646  1  -0.074417  0.007974  -0.105554  -0.168607  0.005803  3.996448  0.005
C  C101  1  0.62665713  0.88225448  0.75810150  1  -0.074268  0.007973  -0.105545  -0.168595  0.005803  3.996436  0.005
C  C102  1  0.88225156  0.62666117  0.25810163  1  -0.074329  0.007974  -0.105538  -0.168628  0.005803  3.996515  0.005
C  C103  1  0.37333989  0.11775281  0.24189497  1  -0.074332  0.007973  -0.10552  -0.168612  0.005803  3.996568  0.005
C  C104  1  0.06855344  0.47422945  0.77367824  1  -0.021164  0.001744  -0.027694  -0.04014  0.000531  4.029215  0.0
C  C105  1  0.52576739  0.93145591  0.72632156  1  -0.021155  0.001745  -0.027726  -0.040225  0.000532  4.029299  0.0
C  C106  1  0.93145065  0.52577247  0.22631968  1  -0.021225  0.001744  -0.027665  -0.040115  0.000531  4.029198  0.0
C  C107  1  0.47422878  0.06855415  0.27367571  1  -0.021038  0.001744  -0.027751  -0.040201  0.000531  4.02918  0.0
C  C108  1  0.06483872  0.47567415  0.60431388  1  -0.098533  0.006633  -0.091042  -0.195062  0.005095  3.925503  0.004
C  C109  1  0.52432074  0.93516043  0.89568923  1  -0.098923  0.006632  -0.091058  -0.194913  0.005094  3.925537  0.004
C  C110  1  0.93515733  0.52432362  0.39568735  1  -0.098582  0.006633  -0.091059  -0.195053  0.005095  3.92567  0.004
C  C111  1  0.47567624  0.06484160  0.10431024  1  -0.098801  0.006633  -0.091059  -0.195034  0.005095  3.925731  0.004
C  C112  1  0.00667251  0.85913062  0.59265052  1  -0.038214  0.005589  0.017484  0.151086  0.004164  3.911486  0.003
C  C113  1  0.14086489  0.99332795  0.90734864  1  -0.038162  0.005587  0.017473  0.151073  0.004162  3.911432  0.003
C  C114  1  0.99332886  0.14086814  0.40734627  1  -0.03823  0.005588  0.017492  0.151132  0.004163  3.911506  0.003
C  C115  1  0.85913294  0.00667219  0.09264984  1  -0.037903  0.00559  0.01751  0.151075  0.004165  3.911351  0.003
C  C116  1  0.07249242  0.47560702  0.86385653  1  1.5584  0.028634  0.22787  0.597412  0.027957  4.145804  0.025
C  C117  1  0.52439190  0.92751580  0.63614122  1  1.558312  0.02863  0.22787  0.597435  0.027955  4.145372  0.025
C  C118  1  0.92751342  0.52439376  0.13614004  1  1.558364  0.028631  0.227848  0.597381  0.027953  4.145613  0.025
C  C119  1  0.47560425  0.07249163  0.36385724  1  1.558404  0.028637  0.227807  0.597375  0.027961  4.145713  0.025
C  C120  1  0.91158726  0.78154114  0.61103213  1  0.320125  0.000457  -0.055267  -0.0816  0.000275  3.938336  0.0
C  C121  1  0.21846147  0.08841256  0.88896990  1  0.320286  0.000457  -0.05528  -0.081504  0.000274  3.938144  0.0
C  C122  1  0.08841156  0.21846593  0.38896703  1  0.320289  0.000457  -0.055276  -0.081648  0.000274  3.938078  0.0
C  C123  1  0.78153729  0.91158923  0.11103044  1  0.320522  0.000457  -0.055278  -0.081532  0.000275  3.938394  0.0
C  C124  1  0.11124578  0.85412045  0.52557823  1  0.012579  -7.3e-05  -0.081465  -0.173305  -0.000581  3.938722  0.0
C  C125  1  0.14587859  0.88875331  0.97441769  1  0.01261  -7.3e-05  -0.081494  -0.173283  -0.000581  3.938879  0.0
C  C126  1  0.88875383  0.14588032  0.47441790  1  0.012769  -7.3e-05  -0.081534  -0.173371  -0.000581  3.938983  0.0
C  C127  1  0.85411837  0.11124871  0.02558057  1  0.012478  -7.3e-05  -0.081505  -0.173235  -0.000582  3.938791  0.0
C  C128  1  0.99204962  0.93911640  0.64343465  1  -0.050112  0.000348  -0.085574  -0.187536  -0.000269  3.95335  0.0
C  C129  1  0.06088091  0.00795315  0.85656328  1  -0.050729  0.000349  -0.085618  -0.187684  -0.000268  3.953478  0.0
C  C130  1  0.00795444  0.06088463  0.35656104  1  -0.050624  0.000349  -0.085618  -0.187602  -0.000269  3.953492  0.0
C  C131  1  0.93912137  0.99204812  0.14343215  1  -0.050375  0.000349  -0.085579  -0.187476  -0.000269  3.953266  0.0
C  C132  1  0.19565800  0.92699110  0.51259189  1  0.468617  0.007213  0.052148  0.101843  0.005807  3.951193  0.005
C  C133  1  0.07300826  0.80434384  0.98740392  1  0.468574  0.007211  0.052188  0.101964  0.005806  3.951416  0.005
C  C134  1  0.80434252  0.07301043  0.48740569  1  0.46835  0.007212  0.05223  0.101963  0.005806  3.951189  0.005
C  C135  1  0.92698786  0.19566182  0.01259312  1  0.468686  0.007215  0.052149  0.101832  0.005809  3.951303  0.005
C  C136  1  0.08130641  0.00778915  0.62698934  1  0.476618  0.006813  0.047179  0.094701  0.005601  3.96113  0.005
C  C137  1  0.99220757  0.91869573  0.87300940  1  0.477061  0.006811  0.047171  0.094781  0.005599  3.96128  0.005
C  C138  1  0.91869411  0.99221239  0.37300885  1  0.477036  0.006813  0.047201  0.09473  0.005601  3.961105  0.005
C  C139  1  0.00779208  0.08130854  0.12698594  1  0.476798  0.006814  0.047135  0.094624  0.005602  3.961084  0.005
C  C140  1  0.72420705  0.29148095  0.33793631  1  -0.167415  0.000129  -0.186163  -0.3226  -4.6e-05  3.917395  0.0
C  C141  1  0.70851458  0.27579886  0.16205880  1  -0.167981  0.000129  -0.186029  -0.322304  -4.6e-05  3.91693  0.0
C  C142  1  0.27579247  0.70850931  0.66206703  1  -0.166965  0.000129  -0.186171  -0.322552  -4.6e-05  3.917287  0.0
C  C143  1  0.29147712  0.72420832  0.83794131  1  -0.167523  0.000129  -0.186069  -0.322405  -4.6e-05  3.91688  0.0
C  C144  1  0.69282080  0.38706551  0.36949213  1  -0.048361  0.00101  -0.100643  -0.022267  0.000788  4.007932  0.001
C  C145  1  0.61291754  0.30718591  0.13051144  1  -0.048186  0.00101  -0.100739  -0.022439  0.000789  4.007873  0.001
C  C146  1  0.30717960  0.61292287  0.63051266  1  -0.04865  0.00101  -0.100627  -0.022309  0.000789  4.008038  0.001
C  C147  1  0.38706976  0.69282365  0.86949033  1  -0.048508  0.001011  -0.100597  -0.02229  0.00079  4.007694  0.001
C  C148  1  0.51868175  0.30733181  0.48545578  1  0.89735  0.026141  0.231955  0.364095  0.02079  3.883474  0.02
C  C149  1  0.69263347  0.48133035  0.01455690  1  0.897554  0.026152  0.232049  0.364529  0.020801  3.8832  0.02
C  C150  1  0.48132131  0.69265533  0.51455112  1  0.897028  0.026152  0.231992  0.364276  0.0208  3.883193  0.02
C  C151  1  0.30735909  0.51867493  0.98544161  1  0.897188  0.026166  0.231867  0.364236  0.020815  3.883068  0.02
C  C152  1  0.58829500  0.40531451  0.44499209  1  0.009831  0.00099  -0.126496  -0.2219  0.001175  4.033735  0.0
C  C153  1  0.59466645  0.41171287  0.05501510  1  0.009866  0.00099  -0.126611  -0.222191  0.001175  4.033875  0.0
C  C154  1  0.41170811  0.59467702  0.55501322  1  0.009649  0.000991  -0.126554  -0.221963  0.001175  4.03378  0.0
C  C155  1  0.40532431  0.58829003  0.94498495  1  0.010133  0.000991  -0.126565  -0.222117  0.001176  4.034123  0.0
C  C156  1  0.34641981  0.41138297  0.33279311  1  0.072609  0.00027  -0.126327  -0.205641  0.000104  4.01028  0.0
C  C157  1  0.58860441  0.65358396  0.16720276  1  0.072913  0.00027  -0.126231  -0.205396  0.000104  4.009987  0.0
C  C158  1  0.65357718  0.58861473  0.66721706  1  0.072897  0.00027  -0.126326  -0.205793  0.000104  4.010189  0.0
C  C159  1  0.41141475  0.34641324  0.83279712  1  0.07326  0.00027  -0.126118  -0.205183  0.000104  4.009761  0.0
C  C160  1  0.30438308  0.50543414  0.37829841  1  0.854681  0.000118  0.195801  0.321284  -5.6e-05  3.958482  0.0
C  C161  1  0.49455929  0.69561803  0.12169956  1  0.854087  0.000118  0.195715  0.321126  -5.6e-05  3.958126  0.0
C  C162  1  0.69560952  0.49456770  0.62171242  1  0.854326  0.000118  0.195843  0.321315  -5.6e-05  3.958029  0.0
C  C163  1  0.50546162  0.30437803  0.87829776  1  0.854153  0.000118  0.195398  0.320387  -5.6e-05  3.958607  0.0
C  C164  1  0.30235999  0.43442964  0.25146830  1  -0.053746  0.000183  -0.098194  -0.019304  9e-05  3.984016  0.0
C  C165  1  0.56556371  0.69763673  0.24852862  1  -0.05416  0.000183  -0.098222  -0.019334  9e-05  3.983931  0.0
C  C166  1  0.69763255  0.56556867  0.74854089  1  -0.05406  0.000183  -0.098216  -0.019374  9e-05  3.984318  0.0
C  C167  1  0.43445359  0.30235456  0.75147116  1  -0.053494  0.000183  -0.098278  -0.019448  9e-05  3.984118  0.0
C  C168  1  0.23551791  0.53221175  0.21898671  1  -0.111264  0.000199  -0.180968  -0.30604  0.000154  3.906034  0.0
C  C169  1  0.46778203  0.76448009  0.28101094  1  -0.110951  0.000199  -0.180879  -0.305921  0.000154  3.905938  0.0
C  C170  1  0.76448089  0.46779095  0.78101829  1  -0.110783  0.000199  -0.181004  -0.306156  0.000154  3.906195  0.0
C  C171  1  0.53222727  0.23550968  0.71899156  1  -0.11157  0.000199  -0.180799  -0.305787  0.000153  3.906278  0.0
N  N172  1  0.18255551  0.00212779  0.56281372  1  -1.278887  0.052503  -0.325412  -0.263559  0.035324  3.514711  0.018
N  N173  1  0.99786772  0.81744757  0.93718293  1  -1.279014  0.052512  -0.325363  -0.263577  0.035325  3.514915  0.018
N  N174  1  0.81744676  0.99787174  0.43718452  1  -1.278894  0.052504  -0.325399  -0.263544  0.035323  3.514676  0.018
N  N175  1  0.00213104  0.18255683  0.06281198  1  -1.27898  0.052508  -0.325391  -0.26357  0.035327  3.514767  0.018
N  N176  1  0.95572303  0.67192716  0.58574489  1  -1.221475  0.000157  -0.445318  -0.330006  -0.000114  3.595407  0.0
N  N177  1  0.32807088  0.04427788  0.91425745  1  -1.221659  0.000157  -0.445327  -0.330021  -0.000114  3.595574  0.0
N  N178  1  0.04427661  0.32807450  0.41425408  1  -1.22169  0.000157  -0.44534  -0.329979  -0.000114  3.595697  0.0
N  N179  1  0.67192785  0.95572128  0.08574288  1  -1.22172  0.000157  -0.445355  -0.329979  -0.000114  3.59553  0.0
N  N180  1  0.46369793  0.22796582  0.51861555  1  -1.250133  0.040794  -0.289429  -0.381794  0.026136  3.064725  0.006
N  N181  1  0.77200546  0.53632199  0.98139352  1  -1.250176  0.040759  -0.289527  -0.382208  0.026132  3.064213  0.006
N  N182  1  0.53630875  0.77202785  0.48138788  1  -1.249847  0.04078  -0.289467  -0.381948  0.02613  3.06438  0.006
N  N183  1  0.22798436  0.46367489  0.01860990  1  -1.249863  0.040755  -0.289331  -0.381919  0.026121  3.063897  0.006
N  N184  1  0.27085853  0.58180623  0.41392371  1  -1.195867  0.000302  -0.315214  -0.407337  0.000165  2.812284  0.0
N  N185  1  0.41817526  0.72914759  0.08607613  1  -1.195636  0.000302  -0.31512  -0.407242  0.000165  2.811725  0.0
N  N186  1  0.72913837  0.41818704  0.58608198  1  -1.195798  0.000302  -0.315203  -0.407298  0.000165  2.811678  0.0
N  N187  1  0.58184563  0.27084758  0.91391896  1  -1.196331  0.000302  -0.314899  -0.406703  0.000165  2.812052  0.0
O  O188  1  0.18936238  0.28086065  0.53623377  1  -1.19708  0.04628  -0.312008  -0.570632  0.033992  2.230283  0.026
O  O189  1  0.71913862  0.81063757  0.96376235  1  -1.197005  0.046289  -0.31203  -0.570644  0.033994  2.230321  0.026
O  O190  1  0.81063363  0.71913449  0.46376805  1  -1.197122  0.046278  -0.312063  -0.570665  0.03399  2.230209  0.026
O  O191  1  0.28085746  0.18936545  0.03623467  1  -1.197099  0.046291  -0.312118  -0.570703  0.033999  2.230222  0.026
O  O192  1  0.23185358  0.18242572  0.66396930  1  -1.192703  0.051935  -0.315803  -0.56313  0.036775  2.225749  0.027
O  O193  1  0.81757341  0.76814549  0.83602540  1  -1.192957  0.051946  -0.315638  -0.562999  0.036776  2.225726  0.027
O  O194  1  0.76815236  0.81758038  0.33603154  1  -1.192634  0.05194  -0.315735  -0.563107  0.036779  2.225657  0.027
O  O195  1  0.18242258  0.23185049  0.16397198  1  -1.192709  0.051935  -0.315705  -0.563069  0.036776  2.225694  0.027
O  O196  1  0.04082861  0.57321330  0.88664991  1  -1.217841  0.079344  -0.319306  -0.574167  0.055979  2.381282  0.036
O  O197  1  0.42678209  0.95916788  0.61335466  1  -1.217923  0.079351  -0.319251  -0.574099  0.055973  2.381143  0.036
O  O198  1  0.95917011  0.42678499  0.11335183  1  -1.217833  0.07934  -0.319284  -0.574155  0.055976  2.381174  0.036
O  O199  1  0.57321668  0.04083478  0.38664489  1  -1.217812  0.079345  -0.319228  -0.574127  0.055977  2.381226  0.036
O  O200  1  0.10918666  0.37801689  0.91315005  1  -1.203887  0.078281  -0.307814  -0.560037  0.055283  2.357011  0.039
O  O201  1  0.62198222  0.89082850  0.58684510  1  -1.203838  0.078264  -0.307821  -0.560027  0.055275  2.35684  0.039
O  O202  1  0.89082361  0.62198327  0.08684446  1  -1.203785  0.078265  -0.307816  -0.559988  0.055278  2.356945  0.039
O  O203  1  0.37801394  0.10917981  0.41315377  1  -1.203857  0.078274  -0.307777  -0.559961  0.055279  2.35711  0.039
