# generated using pymatgen
data_Zn2H9C8NO8
_symmetry_space_group_name_H-M   'P 1'
_cell_length_a   6.08378063
_cell_length_b   7.39367199
_cell_length_c   12.24094108
_cell_angle_alpha   101.58443831
_cell_angle_beta   94.51451289
_cell_angle_gamma   96.31434938
_symmetry_Int_Tables_number   1
_chemical_formula_structural   Zn2H9C8NO8
_chemical_formula_sum   'Zn4 H18 C16 N2 O16'
_cell_volume   533.24669587
_cell_formula_units_Z   2
loop_
 _symmetry_equiv_pos_site_id
 _symmetry_equiv_pos_as_xyz
  1  'x, y, z'
loop_
 _atom_site_type_symbol
 _atom_site_label
 _atom_site_symmetry_multiplicity
 _atom_site_fract_x
 _atom_site_fract_y
 _atom_site_fract_z
 _atom_site_occupancy
 _atom_site_hle17_bader_spin_density
 _atom_site_hle17_ddec_charge
 _atom_site_hle17_ddec_spin_density
 _atom_site_hle17_ddec_sum_bond_order
 _atom_site_hle17_magmom
 _atom_site_hse06_10hf_bader_spin_density
 _atom_site_hse06_10hf_ddec_charge
 _atom_site_hse06_10hf_ddec_spin_density
 _atom_site_hse06_10hf_ddec_sum_bond_order
 _atom_site_hse06_10hf_magmom
 _atom_site_hse06_bader_spin_density
 _atom_site_hse06_ddec_charge
 _atom_site_hse06_ddec_spin_density
 _atom_site_hse06_ddec_sum_bond_order
 _atom_site_hse06_magmom
 _atom_site_pbe_bader_spin_density
 _atom_site_pbe_cm5_charge
 _atom_site_pbe_ddec_charge
 _atom_site_pbe_ddec_spin_density
 _atom_site_pbe_ddec_sum_bond_order
 _atom_site_pbe_magmom
Zn  Zn0  1  0.42766870  0.65912119  0.08852057  1  0  1.234864  0  1.733896  0  0  1.083028  0  2.191056  0  0  1.12816  0  2.127207  0  0  0.654017  1.050912  0  2.235553  0
Zn  Zn1  1  0.57232804  0.34087607  0.91147785  1  0  1.234866  0  1.733912  0  0  1.08302  0  2.191093  0  0  1.128152  0  2.127245  0  0  0.654013  1.050903  0  2.235592  0
Zn  Zn2  1  0.08569894  0.42476726  0.82319070  1  0  1.195654  0  1.730921  0  0  1.028568  0  2.204936  0  0  1.076764  0  2.140095  0  0  0.662819  0.994292  0  2.250031  0
Zn  Zn3  1  0.91429843  0.57523418  0.17680905  1  0  1.195606  0  1.730926  0  0  1.028519  0  2.204916  0  0  1.076715  0  2.14008  0  0  0.662814  0.994246  0  2.25001  0
H  H4  1  0.62682360  0.00732764  0.12077079  1  0  0.444573  0  0.849188  0  0  0.411739  0  0.914618  0  0  0.421831  0  0.90003  0  0  0.301415  0.404642  0  0.924873  0
H  H5  1  0.37317645  0.99266968  0.87923185  1  0  0.444635  0  0.849107  0  0  0.411796  0  0.914541  0  0  0.421887  0  0.899954  0  0  0.301436  0.404696  0  0.924802  0
H  H6  1  0.74457825  0.89116527  0.01658704  1  0  0.454207  0  0.832067  0  0  0.422104  0  0.895608  0  0  0.432825  0  0.880086  0  0  0.30551  0.414493  0  0.906629  0
H  H7  1  0.25541892  0.10883479  0.98341336  1  0  0.45423  0  0.832032  0  0  0.42213  0  0.895567  0  0  0.432849  0  0.880047  0  0  0.305507  0.414518  0  0.90659  0
H  H8  1  0.04904383  0.71570093  0.02302553  1  0  0.408263  0  0.912344  0  0  0.375562  0  0.981109  0  0  0.386488  0  0.965204  0  0  0.273833  0.3678  0  0.992393  0
H  H9  1  0.95095499  0.28429912  0.97697330  1  0  0.408272  0  0.912335  0  0  0.375578  0  0.98109  0  0  0.386503  0  0.965185  0  0  0.27383  0.367815  0  0.992375  0
H  H10  1  0.57236607  0.36116053  0.13348056  1  0  0.419619  0  0.891395  0  0  0.386988  0  0.958778  0  0  0.397135  0  0.944308  0  0  0.282025  0.379813  0  0.968992  0
H  H11  1  0.42763212  0.63883537  0.86651939  1  0  0.419573  0  0.891468  0  0  0.386968  0  0.958805  0  0  0.397117  0  0.944332  0  0  0.28202  0.379791  0  0.969023  0
H  H12  1  0.90299901  0.86788571  0.53593641  1  0  0.096985  0  0.943101  0  0  0.105926  0  1.011166  0  0  0.108792  0  1.007969  0  0  0.127601  0.103756  0  1.01363  0
H  H13  1  0.09699630  0.13211295  0.46406293  1  0  0.09698  0  0.943086  0  0  0.105931  0  1.011149  0  0  0.108797  0  1.007951  0  0  0.127595  0.103755  0  1.01362  0
H  H14  1  0.22529327  0.64726227  0.40982681  1  0  0.120901  0  0.941738  0  0  0.128594  0  1.005956  0  0  0.132902  0  1.000827  0  0  0.112048  0.125434  0  1.009572  0
H  H15  1  0.77470494  0.35274477  0.59017526  1  0  0.120959  0  0.941606  0  0  0.128645  0  1.005827  0  0  0.132955  0  1.000696  0  0  0.112066  0.125483  0  1.009444  0
H  H16  1  0.13970218  0.66278001  0.60962669  1  0  0.136737  0  0.967078  0  0  0.144071  0  1.027709  0  0  0.148492  0  1.026447  0  0  0.109059  0.140803  0  1.029082  0
H  H17  1  0.86030138  0.33721869  0.39037461  1  0  0.136655  0  0.967145  0  0  0.144025  0  1.02774  0  0  0.148447  0  1.026473  0  0  0.109037  0.140755  0  1.029112  0
H  H18  1  0.00231754  0.96600673  0.71649676  1  0  0.114612  0  0.926835  0  0  0.128284  0  0.987625  0  0  0.130049  0  0.986945  0  0  0.120588  0.127003  0  0.988211  0
H  H19  1  0.99768270  0.03399191  0.28350032  1  0  0.114582  0  0.926877  0  0  0.128239  0  0.987662  0  0  0.130001  0  0.986986  0  0  0.120574  0.126965  0  0.988229  0
H  H20  1  0.79687848  0.03063046  0.80564896  1  0  0.132595  0  0.962178  0  0  0.13955  0  1.027637  0  0  0.142993  0  1.024606  0  0  0.117462  0.137031  0  1.029878  0
H  H21  1  0.20312549  0.96937098  0.19434942  1  0  0.132594  0  0.962178  0  0  0.139535  0  1.027632  0  0  0.142977  0  1.024601  0  0  0.117465  0.137016  0  1.029873  0
C  C22  1  0.73091770  0.82482205  0.54703776  1  0  0.102447  0  3.624148  0  0  0.048651  0  3.877117  0  0  0.061644  0  3.891891  0  0  0.061112  0.039664  0  3.868404  0
C  C23  1  0.26907678  0.17518215  0.45296057  1  0  0.102478  0  3.62405  0  0  0.048682  0  3.877007  0  0  0.061673  0  3.891781  0  0  0.061134  0.039699  0  3.868298  0
C  C24  1  0.57088830  0.75845194  0.45758494  1  0  -0.149097  0  3.801353  0  0  -0.131032  0  4.05658  0  0  -0.147988  0  4.082417  0  0  -0.031225  -0.120089  0  4.038958  0
C  C25  1  0.42911114  0.24155230  0.54241604  1  0  -0.14904  0  3.801148  0  0  -0.130963  0  4.056365  0  0  -0.147917  0  4.082202  0  0  -0.031219  -0.120019  0  4.038741  0
C  C26  1  0.35196370  0.70310352  0.48025284  1  0  0.016609  0  3.708792  0  0  -0.018003  0  3.969517  0  0  -0.007407  0  3.983648  0  0  -0.064931  -0.024308  0  3.959348  0
C  C27  1  0.64803265  0.29690209  0.51974654  1  0  0.016546  0  3.708819  0  0  -0.018058  0  3.969557  0  0  -0.007464  0  3.983689  0  0  -0.064953  -0.024363  0  3.959388  0
C  C28  1  0.30288447  0.71375908  0.58893485  1  0  -0.254585  0  3.700755  0  0  -0.272137  0  3.96597  0  0  -0.286851  0  3.984926  0  0  -0.104053  -0.262796  0  3.95343  0
C  C29  1  0.69711786  0.28624241  0.41106756  1  0  -0.254526  0  3.700637  0  0  -0.272096  0  3.965829  0  0  -0.28681  0  3.984791  0  0  -0.104034  -0.262751  0  3.953283  0
C  C30  1  0.46751066  0.78686958  0.68116944  1  0  0.510738  0  3.802345  0  0  0.465768  0  4.077618  0  0  0.492818  0  4.082455  0  0  0.223454  0.447939  0  4.073682  0
C  C31  1  0.53249246  0.21312627  0.31882579  1  0  0.510666  0  3.802433  0  0  0.46569  0  4.077721  0  0  0.492738  0  4.08256  0  0  0.223368  0.447866  0  4.073782  0
C  C32  1  0.62627898  0.73781236  0.33934095  1  0  0.667659  0  3.919236  0  0  0.615393  0  4.211819  0  0  0.650939  0  4.205469  0  0  0.211361  0.591345  0  4.215237  0
C  C33  1  0.37372830  0.26218915  0.66066247  1  0  0.667694  0  3.91922  0  0  0.615387  0  4.211861  0  0  0.650932  0  4.205511  0  0  0.211391  0.591338  0  4.21528  0
C  C34  1  0.85028273  0.91326230  0.74886924  1  0  -0.170257  0  3.606752  0  0  -0.231341  0  3.853943  0  0  -0.231819  0  3.859117  0  0  -0.062625  -0.230788  0  3.850443  0
C  C35  1  0.14971938  0.08673775  0.25112890  1  0  -0.17028  0  3.606834  0  0  -0.23129  0  3.853962  0  0  -0.231764  0  3.859122  0  0  -0.062608  -0.230731  0  3.850459  0
C  C36  1  0.90488612  0.76291215  0.81243883  1  0  0.700381  0  3.851667  0  0  0.640439  0  4.168431  0  0  0.674719  0  4.159581  0  0  0.217969  0.617055  0  4.173823  0
C  C37  1  0.09511722  0.23708512  0.18755903  1  0  0.700494  0  3.851567  0  0  0.640519  0  4.168358  0  0  0.674798  0  4.159509  0  0  0.218029  0.617137  0  4.173742  0
N  N38  1  0.68098631  0.84148995  0.65417230  1  0  -0.09578  0  3.479105  0  0  -0.003584  0  3.693361  0  0  -0.021948  0  3.716171  0  0  -0.2218  0.008493  0  3.677644  0
N  N39  1  0.31901644  0.15851431  0.34582962  1  0  -0.095845  0  3.479104  0  0  -0.003666  0  3.693346  0  0  -0.022033  0  3.716158  0  0  -0.22181  0.008414  0  3.677625  0
O  O40  1  0.83003318  0.72428959  0.32155287  1  0  -0.663944  0  2.020388  0  0  -0.594033  0  2.291515  0  0  -0.622349  0  2.275219  0  0  -0.326052  -0.57404  0  2.301967  0
O  O41  1  0.16996893  0.27571048  0.67844772  1  0  -0.664081  0  2.020508  0  0  -0.594163  0  2.291672  0  0  -0.622467  0  2.275352  0  0  -0.326116  -0.574168  0  2.302126  0
O  O42  1  0.64390660  0.88339804  0.07583785  1  0  -0.867714  0  1.906057  0  0  -0.799286  0  2.129563  0  0  -0.820522  0  2.091043  0  0  -0.578074  -0.784379  0  2.156505  0
O  O43  1  0.35609179  0.11659923  0.92416146  1  0  -0.867782  0  1.906012  0  0  -0.79934  0  2.129536  0  0  -0.820573  0  2.091015  0  0  -0.578081  -0.784433  0  2.156485  0
O  O44  1  0.46537842  0.73262712  0.26644385  1  0  -0.628278  0  2.051787  0  0  -0.564815  0  2.313518  0  0  -0.591957  0  2.30108  0  0  -0.306984  -0.545965  0  2.321526  0
O  O45  1  0.53462658  0.26737019  0.73355735  1  0  -0.628218  0  2.051783  0  0  -0.564725  0  2.313492  0  0  -0.591886  0  2.301101  0  0  -0.306945  -0.545876  0  2.321504  0
O  O46  1  0.43749804  0.80432492  0.78403054  1  0  -0.613214  0  2.036866  0  0  -0.546815  0  2.255239  0  0  -0.569872  0  2.24743  0  0  -0.30609  -0.530754  0  2.260058  0
O  O47  1  0.56251582  0.19566551  0.21597428  1  0  -0.613068  0  2.037077  0  0  -0.546663  0  2.255466  0  0  -0.569716  0  2.247657  0  0  -0.306024  -0.530643  0  2.26034  0
O  O48  1  0.92455199  0.80356859  0.91791352  1  0  -0.628616  0  2.022061  0  0  -0.559888  0  2.248161  0  0  -0.585229  0  2.236636  0  0  -0.300289  -0.542334  0  2.255917  0
O  O49  1  0.07544661  0.19643006  0.08208432  1  0  -0.628679  0  2.022047  0  0  -0.559972  0  2.248189  0  0  -0.585318  0  2.236669  0  0  -0.300326  -0.542412  0  2.255938  0
O  O50  1  0.93707792  0.60777722  0.75148555  1  0  -0.659752  0  2.064024  0  0  -0.588007  0  2.345448  0  0  -0.617484  0  2.329811  0  0  -0.317466  -0.56734  0  2.35568  0
O  O51  1  0.06293058  0.39222144  0.24851186  1  0  -0.659761  0  2.063871  0  0  -0.588017  0  2.345332  0  0  -0.617495  0  2.3297  0  0  -0.317504  -0.567348  0  2.355558  0
O  O52  1  0.11813227  0.69438467  0.09445291  1  0  -1.004036  0  1.914204  0  0  -0.901855  0  2.222042  0  0  -0.934845  0  2.179288  0  0  -0.59239  -0.878346  0  2.251397  0
O  O53  1  0.88186675  0.30561677  0.90554609  1  0  -1.004073  0  1.914241  0  0  -0.901906  0  2.222087  0  0  -0.934893  0  2.179334  0  0  -0.592397  -0.878396  0  2.251443  0
O  O54  1  0.62272175  0.45563367  0.09058045  1  0  -1.021538  0  1.930415  0  0  -0.913841  0  2.237194  0  0  -0.948248  0  2.19513  0  0  -0.568267  -0.889304  0  2.265815  0
O  O55  1  0.37727665  0.54436362  0.90941968  1  0  -1.021509  0  1.930481  0  0  -0.913831  0  2.237248  0  0  -0.948238  0  2.195187  0  0  -0.568287  -0.889286  0  2.265851  0
