# generated using pymatgen
data_Zr3H20C27O16
_symmetry_space_group_name_H-M   'P 1'
_cell_length_a   14.80396937
_cell_length_b   14.79862216
_cell_length_c   14.80607988
_cell_angle_alpha   60.01741357
_cell_angle_beta   59.99788375
_cell_angle_gamma   59.98694762
_symmetry_Int_Tables_number   1
_chemical_formula_structural   Zr3H20C27O16
_chemical_formula_sum   'Zr6 H40 C54 O32'
_cell_volume   2293.67486464
_cell_formula_units_Z   2
loop_
 _symmetry_equiv_pos_site_id
 _symmetry_equiv_pos_as_xyz
  1  'x, y, z'
loop_
 _atom_site_type_symbol
 _atom_site_label
 _atom_site_symmetry_multiplicity
 _atom_site_fract_x
 _atom_site_fract_y
 _atom_site_fract_z
 _atom_site_occupancy
 _atom_site_pbe_bader_charge
 _atom_site_pbe_bader_spin_density
 _atom_site_pbe_cm5_charge
 _atom_site_pbe_ddec_charge
 _atom_site_pbe_ddec_spin_density
 _atom_site_pbe_ddec_sum_bond_order
 _atom_site_pbe_magmom
Zr  Zr0  1  0.87821047  0.87836017  0.62170324  1  2.635965  0  1.627931  2.374297  0  2.754425  0
Zr  Zr1  1  0.11674728  0.11677082  0.38310632  1  2.632592  0  1.631445  2.366327  0  2.773763  0
Zr  Zr2  1  0.11634867  0.87823512  0.62197443  1  2.632414  0  1.625062  2.370383  0  2.74793  0
Zr  Zr3  1  0.87806039  0.11645648  0.38320677  1  2.635777  0  1.634568  2.369825  0  2.780481  0
Zr  Zr4  1  0.11722536  0.87955099  0.38177312  1  2.633424  0  1.629846  2.370001  0  2.763787  0
Zr  Zr5  1  0.87843338  0.11843522  0.62018256  1  2.632821  0  1.629852  2.369765  0  2.764224  0
H  H6  1  0.09208577  0.71587867  0.59612119  1  0.595193  0  0.331489  0.422759  0  0.859278  0
H  H7  1  0.09207936  0.09191282  0.22016750  1  0.596628  0  0.332104  0.422873  0  0.859463  0
H  H8  1  0.09168808  0.09194349  0.59571020  1  0.610633  0  0.331934  0.422979  0  0.858421  0
H  H9  1  0.71555130  0.09216391  0.59595446  1  0.608265  0  0.331796  0.422811  0  0.859032  0
H  H10  1  0.84878406  0.58283217  0.64250156  1  0.082245  0  0.107008  0.112359  0  0.996152  0
H  H11  1  0.14079325  0.59104833  0.35619544  1  0.091234  0  0.107036  0.115085  0  1.004232  0
H  H12  1  0.85749335  0.41334349  0.63389494  1  0.099553  0  0.106341  0.11255  0  1.00489  0
H  H13  1  0.58320694  0.84816738  0.92653405  1  0.0725  0  0.106751  0.112178  0  0.996243  0
H  H14  1  0.59172091  0.14023783  0.91238376  1  0.111896  0  0.106744  0.116507  0  1.00379  0
H  H15  1  0.41393979  0.85690282  0.09600558  1  0.099052  0  0.106479  0.112541  0  1.006028  0
H  H16  1  0.14033613  0.84975799  0.08455753  1  0.090057  0  0.107439  0.113779  0  0.99432  0
H  H17  1  0.85392999  0.14190080  0.09343731  1  0.036256  0  0.106576  0.115837  0  1.002313  0
H  H18  1  0.13139419  0.85868510  0.91522587  1  0.087972  0  0.107052  0.113099  0  1.003809  0
H  H19  1  0.58393602  0.42449486  0.64096249  1  0.12297  0  0.107263  0.113166  0  0.995527  0
H  H20  1  0.59407650  0.41092170  0.35357190  1  0.075674  0  0.106658  0.116114  0  1.003315  0
H  H21  1  0.41427316  0.59366619  0.63219422  1  0.086741  0  0.106489  0.112308  0  1.005472  0
H  H22  1  0.13910879  0.58237030  0.92697050  1  0.07649  0  0.107396  0.113252  0  0.994868  0
H  H23  1  0.85176847  0.59227101  0.91338819  1  0.080604  0  0.10712  0.115691  0  1.000084  0
H  H24  1  0.13041599  0.41274027  0.09589923  1  0.125319  0  0.105635  0.11118  0  1.00874  0
H  H25  1  0.58224285  0.13866817  0.35189328  1  0.050211  0  0.106771  0.112567  0  0.996351  0
H  H26  1  0.59113141  0.85206363  0.64351279  1  0.088263  0  0.107604  0.115837  0  1.000355  0
H  H27  1  0.41266720  0.13010147  0.36094149  1  0.0853  0  0.105747  0.11086  0  1.00954  0
H  H28  1  0.26031511  0.40827013  0.32048523  1  0.017092  0  0.090975  0.124858  0  0.999036  0
H  H29  1  0.19108285  0.34087623  0.31700221  1  0.089682  0  0.094792  0.143999  0  1.052336  0
H  H30  1  0.17576825  0.48237413  0.23687687  1  0.039617  0  0.094594  0.132137  0  0.987936  0
H  H31  1  0.40712348  0.25989608  0.01222786  1  0.037883  0  0.092728  0.128538  0  0.992706  0
H  H32  1  0.34318908  0.18926989  0.15301697  1  0.085862  0  0.094933  0.144434  0  1.051459  0
H  H33  1  0.48459058  0.17625280  0.10321600  1  0.032177  0  0.092616  0.127861  0  0.994759  0
H  H34  1  0.81796367  0.26175560  0.91242404  1  0.03483  0  0.090808  0.124342  0  0.999997  0
H  H35  1  0.81638034  0.19450381  0.84169509  1  0.09852  0  0.095469  0.144719  0  1.049191  0
H  H36  1  0.73461205  0.17737958  0.98304816  1  0.055126  0  0.093551  0.130287  0  0.992266  0
H  H37  1  0.40581501  0.51220683  0.32019473  1  0.030127  0  0.091582  0.126486  0  0.99715  0
H  H38  1  0.34816726  0.65409139  0.30934875  1  0.087255  0  0.095707  0.145421  0  1.050347  0
H  H39  1  0.48934132  0.59734520  0.23416998  1  0.0415  0  0.092181  0.127437  0  0.996733  0
H  H40  1  0.81834829  0.40642706  0.01196368  1  0.023334  0  0.091034  0.124867  0  0.998561  0
H  H41  1  0.81118023  0.34307830  0.15303332  1  0.102454  0  0.095536  0.144654  0  1.052052  0
H  H42  1  0.73277078  0.48447678  0.10243997  1  0.037909  0  0.09275  0.128201  0  0.99571  0
H  H43  1  0.40729648  0.81771391  0.76347929  1  0.021225  0  0.092343  0.12738  0  0.994011  0
H  H44  1  0.34119168  0.81253543  0.69418303  1  0.087143  0  0.095276  0.14401  0  1.052067  0
H  H45  1  0.48269800  0.73297629  0.67983507  1  0.016583  0  0.094206  0.131256  0  0.989252  0
C  C46  1  0.99353321  0.69789325  0.49992088  1  1.554444  0  0.237426  0.641213  0  4.092651  0
C  C47  1  0.30601715  0.99906567  0.20044522  1  1.525704  0  0.238863  0.646699  0  4.082662  0
C  C48  1  0.99890378  0.30596581  0.49453470  1  1.54849  0  0.239236  0.647517  0  4.083227  0
C  C49  1  0.69753195  0.99382947  0.80838722  1  1.53062  0  0.237172  0.640731  0  4.093554  0
C  C50  1  0.99606614  0.69802297  0.80959239  1  1.528683  0  0.238126  0.643446  0  4.09207  0
C  C51  1  0.69735393  0.99599607  0.49699370  1  1.536608  0  0.23691  0.641191  0  4.09411  0
C  C52  1  0.99124284  0.30519097  0.20050436  1  1.532588  0  0.237512  0.643839  0  4.085563  0
C  C53  1  0.30500499  0.99094480  0.50296082  1  1.550367  0  0.238712  0.646642  0  4.081678  0
C  C54  1  0.30600851  0.69745875  0.49400887  1  1.559872  0  0.239745  0.647809  0  4.078666  0
C  C55  1  0.99132703  0.99987848  0.80864540  1  1.550705  0  0.23828  0.646528  0  4.082439  0
C  C56  1  0.69833351  0.30589511  0.49927626  1  1.54087  0  0.237842  0.64213  0  4.093462  0
C  C57  1  0.99689927  0.99366517  0.20072471  1  1.552493  0  0.237544  0.640727  0  4.095015  0
C  C58  1  0.00353686  0.40707246  0.49038765  1  -0.089862  0  -0.012903  -0.103228  0  3.886117  0
C  C59  1  0.99475312  0.59709773  0.49847561  1  -0.012505  0  -0.014184  -0.026755  0  3.99344  0
C  C60  1  0.08635738  0.45623251  0.41003890  1  0.053506  0  0.009113  0.176929  0  3.895167  0
C  C61  1  0.91399506  0.54731901  0.57825812  1  -0.046599  0  -0.086835  -0.102956  0  3.997394  0
C  C62  1  0.07871189  0.55101544  0.41688132  1  -0.023541  0  -0.084169  -0.159723  0  3.927951  0
C  C63  1  0.91919753  0.45368710  0.57322266  1  -0.031428  0  -0.084355  -0.091616  0  4.000616  0
C  C64  1  0.40771388  0.00308827  0.09950550  1  -0.030979  0  -0.012795  -0.102063  0  3.885598  0
C  C65  1  0.59745287  0.99435358  0.91003307  1  -0.028909  0  -0.014607  -0.027034  0  3.99276  0
C  C66  1  0.45709521  0.08571807  0.04802158  1  0.046507  0  0.009019  0.175857  0  3.897388  0
C  C67  1  0.54785419  0.91336911  0.96107644  1  -0.018715  0  -0.086467  -0.102696  0  3.995977  0
C  C68  1  0.55170097  0.07810509  0.95395348  1  -0.052705  0  -0.083581  -0.161276  0  3.928762  0
C  C69  1  0.45434184  0.91857302  0.05459559  1  -0.052624  0  -0.085225  -0.092786  0  4.000505  0
C  C70  1  0.98782743  0.00474900  0.90931093  1  -0.022498  0  -0.013091  -0.103685  0  3.885363  0
C  C71  1  0.99598060  0.99549080  0.09944216  1  -0.070366  0  -0.015024  -0.027956  0  3.993116  0
C  C72  1  0.90777636  0.08777676  0.95840067  1  -0.007272  0  0.008753  0.174859  0  3.895807  0
C  C73  1  0.07592159  0.91497226  0.04931592  1  -0.013356  0  -0.086191  -0.103678  0  3.994885  0
C  C74  1  0.91452942  0.07979009  0.05332486  1  0.052208  0  -0.083772  -0.158761  0  3.92534  0
C  C75  1  0.07077573  0.92035782  0.95569348  1  -0.036308  0  -0.084984  -0.09089  0  3.998826  0
C  C76  1  0.40861754  0.59726674  0.48848172  1  -0.05823  0  -0.012543  -0.102845  0  3.88373  0
C  C77  1  0.59872335  0.40800817  0.49683366  1  -0.047264  0  -0.014442  -0.027083  0  3.993059  0
C  C78  1  0.45889781  0.54628756  0.40733993  1  -0.007727  0  0.008326  0.174969  0  3.897116  0
C  C79  1  0.54880805  0.45900577  0.57646775  1  -0.052836  0  -0.087149  -0.104749  0  3.998414  0
C  C80  1  0.55356826  0.45227064  0.41444233  1  0.002359  0  -0.083948  -0.159925  0  3.927422  0
C  C81  1  0.45509627  0.55239033  0.57132468  1  -0.001137  0  -0.084071  -0.090113  0  3.99906  0
C  C82  1  0.98664562  0.40701414  0.09960336  1  -0.005603  0  -0.012691  -0.101896  0  3.884212  0
C  C83  1  0.99459714  0.59749767  0.91079481  1  0.004463  0  -0.014871  -0.027239  0  3.990902  0
C  C84  1  0.90593003  0.45682457  0.04826694  1  -0.000366  0  0.007505  0.174125  0  3.896695  0
C  C85  1  0.07456053  0.54729353  0.96145966  1  -0.04  0  -0.086197  -0.103138  0  3.993213  0
C  C86  1  0.91265639  0.55183431  0.95465783  1  -0.020629  0  -0.083118  -0.158319  0  3.928022  0
C  C87  1  0.06952738  0.45349943  0.05468515  1  -0.075994  0  -0.083744  -0.09151  0  3.997375  0
C  C88  1  0.40655770  0.98652694  0.50695190  1  -0.052927  0  -0.01312  -0.104591  0  3.885706  0
C  C89  1  0.59683700  0.99448323  0.49777180  1  0.018115  0  -0.014283  -0.026526  0  3.990963  0
C  C90  1  0.45601978  0.90606907  0.58948288  1  0.023333  0  0.008521  0.177217  0  3.896068  0
C  C91  1  0.54691402  0.07430549  0.41708851  1  0.000862  0  -0.087395  -0.104744  0  3.996294  0
C  C92  1  0.55094527  0.91279758  0.58158013  1  -0.054885  0  -0.083519  -0.159163  0  3.92756  0
C  C93  1  0.45318599  0.06931896  0.42248164  1  -0.026852  0  -0.085085  -0.091467  0  3.999351  0
C  C94  1  0.18351438  0.41810144  0.31645836  1  -0.051828  0  -0.242443  -0.423106  0  3.963008  0
C  C95  1  0.41920318  0.18287600  0.08251856  1  -0.058987  0  -0.242736  -0.42296  0  3.963488  0
C  C96  1  0.81460534  0.18553981  0.92003245  1  -0.093909  0  -0.242838  -0.422441  0  3.961528  0
C  C97  1  0.42183727  0.58102966  0.31295520  1  -0.062321  0  -0.242594  -0.423206  0  3.964225  0
C  C98  1  0.81235314  0.41890493  0.08236186  1  -0.061763  0  -0.242837  -0.421707  0  3.963991  0
C  C99  1  0.41795987  0.81265870  0.68687673  1  -0.029408  0  -0.242236  -0.423134  0  3.964987  0
O  O100  1  0.91762358  0.73549930  0.57831552  1  -1.179859  0  -0.356224  -0.618455  0  2.272613  0
O  O101  1  0.26218048  0.07371775  0.24427032  1  -1.184684  0  -0.362461  -0.618001  0  2.347897  0
O  O102  1  0.07346069  0.26217018  0.41992244  1  -1.190925  0  -0.3618  -0.616352  0  2.348598  0
O  O103  1  0.73549685  0.91751527  0.76864519  1  -1.173811  0  -0.35671  -0.619604  0  2.272222  0
O  O104  1  0.07412466  0.73620514  0.76946990  1  -1.180113  0  -0.357879  -0.622345  0  2.270579  0
O  O105  1  0.73513598  0.07423883  0.42106083  1  -1.180444  0  -0.356721  -0.619375  0  2.272016  0
O  O106  1  0.91692440  0.26132800  0.24359695  1  -1.183645  0  -0.359269  -0.611784  0  2.347646  0
O  O107  1  0.26143594  0.91615964  0.57750728  1  -1.187169  0  -0.361317  -0.615123  0  2.346545  0
O  O108  1  0.26216167  0.74076962  0.41957750  1  -1.191111  0  -0.362458  -0.616754  0  2.346023  0
O  O109  1  0.91677856  0.07478303  0.76500662  1  -1.18814  0  -0.359598  -0.612752  0  2.346945  0
O  O110  1  0.73673904  0.26621240  0.57701106  1  -1.180305  0  -0.358075  -0.621591  0  2.271389  0
O  O111  1  0.07526170  0.91780762  0.23840511  1  -1.178046  0  -0.356171  -0.61945  0  2.269924  0
O  O112  1  0.06896059  0.92191460  0.77124319  1  -1.184636  0  -0.347129  -0.618323  0  2.261368  0
O  O113  1  0.73697185  0.26436901  0.42433947  1  -1.18456  0  -0.353876  -0.619109  0  2.295107  0
O  O114  1  0.91972256  0.06932877  0.24172314  1  -1.180492  0  -0.355326  -0.620668  0  2.293752  0
O  O115  1  0.26700603  0.73333083  0.57327872  1  -1.181062  0  -0.345352  -0.615258  0  2.259992  0
O  O116  1  0.91994082  0.73783073  0.76923576  1  -1.178529  0  -0.354278  -0.620476  0  2.294587  0
O  O117  1  0.26667315  0.06960838  0.42617008  1  -1.186263  0  -0.345665  -0.615362  0  2.262506  0
O  O118  1  0.06972596  0.26692410  0.23724415  1  -1.184324  0  -0.346418  -0.616019  0  2.260164  0
O  O119  1  0.73745389  0.91973770  0.57349775  1  -1.176918  0  -0.354259  -0.62066  0  2.292075  0
O  O120  1  0.73699224  0.07094814  0.76749217  1  -1.183397  0  -0.353984  -0.617981  0  2.29063  0
O  O121  1  0.06970130  0.73833579  0.42332553  1  -1.185395  0  -0.354834  -0.619711  0  2.290525  0
O  O122  1  0.26768598  0.92230058  0.23677691  1  -1.176098  0  -0.345679  -0.615721  0  2.26114  0
O  O123  1  0.92161782  0.26810009  0.57279428  1  -1.180255  0  -0.346699  -0.617808  0  2.26292  0
O  O124  1  0.79575776  0.06533546  0.56920955  1  -1.235389  0  -0.695266  -1.067226  0  2.36857  0
O  O125  1  0.06481094  0.06523703  0.56909072  1  -1.232527  0  -0.696593  -1.071345  0  2.377097  0
O  O126  1  0.06522785  0.06484482  0.30032739  1  -1.223533  0  -0.697637  -1.070605  0  2.380084  0
O  O127  1  0.06494979  0.79610564  0.56962755  1  -1.21984  0  -0.694117  -1.067658  0  2.366765  0
O  O128  1  0.14611317  0.94814605  0.45294945  1  -1.196959  0  -0.792785  -1.147021  0  2.139075  0
O  O129  1  0.94834687  0.94788004  0.45271881  1  -1.20139  0  -0.793366  -1.147645  0  2.131134  0
O  O130  1  0.94805389  0.14671062  0.45215116  1  -1.200067  0  -0.795196  -1.148692  0  2.14272  0
O  O131  1  0.94790610  0.94881079  0.65051100  1  -1.196945  0  -0.790639  -1.146405  0  2.128014  0
