# generated using pymatgen
data_Zn2H18C23N8O
_symmetry_space_group_name_H-M   'P 1'
_cell_length_a   14.83081725
_cell_length_b   17.70531879
_cell_length_c   15.96359150
_cell_angle_alpha   90.01289383
_cell_angle_beta   90.23789376
_cell_angle_gamma   78.54599542
_symmetry_Int_Tables_number   1
_chemical_formula_structural   Zn2H18C23N8O
_chemical_formula_sum   'Zn8 H72 C92 N32 O4'
_cell_volume   4108.27122781
_cell_formula_units_Z   4
loop_
 _symmetry_equiv_pos_site_id
 _symmetry_equiv_pos_as_xyz
  1  'x, y, z'
loop_
 _atom_site_type_symbol
 _atom_site_label
 _atom_site_symmetry_multiplicity
 _atom_site_fract_x
 _atom_site_fract_y
 _atom_site_fract_z
 _atom_site_occupancy
 _atom_site_pbe_bader_charge
 _atom_site_pbe_bader_spin_density
 _atom_site_pbe_cm5_charge
 _atom_site_pbe_ddec_charge
 _atom_site_pbe_ddec_spin_density
 _atom_site_pbe_ddec_sum_bond_order
 _atom_site_pbe_magmom
Zn  Zn0  1  0.00117708  0.99090616  0.35435038  1  1.187853  0  0.738449  0.615079  0  2.432821  0
Zn  Zn1  1  0.49362445  0.50658510  0.85618494  1  1.188958  0  0.743073  0.614181  0  2.458352  0
Zn  Zn2  1  0.00838733  0.01117116  0.64500619  1  1.1828  0  0.742861  0.606775  0  2.463761  0
Zn  Zn3  1  0.49300270  0.49004383  0.15175192  1  1.183911  0  0.739804  0.607424  0  2.448644  0
Zn  Zn4  1  0.16226644  0.98430414  0.49684720  1  1.186212  0  0.730738  0.608196  0  2.480359  0
Zn  Zn5  1  0.84895213  0.01579723  0.50484584  1  1.183796  0  0.745578  0.610715  0  2.525692  0
Zn  Zn6  1  0.64573451  0.49079614  0.00835795  1  1.191938  0  0.746736  0.619234  0  2.492438  0
Zn  Zn7  1  0.33830419  0.51756250  0.00265815  1  1.184451  0  0.728528  0.604309  0  2.489269  0
H  H8  1  0.01927686  0.81255196  0.31816437  1  0.085798  0  0.114356  0.100408  0  1.010035  0
H  H9  1  0.97979673  0.16633321  0.29561532  1  0.082186  0  0.115036  0.100399  0  1.010671  0
H  H10  1  0.52160992  0.32982894  0.80121083  1  0.075765  0  0.114673  0.10093  0  1.006823  0
H  H11  1  0.48062683  0.68276435  0.81684784  1  0.071515  0  0.114324  0.100883  0  1.011902  0
H  H12  1  0.26534891  0.24845383  0.56531320  1  0.01894  0  0.092763  0.092928  0  1.01455  0
H  H13  1  0.86192041  0.67601412  0.55007489  1  0.070275  0  0.098067  0.102031  0  0.999465  0
H  H14  1  0.66078012  0.80685026  0.04753531  1  0.021734  0  0.094543  0.095041  0  1.015958  0
H  H15  1  0.23103720  0.26137797  0.06908412  1  0.035431  0  0.092016  0.092682  0  1.01575  0
H  H16  1  0.45953313  0.78313372  0.32399132  1  -0.006817  0  0.088975  0.093971  0  0.992444  0
H  H17  1  0.56879654  0.10567725  0.14473335  1  0.053179  0  0.093438  0.101109  0  0.987466  0
H  H18  1  0.92542524  0.38878694  0.65212844  1  0.044793  0  0.092361  0.099088  0  0.987771  0
H  H19  1  0.95934833  0.78697431  0.84611148  1  0.043769  0  0.086479  0.087877  0  0.999873  0
H  H20  1  0.55896941  0.70850541  0.33834854  1  0.03805  0  0.088478  0.091639  0  0.996466  0
H  H21  1  0.54878863  0.16482951  0.23588098  1  0.011659  0  0.085108  0.08364  0  1.008444  0
H  H22  1  0.94976036  0.32348120  0.73815998  1  0.002867  0  0.086534  0.087666  0  1.001305  0
H  H23  1  0.85330218  0.84953635  0.81882029  1  0.03529  0  0.09328  0.100934  0  0.987289  0
H  H24  1  0.53956085  0.87605013  0.39900874  1  0.044992  0  0.085759  0.089082  0  1.021348  0
H  H25  1  0.49848537  0.00573220  0.21607790  1  0.059834  0  0.093309  0.106232  0  0.99354  0
H  H26  1  0.99080533  0.48633933  0.73347578  1  0.022768  0  0.091281  0.099739  0  0.994721  0
H  H27  1  0.87204840  0.70165699  0.92409817  1  0.039718  0  0.087602  0.092425  0  1.009995  0
H  H28  1  0.63822873  0.80120228  0.41278239  1  0.029591  0  0.090165  0.096237  0  0.988897  0
H  H29  1  0.47909000  0.06444400  0.30720826  1  0.00756  0  0.084688  0.085884  0  1.049854  0
H  H30  1  0.01720694  0.41956597  0.81811359  1  0.032678  0  0.0842  0.084128  0  1.038985  0
H  H31  1  0.76665304  0.76296235  0.89427669  1  0.037469  0  0.093214  0.101279  0  0.985685  0
H  H32  1  0.24336178  0.82763725  0.88903910  1  0.032878  0  0.095468  0.095968  0  0.997838  0
H  H33  1  0.75844050  0.19023876  0.88568142  1  0.035843  0  0.094922  0.094832  0  0.998152  0
H  H34  1  0.75420887  0.31601818  0.38595344  1  0.03372  0  0.094206  0.093792  0  0.998653  0
H  H35  1  0.25777668  0.67166950  0.39582510  1  0.06621  0  0.096109  0.097036  0  0.996999  0
H  H36  1  0.88769536  0.28937337  0.23699018  1  0.058757  0  0.095717  0.097056  0  0.99815  0
H  H37  1  0.11470541  0.70157612  0.25338683  1  0.040214  0  0.094987  0.095102  0  1.001915  0
H  H38  1  0.38546582  0.79380822  0.74715690  1  0.036363  0  0.095478  0.096855  0  0.999262  0
H  H39  1  0.61635221  0.21074329  0.74235423  1  0.030899  0  0.09565  0.097186  0  0.997718  0
H  H40  1  0.03263722  0.83361031  0.70134426  1  0.088782  0  0.116062  0.103472  0  1.009351  0
H  H41  1  0.98315727  0.19469784  0.67010430  1  0.083957  0  0.114273  0.100411  0  1.017805  0
H  H42  1  0.51679139  0.30477589  0.17515862  1  0.072291  0  0.115303  0.102253  0  1.013113  0
H  H43  1  0.45584846  0.67313996  0.20510283  1  0.113027  0  0.114133  0.102153  0  1.018545  0
H  H44  1  0.33926114  0.88400967  0.60818402  1  0.069057  0  0.112391  0.099564  0  1.006031  0
H  H45  1  0.66692383  0.10876649  0.61306508  1  0.077209  0  0.11203  0.097776  0  1.019264  0
H  H46  1  0.83291818  0.39673969  0.10992479  1  0.08935  0  0.114385  0.10281  0  0.999523  0
H  H47  1  0.16286817  0.61638656  0.11371378  1  0.066327  0  0.111533  0.096868  0  1.00993  0
H  H48  1  0.13569360  0.92755858  0.80479443  1  0.071804  0  0.115864  0.101082  0  1.000314  0
H  H49  1  0.88084310  0.10756820  0.79843862  1  0.09017  0  0.115585  0.101978  0  0.99979  0
H  H50  1  0.62764923  0.39313187  0.30097941  1  0.084751  0  0.114462  0.10062  0  1.001953  0
H  H51  1  0.36397922  0.56595438  0.31333461  1  0.077619  0  0.116539  0.10298  0  0.998522  0
H  H52  1  0.87438048  0.91064804  0.21096167  1  0.074278  0  0.114623  0.103119  0  1.000613  0
H  H53  1  0.10844221  0.05229258  0.19047685  1  0.067302  0  0.11453  0.101506  0  0.999659  0
H  H54  1  0.38220181  0.44891099  0.69627896  1  0.081205  0  0.11409  0.100895  0  0.999428  0
H  H55  1  0.62256381  0.57634599  0.70174791  1  0.085344  0  0.115134  0.103812  0  0.998726  0
H  H56  1  0.82503401  0.83871914  0.50830217  1  0.091233  0  0.117856  0.108309  0  1.001529  0
H  H57  1  0.19429207  0.16090620  0.47910058  1  0.093175  0  0.117732  0.109074  0  1.000574  0
H  H58  1  0.30764417  0.34254137  0.98097199  1  0.081809  0  0.117157  0.10832  0  1.00265  0
H  H59  1  0.66488911  0.66785570  0.01465246  1  0.139388  0  0.115897  0.104762  0  1.02185  0
H  H60  1  0.23732748  0.79900762  0.50262236  1  0.076082  0  0.112423  0.099568  0  1.011347  0
H  H61  1  0.78747019  0.20046754  0.50262292  1  0.087582  0  0.113117  0.100992  0  1.007975  0
H  H62  1  0.72284141  0.30694268  0.00224365  1  0.087693  0  0.113257  0.100523  0  1.010757  0
H  H63  1  0.26196510  0.70364299  0.99993623  1  0.083477  0  0.112238  0.099273  0  1.009141  0
H  H64  1  0.32933714  0.34247052  0.64357215  1  0.008868  0  0.089485  0.08762  0  1.022148  0
H  H65  1  0.78277045  0.58770666  0.62500379  1  0.03551  0  0.094424  0.094757  0  1.008099  0
H  H66  1  0.73586690  0.89926219  0.11880652  1  0.051078  0  0.092112  0.092483  0  1.011888  0
H  H67  1  0.16288430  0.16715105  0.14265603  1  0.024825  0  0.08955  0.08789  0  1.019698  0
H  H68  1  0.67285146  0.08209594  0.46367628  1  0.028979  0  0.090965  0.079223  0  1.044424  0
H  H69  1  0.56542795  0.05321614  0.48214762  1  0.03247  0  0.104698  0.107352  0  0.988948  0
H  H70  1  0.59195777  0.08507946  0.37972738  1  0.071974  0  0.101909  0.104807  0  1.006891  0
H  H71  1  0.35273649  0.93887284  0.45030030  1  0.065448  0  0.10185  0.097892  0  1.000156  0
H  H72  1  0.31578264  0.02750637  0.50811210  1  0.034158  0  0.096096  0.090433  0  1.027593  0
H  H73  1  0.43195556  0.00044375  0.47329388  1  0.086263  0  0.110405  0.116891  0  0.98901  0
H  H74  1  0.14502326  0.55530801  0.96735614  1  0.053435  0  0.100022  0.094953  0  0.99569  0
H  H75  1  0.19413292  0.46355534  0.01491308  1  0.056366  0  0.09699  0.090668  0  1.036426  0
H  H76  1  0.07443471  0.48692935  0.99170038  1  0.088711  0  0.109632  0.115212  0  0.994898  0
H  H77  1  0.92566274  0.56149884  0.86890412  1  0.058488  0  0.099857  0.099291  0  1.019496  0
H  H78  1  0.90326596  0.47347374  0.91222661  1  0.06117  0  0.097458  0.09449  0  0.997977  0
H  H79  1  0.93453044  0.54534174  0.98009981  1  0.048591  0  0.103483  0.103031  0  0.998119  0
C  C80  1  0.06752983  0.82160243  0.36671069  1  0.404317  0  0.005914  -0.054019  0  3.948718  0
C  C81  1  0.93816269  0.16267239  0.35070832  1  0.403866  0  0.008017  -0.046752  0  3.933883  0
C  C82  1  0.56479097  0.33613355  0.85485759  1  0.392734  0  0.007563  -0.049625  0  3.939476  0
C  C83  1  0.43223076  0.67570783  0.86570853  1  0.452889  0  0.006568  -0.05155  0  3.946381  0
C  C84  1  0.92089708  0.80426432  0.61816694  1  -0.044909  0  -0.035556  -0.032694  0  4.083548  0
C  C85  1  0.09761425  0.21110148  0.58319530  1  -0.01563  0  -0.033637  -0.028035  0  4.073434  0
C  C86  1  0.40216107  0.29077321  0.08633632  1  0.00449  0  -0.034776  -0.025895  0  4.071729  0
C  C87  1  0.56606614  0.70420809  0.12152296  1  0.032752  0  -0.035707  -0.033823  0  4.073489  0
C  C88  1  0.26506455  0.88292133  0.73087625  1  0.007906  0  -0.042836  0.012395  0  4.140926  0
C  C89  1  0.74457702  0.12989126  0.72938541  1  0.034931  0  -0.04287  0.010802  0  4.151415  0
C  C90  1  0.76081440  0.37313227  0.22822134  1  -0.001283  0  -0.043881  0.007294  0  4.154842  0
C  C91  1  0.23563562  0.61344077  0.23805731  1  -0.003335  0  -0.043077  0.013364  0  4.144952  0
C  C92  1  0.74450493  0.92538013  0.28741711  1  0.03923  0  -0.042089  -0.13537  0  4.092174  0
C  C93  1  0.24012081  0.06133327  0.25668174  1  0.046417  0  -0.044688  -0.139754  0  4.087935  0
C  C94  1  0.25188802  0.43960338  0.76366136  1  0.027427  0  -0.049213  -0.14429  0  4.092275  0
C  C95  1  0.73614561  0.59029821  0.79111257  1  0.0234  0  -0.044651  -0.140049  0  4.105047  0
C  C96  1  0.62096700  0.84591067  0.28233769  1  -0.030581  0  -0.015754  0.021119  0  3.886098  0
C  C97  1  0.38243357  0.10639485  0.20317069  1  0.011075  0  -0.018143  0.024859  0  3.87844  0
C  C98  1  0.11096588  0.39111805  0.70991592  1  -0.054124  0  -0.01879  0.02336  0  3.879792  0
C  C99  1  0.83315337  0.69132551  0.78908178  1  -0.084616  0  -0.022651  0.007598  0  3.907762  0
C  C100  1  0.68398345  0.88324508  0.24279033  1  0.013486  0  -0.018112  0.045116  0  4.071207  0
C  C101  1  0.28794242  0.10672793  0.20231352  1  0.024628  0  -0.017017  0.050387  0  4.058191  0
C  C102  1  0.20434037  0.39481129  0.70807024  1  0.020172  0  -0.015439  0.05277  0  4.060233  0
C  C103  1  0.79344917  0.63597396  0.74816677  1  0.014563  0  -0.018312  0.043772  0  4.086344  0
C  C104  1  0.25586102  0.34332402  0.64966893  1  -0.037796  0  -0.106915  -0.151366  0  4.036071  0
C  C105  1  0.80876073  0.63159079  0.66065505  1  -0.028875  0  -0.100751  -0.146684  0  4.021649  0
C  C106  1  0.69192419  0.86907797  0.15539472  1  -0.032092  0  -0.104877  -0.15152  0  4.030114  0
C  C107  1  0.23717516  0.16287186  0.14777006  1  -0.060287  0  -0.105993  -0.14915  0  4.037763  0
C  C108  1  0.21906497  0.28920089  0.60458543  1  -0.031958  0  -0.10311  -0.144613  0  4.03968  0
C  C109  1  0.85431712  0.68186981  0.61789114  1  -0.089855  0  -0.099906  -0.145434  0  4.018711  0
C  C110  1  0.64845771  0.81633795  0.11445044  1  -0.047734  0  -0.10114  -0.144992  0  4.022526  0
C  C111  1  0.27635818  0.21718704  0.10558613  1  -0.06194  0  -0.105915  -0.149193  0  4.040434  0
C  C112  1  0.12667439  0.28047985  0.61350231  1  0.022051  0  -0.015713  0.030117  0  4.063951  0
C  C113  1  0.88955972  0.74049049  0.65936204  1  0.057987  0  -0.011518  0.038656  0  4.064906  0
C  C114  1  0.59227822  0.77275350  0.15700729  1  -0.020975  0  -0.01157  0.036733  0  4.060779  0
C  C115  1  0.37031028  0.22178788  0.11424521  1  -0.003597  0  -0.013213  0.032708  0  4.057611  0
C  C116  1  0.57697528  0.79366447  0.24095402  1  0.002885  0  -0.020877  0.018751  0  3.899313  0
C  C117  1  0.42150798  0.16168411  0.16166226  1  -0.021045  0  -0.019391  0.01815  0  3.891769  0
C  C118  1  0.07414418  0.33645466  0.66475150  1  -0.012388  0  -0.019004  0.018219  0  3.894867  0
C  C119  1  0.87977458  0.74046738  0.74635426  1  -0.019617  0  -0.01996  0.018697  0  3.913828  0
C  C120  1  0.53513261  0.76932689  0.32073662  1  -0.014656  0  -0.159231  -0.199183  0  3.907487  0
C  C121  1  0.51807721  0.12793547  0.19327211  1  -0.034803  0  -0.157105  -0.195281  0  3.902209  0
C  C122  1  0.97771148  0.36444638  0.69898805  1  -0.027395  0  -0.155598  -0.191931  0  3.896175  0
C  C123  1  0.88886437  0.78890888  0.82325782  1  -0.048232  0  -0.15615  -0.195194  0  3.903994  0
C  C124  1  0.98419722  0.84684883  0.64967736  1  0.424848  0  0.008213  -0.046272  0  3.957826  0
C  C125  1  0.03218648  0.17432040  0.62080585  1  0.40698  0  0.009337  -0.045084  0  3.952842  0
C  C126  1  0.46841352  0.32618159  0.12529304  1  0.435786  0  0.007179  -0.047902  0  3.953216  0
C  C127  1  0.50527443  0.65996329  0.15459968  1  0.364412  0  0.007811  -0.046301  0  3.947633  0
C  C128  1  0.58509620  0.82794268  0.36772138  1  -0.017174  0  -0.157204  -0.190232  0  3.900491  0
C  C129  1  0.47412624  0.06490985  0.23869772  1  -0.003555  0  -0.160885  -0.198838  0  3.889446  0
C  C130  1  0.01928972  0.42593569  0.74986262  1  0.009376  0  -0.159991  -0.19614  0  3.897902  0
C  C131  1  0.83479023  0.73413178  0.87166437  1  -0.031176  0  -0.157207  -0.193188  0  3.887144  0
C  C132  1  0.30509853  0.79820044  0.85625928  1  0.009434  0  -0.103774  -0.130856  0  4.062084  0
C  C133  1  0.69538510  0.21544926  0.85166889  1  0.015777  0  -0.103304  -0.130169  0  4.076647  0
C  C134  1  0.81426193  0.28814949  0.34983567  1  -0.050124  0  -0.104589  -0.132119  0  4.075958  0
C  C135  1  0.19556671  0.69965702  0.36227843  1  -0.08867  0  -0.104268  -0.131333  0  4.064113  0
C  C136  1  0.82687986  0.31600171  0.27277407  1  -0.028197  0  -0.108502  -0.139246  0  4.079484  0
C  C137  1  0.17651907  0.67213135  0.28648235  1  0.026343  0  -0.107403  -0.138778  0  4.076148  0
C  C138  1  0.32403455  0.82405511  0.77975199  1  -0.007967  0  -0.106986  -0.138338  0  4.071549  0
C  C139  1  0.67988352  0.18611271  0.77592242  1  -0.067214  0  -0.110777  -0.142697  0  4.081883  0
C  C140  1  0.27950376  0.90359634  0.64754504  1  0.410336  0  -0.000342  -0.070837  0  3.999301  0
C  C141  1  0.72989563  0.10006304  0.64995665  1  0.409352  0  -0.001938  -0.074778  0  4.007196  0
C  C142  1  0.77179197  0.40447662  0.14883224  1  0.384594  0  0.002665  -0.068498  0  4.00405  0
C  C143  1  0.22204175  0.59520779  0.15369173  1  0.394011  0  -0.001621  -0.071259  0  4.00212  0
C  C144  1  0.73211037  0.96275807  0.36569008  1  1.000651  0  0.179375  0.284365  0  4.082314  0
C  C145  1  0.26316041  0.03453474  0.33890766  1  0.993398  0  0.182106  0.291169  0  4.080947  0
C  C146  1  0.23113735  0.46520090  0.84659074  1  1.003255  0  0.185235  0.292632  0  4.076787  0
C  C147  1  0.74333461  0.56392121  0.87464892  1  1.030469  0  0.175947  0.278465  0  4.097648  0
C  C148  1  0.17625907  0.92544207  0.74803247  1  0.369719  0  0.003214  -0.060887  0  3.983406  0
C  C149  1  0.83835862  0.09928618  0.74494781  1  0.374307  0  0.003397  -0.061585  0  3.982369  0
C  C150  1  0.66765010  0.40295004  0.24664396  1  0.389854  0  0.001841  -0.063383  0  3.984878  0
C  C151  1  0.32402070  0.57002248  0.25575428  1  0.410308  0  0.003363  -0.061725  0  3.982469  0
C  C152  1  0.83494696  0.93196832  0.26628422  1  0.423629  0  0.003961  -0.051783  0  4.023086  0
C  C153  1  0.15261362  0.04345743  0.24556002  1  0.41325  0  -0.000568  -0.051962  0  4.049109  0
C  C154  1  0.33918183  0.45734767  0.75175990  1  0.434369  0  0.005158  -0.046055  0  4.046287  0
C  C155  1  0.65613115  0.56656674  0.76252750  1  0.39999  0  0.002722  -0.051667  0  4.024411  0
C  C156  1  0.87963394  0.84852627  0.55000136  1  0.431864  0  0.009866  -0.045651  0  3.95378  0
C  C157  1  0.14077568  0.15672314  0.52413893  1  0.423952  0  0.005305  -0.053376  0  3.952706  0
C  C158  1  0.36074586  0.34595282  0.02711217  1  0.405369  0  0.0036  -0.056401  0  3.956381  0
C  C159  1  0.61051552  0.65804972  0.05611752  1  0.352316  0  0.011527  -0.039596  0  3.942337  0
C  C160  1  0.17835297  0.81501212  0.46110802  1  0.385793  0  0.003592  -0.061745  0  3.958747  0
C  C161  1  0.84041758  0.17977910  0.45656749  1  0.375096  0  0.002375  -0.06293  0  3.970645  0
C  C162  1  0.66716909  0.32480480  0.95759087  1  0.366921  0  0.003789  -0.059402  0  3.963843  0
C  C163  1  0.32107777  0.68598230  0.95937633  1  0.370476  0  0.005151  -0.05981  0  3.957533  0
C  C164  1  0.14657150  0.77146322  0.39758967  1  0.014924  0  -0.040342  0.012662  0  4.124194  0
C  C165  1  0.86569010  0.21738634  0.38528168  1  0.06906  0  -0.040322  0.012893  0  4.127464  0
C  C166  1  0.64180560  0.28486390  0.88782465  1  0.05547  0  -0.042134  0.009902  0  4.129947  0
C  C167  1  0.35333237  0.72716168  0.89417624  1  -0.038808  0  -0.041056  0.012075  0  4.124052  0
C  C168  1  0.62021285  0.05341819  0.43633989  1  0.407061  0  -0.133442  -0.16405  0  3.904252  0
C  C169  1  0.36034800  0.99924354  0.45724706  1  0.363349  0  -0.134932  -0.176058  0  3.91993  0
C  C170  1  0.14235684  0.49354017  0.97012796  1  0.353436  0  -0.135752  -0.172559  0  3.917973  0
C  C171  1  0.89730966  0.53570536  0.92294476  1  0.379653  0  -0.135672  -0.170269  0  3.920484  0
N  N172  1  0.05601216  0.88956903  0.40702582  1  -0.776084  0  -0.281431  -0.175065  0  3.62897  0
N  N173  1  0.95199796  0.09773964  0.39692875  1  -0.793177  0  -0.279663  -0.175692  0  3.620781  0
N  N174  1  0.54844196  0.40141852  0.90038230  1  -0.780341  0  -0.279347  -0.17503  0  3.618607  0
N  N175  1  0.44342088  0.60919318  0.90894105  1  -0.793824  0  -0.280836  -0.18006  0  3.616752  0
N  N176  1  0.97944252  0.91162008  0.60422517  1  -0.799346  0  -0.283708  -0.184745  0  3.630476  0
N  N177  1  0.03858296  0.10325611  0.58832395  1  -0.846858  0  -0.286504  -0.183766  0  3.646994  0
N  N178  1  0.46402176  0.39733698  0.09328991  1  -0.810141  0  -0.28193  -0.181696  0  3.623903  0
N  N179  1  0.51473819  0.59273617  0.11258273  1  -0.77687  0  -0.284709  -0.1913  0  3.629777  0
N  N180  1  0.20576489  0.95357836  0.61778407  1  -0.774309  0  -0.27272  -0.188207  0  3.542665  0
N  N181  1  0.80793147  0.05580006  0.62087105  1  -0.792814  0  -0.274799  -0.175987  0  3.553987  0
N  N182  1  0.69237272  0.44897012  0.12259535  1  -0.783658  0  -0.274853  -0.174507  0  3.553298  0
N  N183  1  0.29595899  0.54597329  0.12372961  1  -0.793007  0  -0.273501  -0.186483  0  3.545841  0
N  N184  1  0.80809165  0.98812658  0.38886374  1  -0.82489  0  -0.286413  -0.284812  0  3.53498  0
N  N185  1  0.19574562  0.00422160  0.37344269  1  -0.812645  0  -0.285551  -0.301313  0  3.484167  0
N  N186  1  0.29972506  0.49477853  0.88065757  1  -0.80303  0  -0.286579  -0.302584  0  3.478007  0
N  N187  1  0.67534220  0.52710653  0.89286141  1  -0.801021  0  -0.280656  -0.270841  0  3.550766  0
N  N188  1  0.14147486  0.96708984  0.68065309  1  -0.797244  0  -0.271258  -0.174113  0  3.547601  0
N  N189  1  0.87552714  0.05544007  0.68011897  1  -0.800991  0  -0.269952  -0.174934  0  3.54912  0
N  N190  1  0.62746561  0.44788973  0.18351879  1  -0.797721  0  -0.268906  -0.172725  0  3.549028  0
N  N191  1  0.35938534  0.53027328  0.18761623  1  -0.788133  0  -0.269268  -0.172407  0  3.542574  0
N  N192  1  0.87243254  0.96944262  0.32649536  1  -0.79203  0  -0.270659  -0.173202  0  3.548253  0
N  N193  1  0.12624530  0.00937107  0.31402259  1  -0.809748  0  -0.280937  -0.184931  0  3.5536  0
N  N194  1  0.36753284  0.49004450  0.82032592  1  -0.81703  0  -0.285666  -0.182917  0  3.575992  0
N  N195  1  0.61955190  0.52961524  0.82367212  1  -0.815396  0  -0.271756  -0.174101  0  3.544664  0
N  N196  1  0.91477646  0.91287744  0.54334740  1  -0.780075  0  -0.286722  -0.183184  0  3.64034  0
N  N197  1  0.10493063  0.09247530  0.52856592  1  -0.735681  0  -0.281078  -0.1787  0  3.626029  0
N  N198  1  0.39812615  0.40936894  0.03258664  1  -0.778905  0  -0.282388  -0.183322  0  3.630113  0
N  N199  1  0.57944098  0.59175961  0.05236840  1  -0.809411  0  -0.286835  -0.181126  0  3.644703  0
N  N200  1  0.12408341  0.88580807  0.46511229  1  -0.789225  0  -0.283336  -0.17955  0  3.613343  0
N  N201  1  0.89201501  0.10818212  0.46202792  1  -0.792761  0  -0.286591  -0.186626  0  3.643643  0
N  N202  1  0.61130343  0.39456611  0.96361455  1  -0.796213  0  -0.283993  -0.184864  0  3.624979  0
N  N203  1  0.37498186  0.61524647  0.96656913  1  -0.761902  0  -0.282546  -0.175709  0  3.611203  0
O  O204  1  0.65667583  0.97390277  0.41645089  1  -1.093046  0  -0.19679  -0.197981  0  2.546249  0
O  O205  1  0.34200090  0.04014030  0.37996997  1  -1.083817  0  -0.177522  -0.160332  0  2.580659  0
O  O206  1  0.15336959  0.45942056  0.88878936  1  -1.087762  0  -0.177914  -0.160728  0  2.572951  0
O  O207  1  0.80307788  0.57180981  0.93775965  1  -1.099776  0  -0.197841  -0.204423  0  2.57435  0
