# generated using pymatgen
data_FeH10Pd(C7N3)2
_symmetry_space_group_name_H-M   'P 1'
_cell_length_a   7.03603455
_cell_length_b   7.20849739
_cell_length_c   8.52219652
_cell_angle_alpha   115.13615521
_cell_angle_beta   90.00036053
_cell_angle_gamma   90.00014752
_symmetry_Int_Tables_number   1
_chemical_formula_structural   FeH10Pd(C7N3)2
_chemical_formula_sum   'Fe1 H10 Pd1 C14 N6'
_cell_volume   391.30664535
_cell_formula_units_Z   1
loop_
 _symmetry_equiv_pos_site_id
 _symmetry_equiv_pos_as_xyz
  1  'x, y, z'
loop_
 _atom_site_type_symbol
 _atom_site_label
 _atom_site_symmetry_multiplicity
 _atom_site_fract_x
 _atom_site_fract_y
 _atom_site_fract_z
 _atom_site_occupancy
 _atom_site_hle17_bader_spin_density
 _atom_site_hle17_ddec_charge
 _atom_site_hle17_ddec_spin_density
 _atom_site_hle17_ddec_sum_bond_order
 _atom_site_hle17_magmom
 _atom_site_hse06_10hf_bader_spin_density
 _atom_site_hse06_10hf_ddec_charge
 _atom_site_hse06_10hf_ddec_spin_density
 _atom_site_hse06_10hf_ddec_sum_bond_order
 _atom_site_hse06_10hf_magmom
 _atom_site_hse06_bader_spin_density
 _atom_site_hse06_ddec_charge
 _atom_site_hse06_ddec_spin_density
 _atom_site_hse06_ddec_sum_bond_order
 _atom_site_hse06_magmom
 _atom_site_pbe_bader_spin_density
 _atom_site_pbe_cm5_charge
 _atom_site_pbe_ddec_charge
 _atom_site_pbe_ddec_spin_density
 _atom_site_pbe_ddec_sum_bond_order
 _atom_site_pbe_magmom
Fe  Fe0  1  0.50000064  0.49986205  0.99971276  1  0  0.601108  0  3.218764  0  0  0.5687  0  3.713923  0  0  0.619201  0  3.649203  0  0  0.787275  0.542038  0  3.750743  0
H  H1  1  0.79346003  0.34913496  0.69859462  1  0  0.085345  0  0.930425  0  0  0.095336  0  0.98836  0  0  0.095081  0  0.988825  0  0  0.121628  0.095691  0  0.988024  0
H  H2  1  0.79344738  0.65086142  0.30145111  1  0  0.085233  0  0.930412  0  0  0.095201  0  0.988414  0  0  0.094943  0  0.988891  0  0  0.121557  0.095567  0  0.988062  0
H  H3  1  0.20655700  0.34916303  0.69862717  1  0  0.085378  0  0.93032  0  0  0.09525  0  0.988383  0  0  0.094991  0  0.988857  0  0  0.121565  0.095607  0  0.988047  0
H  H4  1  0.20656425  0.65086851  0.30145704  1  0  0.085376  0  0.930386  0  0  0.095321  0  0.988402  0  0  0.095063  0  0.98888  0  0  0.12163  0.095687  0  0.988052  0
H  H5  1  0.49997289  0.10322201  0.20601492  1  0  0.106235  0  0.9364  0  0  0.117454  0  0.994581  0  0  0.116925  0  0.997026  0  0  0.110674  0.117852  0  0.992945  0
H  H6  1  0.50001586  0.89681805  0.79405746  1  0  0.106093  0  0.936664  0  0  0.117184  0  0.994981  0  0  0.116734  0  0.997287  0  0  0.110623  0.117587  0  0.993327  0
H  H7  1  0.80655684  0.18570657  0.37134461  1  0  0.08886  0  0.966311  0  0  0.094513  0  1.036113  0  0  0.09679  0  1.034638  0  0  0.095829  0.092825  0  1.03748  0
H  H8  1  0.80659547  0.81432476  0.62872950  1  0  0.08912  0  0.966232  0  0  0.094722  0  1.036073  0  0  0.096994  0  1.034608  0  0  0.095866  0.093037  0  1.037431  0
H  H9  1  0.19341176  0.18572672  0.37138118  1  0  0.089184  0  0.966234  0  0  0.094788  0  1.03604  0  0  0.097059  0  1.034571  0  0  0.095923  0.0931  0  1.037404  0
H  H10  1  0.19343333  0.81432705  0.62873827  1  0  0.089081  0  0.966288  0  0  0.094707  0  1.036102  0  0  0.096983  0  1.03463  0  0  0.095899  0.093023  0  1.037459  0
Pd  Pd11  1  0.00000000  0.00002257  0.00002487  1  0  0.149659  0  3.599404  0  0  0.13148  0  4.174067  0  0  0.139008  0  4.115522  0  0  0.625579  0.126997  0  4.217641  0
C  C12  1  0.80414838  0.80425178  0.00005046  1  0  0.029851  0  3.478755  0  0  0.010487  0  3.833063  0  0  0.025703  0  3.829081  0  0  -0.031351  -0.000349  0  3.837276  0
C  C13  1  0.80415177  0.19574526  0.99990990  1  0  0.029884  0  3.478585  0  0  0.010531  0  3.832912  0  0  0.025752  0  3.828915  0  0  -0.031301  -0.000306  0  3.837133  0
C  C14  1  0.19583611  0.19572358  0.99988858  1  0  0.029995  0  3.478043  0  0  0.010694  0  3.832287  0  0  0.025926  0  3.82828  0  0  -0.031327  -0.000155  0  3.836519  0
C  C15  1  0.19583414  0.80425154  0.00003717  1  0  0.029984  0  3.478181  0  0  0.010636  0  3.832466  0  0  0.025869  0  3.828471  0  0  -0.031365  -0.000207  0  3.836684  0
C  C16  1  0.66513171  0.30951080  0.61949985  1  0  0.113042  0  3.704423  0  0  0.084452  0  3.955035  0  0  0.092412  0  3.977327  0  0  0.051443  0.078714  0  3.939753  0
C  C17  1  0.66513541  0.69051931  0.38058369  1  0  0.113095  0  3.705935  0  0  0.084532  0  3.956566  0  0  0.092466  0  3.978893  0  0  0.051426  0.078832  0  3.941245  0
C  C18  1  0.33486614  0.30952174  0.61951135  1  0  0.113042  0  3.704319  0  0  0.084567  0  3.954888  0  0  0.092523  0  3.977181  0  0  0.051489  0.078828  0  3.939607  0
C  C19  1  0.33487410  0.69051952  0.38059119  1  0  0.112852  0  3.705863  0  0  0.084293  0  3.956516  0  0  0.092222  0  3.978849  0  0  0.051221  0.078594  0  3.941192  0
C  C20  1  0.49998774  0.17353798  0.34703611  1  0  0.022225  0  3.674221  0  0  -0.000589  0  3.920026  0  0  0.003046  0  3.943736  0  0  -0.059738  -0.003189  0  3.903906  0
C  C21  1  0.50001664  0.82651116  0.65304436  1  0  0.022258  0  3.673507  0  0  -0.000236  0  3.919047  0  0  0.00333  0  3.94281  0  0  -0.059722  -0.002787  0  3.902858  0
C  C22  1  0.67053735  0.21949761  0.43920264  1  0  -0.125578  0  3.754184  0  0  -0.132669  0  4.000806  0  0  -0.141668  0  4.025824  0  0  -0.084298  -0.126469  0  3.983882  0
C  C23  1  0.67057537  0.78052953  0.56087747  1  0  -0.126244  0  3.754354  0  0  -0.133351  0  4.000945  0  0  -0.142364  0  4.026023  0  0  -0.084555  -0.127139  0  3.983964  0
C  C24  1  0.32943328  0.21951758  0.43922219  1  0  -0.12605  0  3.754259  0  0  -0.133102  0  4.000856  0  0  -0.1421  0  4.025871  0  0  -0.084412  -0.126906  0  3.983949  0
C  C25  1  0.32944429  0.78053285  0.56088258  1  0  -0.126007  0  3.754227  0  0  -0.133101  0  4.000732  0  0  -0.142114  0  4.025811  0  0  -0.084423  -0.126895  0  3.983762  0
N  N26  1  0.50000642  0.35301746  0.70662101  1  0  -0.225116  0  3.246519  0  0  -0.174735  0  3.512212  0  0  -0.204701  0  3.537707  0  0  -0.282985  -0.153339  0  3.493512  0
N  N27  1  0.50000507  0.64703959  0.29351406  1  0  -0.225638  0  3.246006  0  0  -0.175117  0  3.511392  0  0  -0.205035  0  3.536879  0  0  -0.282484  -0.153733  0  3.492666  0
N  N28  1  0.68927648  0.68656249  0.99995406  1  0  -0.330398  0  3.339267  0  0  -0.297804  0  3.656402  0  0  -0.315075  0  3.663836  0  0  -0.39034  -0.287946  0  3.650806  0
N  N29  1  0.68927468  0.31331509  0.99975626  1  0  -0.330482  0  3.339126  0  0  -0.297887  0  3.656249  0  0  -0.315164  0  3.663692  0  0  -0.390429  -0.288023  0  3.650645  0
N  N30  1  0.31073475  0.31331260  0.99974150  1  0  -0.330767  0  3.338697  0  0  -0.298198  0  3.655859  0  0  -0.315473  0  3.663293  0  0  -0.3905  -0.288336  0  3.650265  0
N  N31  1  0.31072661  0.68654910  0.99994228  1  0  -0.330622  0  3.338611  0  0  -0.298058  0  3.655809  0  0  -0.315328  0  3.66323  0  0  -0.390396  -0.288197  0  3.650218  0
