# generated using pymatgen
data_BaH4C6N2O5
_symmetry_space_group_name_H-M   'P 1'
_cell_length_a   7.13236272
_cell_length_b   9.49308717
_cell_length_c   12.34126461
_cell_angle_alpha   90.00086202
_cell_angle_beta   101.59045480
_cell_angle_gamma   89.99904743
_symmetry_Int_Tables_number   1
_chemical_formula_structural   BaH4C6N2O5
_chemical_formula_sum   'Ba4 H16 C24 N8 O20'
_cell_volume   818.56505985
_cell_formula_units_Z   4
loop_
 _symmetry_equiv_pos_site_id
 _symmetry_equiv_pos_as_xyz
  1  'x, y, z'
loop_
 _atom_site_type_symbol
 _atom_site_label
 _atom_site_symmetry_multiplicity
 _atom_site_fract_x
 _atom_site_fract_y
 _atom_site_fract_z
 _atom_site_occupancy
 _atom_site_hle17_bader_spin_density
 _atom_site_hle17_ddec_charge
 _atom_site_hle17_ddec_spin_density
 _atom_site_hle17_ddec_sum_bond_order
 _atom_site_hle17_magmom
 _atom_site_hse06_10hf_bader_spin_density
 _atom_site_hse06_10hf_ddec_charge
 _atom_site_hse06_10hf_ddec_spin_density
 _atom_site_hse06_10hf_ddec_sum_bond_order
 _atom_site_hse06_10hf_magmom
 _atom_site_hse06_bader_spin_density
 _atom_site_hse06_ddec_charge
 _atom_site_hse06_ddec_spin_density
 _atom_site_hse06_ddec_sum_bond_order
 _atom_site_hse06_magmom
 _atom_site_pbe_bader_spin_density
 _atom_site_pbe_cm5_charge
 _atom_site_pbe_ddec_charge
 _atom_site_pbe_ddec_spin_density
 _atom_site_pbe_ddec_sum_bond_order
 _atom_site_pbe_magmom
Ba  Ba0  1  0.52405261  0.09428472  0.36365069  1  0  1.611732  0  1.181148  0  0  1.44986  0  1.58707  0  0  1.494189  0  1.542183  0  0  0.954589  1.415733  0  1.620844  0
Ba  Ba1  1  0.97594001  0.59429053  0.63635101  1  0  1.611743  0  1.18124  0  0  1.449866  0  1.587152  0  0  1.494199  0  1.542257  0  0  0.954593  1.415748  0  1.620941  0
Ba  Ba2  1  0.47594538  0.90571501  0.63634799  1  0  1.611742  0  1.181144  0  0  1.449822  0  1.587142  0  0  1.494152  0  1.542252  0  0  0.954598  1.4157  0  1.620923  0
Ba  Ba3  1  0.02405940  0.40570920  0.36364946  1  0  1.611732  0  1.181249  0  0  1.449813  0  1.587249  0  0  1.494146  0  1.542355  0  0  0.954568  1.415687  0  1.621035  0
H  H4  1  0.65705437  0.07228967  0.11946106  1  0  0.386707  0  0.925538  0  0  0.348673  0  1.006278  0  0  0.359056  0  0.991206  0  0  0.285842  0.341205  0  1.017085  0
H  H5  1  0.84295158  0.57229461  0.88053061  1  0  0.386727  0  0.925586  0  0  0.348704  0  1.006246  0  0  0.359088  0  0.991171  0  0  0.285877  0.341239  0  1.017051  0
H  H6  1  0.34294648  0.92770900  0.88053796  1  0  0.386738  0  0.925499  0  0  0.348706  0  1.006231  0  0  0.359089  0  0.991159  0  0  0.285859  0.341239  0  1.017037  0
H  H7  1  0.15705071  0.42770406  0.11946696  1  0  0.386715  0  0.92557  0  0  0.348682  0  1.006271  0  0  0.359065  0  0.991199  0  0  0.28586  0.341215  0  1.017078  0
H  H8  1  0.60992763  0.22555451  0.15889674  1  0  0.4134  0  0.891215  0  0  0.387369  0  0.94772  0  0  0.397678  0  0.932784  0  0  0.296494  0.380123  0  0.958171  0
H  H9  1  0.89007112  0.72556124  0.84110231  1  0  0.413359  0  0.891261  0  0  0.387331  0  0.947763  0  0  0.39764  0  0.932829  0  0  0.296466  0.380088  0  0.958212  0
H  H10  1  0.39007036  0.77444521  0.84110194  1  0  0.413343  0  0.891289  0  0  0.387312  0  0.947797  0  0  0.397619  0  0.932865  0  0  0.296472  0.380068  0  0.958246  0
H  H11  1  0.10992974  0.27443848  0.15889670  1  0  0.413366  0  0.891248  0  0  0.38734  0  0.947745  0  0  0.397649  0  0.932811  0  0  0.296471  0.380096  0  0.958195  0
H  H12  1  0.81027313  0.56829150  0.09515380  1  0  0.102222  0  0.928424  0  0  0.10877  0  0.992431  0  0  0.11259  0  0.989322  0  0  0.127758  0.106092  0  0.994861  0
H  H13  1  0.68972285  0.06830171  0.90484395  1  0  0.102287  0  0.928343  0  0  0.108878  0  0.992291  0  0  0.112698  0  0.989181  0  0  0.127818  0.106196  0  0.994723  0
H  H14  1  0.18973487  0.43170717  0.90484768  1  0  0.102259  0  0.928349  0  0  0.108803  0  0.992347  0  0  0.112623  0  0.989237  0  0  0.12778  0.106122  0  0.994779  0
H  H15  1  0.31027512  0.93170434  0.09515959  1  0  0.10228  0  0.928319  0  0  0.108864  0  0.992284  0  0  0.112686  0  0.989172  0  0  0.127803  0.106182  0  0.994717  0
H  H16  1  0.68588623  0.79934791  0.00164430  1  0  0.10043  0  0.961751  0  0  0.108827  0  1.022755  0  0  0.11264  0  1.019531  0  0  0.1194  0.105988  0  1.025122  0
H  H17  1  0.81411545  0.29935419  0.99834866  1  0  0.100504  0  0.961757  0  0  0.108872  0  1.022785  0  0  0.112684  0  1.01956  0  0  0.119426  0.106035  0  1.025148  0
H  H18  1  0.31412034  0.20064866  0.99835620  1  0  0.100418  0  0.961862  0  0  0.108875  0  1.022782  0  0  0.11269  0  1.019557  0  0  0.119426  0.106035  0  1.02515  0
H  H19  1  0.18588397  0.70065080  0.00164938  1  0  0.100525  0  0.961695  0  0  0.108882  0  1.022735  0  0  0.112697  0  1.01951  0  0  0.119437  0.106045  0  1.025097  0
C  C20  1  0.14571711  0.79105444  0.39781669  1  0  0.661609  0  3.912436  0  0  0.60867  0  4.213687  0  0  0.642819  0  4.205074  0  0  0.237324  0.585342  0  4.218824  0
C  C21  1  0.35428412  0.29106080  0.60217822  1  0  0.661731  0  3.911978  0  0  0.608692  0  4.213365  0  0  0.642861  0  4.204721  0  0  0.23728  0.585363  0  4.218501  0
C  C22  1  0.85428517  0.20894634  0.60218330  1  0  0.661736  0  3.912138  0  0  0.608705  0  4.213536  0  0  0.642874  0  4.204892  0  0  0.237326  0.585376  0  4.21867  0
C  C23  1  0.64571530  0.70893892  0.39782144  1  0  0.661568  0  3.912215  0  0  0.608554  0  4.213565  0  0  0.642717  0  4.204931  0  0  0.237199  0.585225  0  4.218707  0
C  C24  1  0.00937302  0.06394816  0.27702017  1  0  0.673827  0  3.933442  0  0  0.6163  0  4.23681  0  0  0.652123  0  4.224262  0  0  0.234206  0.591394  0  4.245279  0
C  C25  1  0.49060953  0.56395656  0.72298372  1  0  0.673603  0  3.933649  0  0  0.61598  0  4.237181  0  0  0.651817  0  4.224621  0  0  0.234055  0.591066  0  4.24566  0
C  C26  1  0.99062353  0.93605156  0.72297996  1  0  0.673755  0  3.933351  0  0  0.616239  0  4.236723  0  0  0.652062  0  4.224175  0  0  0.234178  0.591331  0  4.245195  0
C  C27  1  0.50938846  0.43604843  0.27701415  1  0  0.673679  0  3.933639  0  0  0.616066  0  4.237131  0  0  0.651901  0  4.224573  0  0  0.234104  0.591151  0  4.24561  0
C  C28  1  0.01776348  0.79260998  0.28341148  1  0  0.041717  0  3.693597  0  0  0.041695  0  3.942242  0  0  0.039963  0  3.95906  0  0  0.132339  0.04242  0  3.931603  0
C  C29  1  0.48222193  0.29262121  0.71659051  1  0  0.041606  0  3.693841  0  0  0.041643  0  3.94249  0  0  0.039897  0  3.959322  0  0  0.132374  0.042365  0  3.931843  0
C  C30  1  0.98223306  0.20738975  0.71659108  1  0  0.041719  0  3.693471  0  0  0.041747  0  3.942106  0  0  0.039999  0  3.958939  0  0  0.132387  0.042476  0  3.931464  0
C  C31  1  0.51777747  0.70738167  0.28341239  1  0  0.041871  0  3.693808  0  0  0.041848  0  3.942477  0  0  0.040112  0  3.959296  0  0  0.132391  0.042569  0  3.931838  0
C  C32  1  0.95540458  0.91975188  0.22939169  1  0  0.074847  0  3.674498  0  0  0.071329  0  3.927544  0  0  0.073487  0  3.940755  0  0  0.142932  0.069316  0  3.91922  0
C  C33  1  0.54458048  0.41975597  0.77060961  1  0  0.074943  0  3.674345  0  0  0.071418  0  3.927446  0  0  0.073576  0  3.940657  0  0  0.142912  0.06942  0  3.919099  0
C  C34  1  0.04459196  0.08024574  0.77061088  1  0  0.074811  0  3.67444  0  0  0.071271  0  3.9275  0  0  0.073432  0  3.940712  0  0  0.142878  0.069258  0  3.919177  0
C  C35  1  0.45541894  0.58024375  0.22938924  1  0  0.07484  0  3.67458  0  0  0.071369  0  3.927582  0  0  0.073526  0  3.940791  0  0  0.1429  0.069367  0  3.919244  0
C  C36  1  0.85030242  0.67014364  0.13385975  1  0  0.0733  0  3.690696  0  0  0.043192  0  3.96212  0  0  0.044868  0  3.978476  0  0  0.055717  0.041348  0  3.951728  0
C  C37  1  0.64968736  0.17014937  0.86613600  1  0  0.073309  0  3.690464  0  0  0.043201  0  3.961866  0  0  0.044877  0  3.97822  0  0  0.055732  0.04136  0  3.951474  0
C  C38  1  0.14969842  0.32985397  0.86614170  1  0  0.073363  0  3.690498  0  0  0.043277  0  3.961904  0  0  0.044946  0  3.978272  0  0  0.055776  0.041434  0  3.951513  0
C  C39  1  0.35031348  0.82985246  0.13386544  1  0  0.073321  0  3.690525  0  0  0.043203  0  3.961928  0  0  0.044876  0  3.97829  0  0  0.055712  0.041362  0  3.951537  0
C  C40  1  0.78486484  0.79641858  0.08167928  1  0  0.085191  0  3.675791  0  0  0.0557  0  3.938662  0  0  0.058744  0  3.95418  0  0  0.054806  0.053827  0  3.928337  0
C  C41  1  0.71513401  0.29642241  0.91831817  1  0  0.085081  0  3.675362  0  0  0.055588  0  3.938271  0  0  0.058635  0  3.953783  0  0  0.054714  0.053714  0  3.927949  0
C  C42  1  0.21513600  0.20357904  0.91832217  1  0  0.085152  0  3.675774  0  0  0.055627  0  3.93862  0  0  0.058671  0  3.954135  0  0  0.054763  0.053756  0  3.928295  0
C  C43  1  0.28486683  0.70357942  0.08168327  1  0  0.085061  0  3.675393  0  0  0.05558  0  3.938297  0  0  0.058623  0  3.953815  0  0  0.054718  0.053706  0  3.927975  0
N  N44  1  0.96222610  0.66868709  0.23507072  1  0  -0.316332  0  3.184221  0  0  -0.275952  0  3.452856  0  0  -0.284344  0  3.471195  0  0  -0.329732  -0.269177  0  3.44078  0
N  N45  1  0.53776226  0.16869432  0.76492971  1  0  -0.316331  0  3.184243  0  0  -0.275987  0  3.452906  0  0  -0.284379  0  3.471253  0  0  -0.329796  -0.269209  0  3.440823  0
N  N46  1  0.03777188  0.33131158  0.76493120  1  0  -0.316376  0  3.184161  0  0  -0.276021  0  3.452791  0  0  -0.284411  0  3.471134  0  0  -0.329762  -0.269249  0  3.440717  0
N  N47  1  0.46223714  0.83130856  0.23507400  1  0  -0.316444  0  3.184349  0  0  -0.276079  0  3.453023  0  0  -0.284472  0  3.471366  0  0  -0.329766  -0.269302  0  3.440942  0
N  N48  1  0.83523476  0.92096411  0.13015326  1  0  -0.29133  0  3.095966  0  0  -0.247425  0  3.350708  0  0  -0.256257  0  3.363095  0  0  -0.286737  -0.24135  0  3.342318  0
N  N49  1  0.66476033  0.42097288  0.86984193  1  0  -0.291369  0  3.095489  0  0  -0.247464  0  3.350243  0  0  -0.256297  0  3.362629  0  0  -0.286712  -0.241391  0  3.34185  0
N  N50  1  0.16476322  0.07903351  0.86984866  1  0  -0.291353  0  3.095888  0  0  -0.247457  0  3.350661  0  0  -0.256289  0  3.363047  0  0  -0.28677  -0.241381  0  3.34227  0
N  N51  1  0.33524196  0.57902790  0.13015725  1  0  -0.29132  0  3.095677  0  0  -0.247416  0  3.35039  0  0  -0.256248  0  3.362779  0  0  -0.286694  -0.241342  0  3.341999  0
O  O52  1  0.23839997  0.90333690  0.42676564  1  0  -0.686137  0  2.01676  0  0  -0.624444  0  2.259867  0  0  -0.652638  0  2.252941  0  0  -0.351812  -0.603843  0  2.263984  0
O  O53  1  0.26159196  0.40336387  0.57323433  1  0  -0.686237  0  2.016218  0  0  -0.624508  0  2.259393  0  0  -0.652713  0  2.252458  0  0  -0.351803  -0.603905  0  2.263511  0
O  O54  1  0.76159802  0.09666493  0.57323223  1  0  -0.686152  0  2.016694  0  0  -0.62441  0  2.259807  0  0  -0.65261  0  2.252868  0  0  -0.351791  -0.603812  0  2.263927  0
O  O55  1  0.73841317  0.59663586  0.42676762  1  0  -0.686249  0  2.01629  0  0  -0.624492  0  2.259391  0  0  -0.652698  0  2.25246  0  0  -0.351761  -0.603886  0  2.263511  0
O  O56  1  0.55168781  0.13424712  0.13231608  1  0  -0.847407  0  1.83344  0  0  -0.796091  0  2.004968  0  0  -0.816182  0  1.975927  0  0  -0.607478  -0.781276  0  2.025225  0
O  O57  1  0.94831552  0.63424838  0.86768328  1  0  -0.847423  0  1.833574  0  0  -0.796056  0  2.004962  0  0  -0.81615  0  1.97592  0  0  -0.607493  -0.781243  0  2.025216  0
O  O58  1  0.44831305  0.86575049  0.86768212  1  0  -0.847395  0  1.833466  0  0  -0.796061  0  2.004984  0  0  -0.816152  0  1.975946  0  0  -0.607475  -0.781247  0  2.025238  0
O  O59  1  0.05168676  0.36575134  0.13231591  1  0  -0.847414  0  1.833531  0  0  -0.796059  0  2.004992  0  0  -0.816151  0  1.975949  0  0  -0.607479  -0.781247  0  2.025247  0
O  O60  1  0.15126446  0.12387796  0.24794864  1  0  -0.708006  0  2.002992  0  0  -0.642845  0  2.238969  0  0  -0.671444  0  2.22851  0  0  -0.357466  -0.621701  0  2.245381  0
O  O61  1  0.34871411  0.62388450  0.75205386  1  0  -0.707829  0  2.003151  0  0  -0.642597  0  2.239107  0  0  -0.67119  0  2.228626  0  0  -0.357287  -0.621475  0  2.245581  0
O  O62  1  0.84873210  0.87611754  0.75205069  1  0  -0.708015  0  2.002908  0  0  -0.64284  0  2.238848  0  0  -0.67143  0  2.228366  0  0  -0.357456  -0.621704  0  2.245287  0
O  O63  1  0.65128103  0.37611627  0.24794125  1  0  -0.707872  0  2.003064  0  0  -0.642659  0  2.239038  0  0  -0.671252  0  2.228556  0  0  -0.357299  -0.621546  0  2.245531  0
O  O64  1  0.90089328  0.11910644  0.33426436  1  0  -0.680188  0  1.987369  0  0  -0.61741  0  2.228219  0  0  -0.645148  0  2.218877  0  0  -0.360489  -0.597631  0  2.235267  0
O  O65  1  0.59909314  0.61911335  0.66574013  1  0  -0.680174  0  1.987492  0  0  -0.617361  0  2.228373  0  0  -0.645108  0  2.219026  0  0  -0.360533  -0.597575  0  2.235421  0
O  O66  1  0.09910328  0.88089749  0.66573334  1  0  -0.680128  0  1.987391  0  0  -0.61736  0  2.228246  0  0  -0.645099  0  2.218903  0  0  -0.360479  -0.597588  0  2.235317  0
O  O67  1  0.40090629  0.38088532  0.33425709  1  0  -0.680203  0  1.987472  0  0  -0.617403  0  2.228366  0  0  -0.64515  0  2.219024  0  0  -0.360564  -0.597603  0  2.235381  0
O  O68  1  0.15152417  0.67937791  0.45486671  1  0  -0.695575  0  1.959847  0  0  -0.636235  0  2.201321  0  0  -0.662166  0  2.192422  0  0  -0.347697  -0.617823  0  2.20769  0
O  O69  1  0.34848058  0.17939165  0.54512977  1  0  -0.695531  0  1.960076  0  0  -0.636157  0  2.201597  0  0  -0.662089  0  2.192685  0  0  -0.347633  -0.617748  0  2.207963  0
O  O70  1  0.84849100  0.32062181  0.54513318  1  0  -0.695629  0  1.959712  0  0  -0.636264  0  2.201243  0  0  -0.662201  0  2.19233  0  0  -0.347701  -0.617853  0  2.20761  0
O  O71  1  0.65151739  0.82060492  0.45487215  1  0  -0.695448  0  1.960098  0  0  -0.636087  0  2.201607  0  0  -0.662017  0  2.192699  0  0  -0.347596  -0.617676  0  2.207976  0
