# generated using pymatgen
data_ZnH8C13NClO4
_symmetry_space_group_name_H-M   'P 1'
_cell_length_a   7.62931252
_cell_length_b   9.70469102
_cell_length_c   10.70346425
_cell_angle_alpha   114.85689033
_cell_angle_beta   95.11011539
_cell_angle_gamma   102.32895934
_symmetry_Int_Tables_number   1
_chemical_formula_structural   ZnH8C13NClO4
_chemical_formula_sum   'Zn2 H16 C26 N2 Cl2 O8'
_cell_volume   688.04381011
_cell_formula_units_Z   2
loop_
 _symmetry_equiv_pos_site_id
 _symmetry_equiv_pos_as_xyz
  1  'x, y, z'
loop_
 _atom_site_type_symbol
 _atom_site_label
 _atom_site_symmetry_multiplicity
 _atom_site_fract_x
 _atom_site_fract_y
 _atom_site_fract_z
 _atom_site_occupancy
 _atom_site_hle17_bader_spin_density
 _atom_site_hle17_ddec_charge
 _atom_site_hle17_ddec_spin_density
 _atom_site_hle17_ddec_sum_bond_order
 _atom_site_hle17_magmom
 _atom_site_hse06_10hf_bader_spin_density
 _atom_site_hse06_10hf_ddec_charge
 _atom_site_hse06_10hf_ddec_spin_density
 _atom_site_hse06_10hf_ddec_sum_bond_order
 _atom_site_hse06_10hf_magmom
 _atom_site_hse06_bader_spin_density
 _atom_site_hse06_ddec_charge
 _atom_site_hse06_ddec_spin_density
 _atom_site_hse06_ddec_sum_bond_order
 _atom_site_hse06_magmom
 _atom_site_pbe_bader_spin_density
 _atom_site_pbe_cm5_charge
 _atom_site_pbe_ddec_charge
 _atom_site_pbe_ddec_spin_density
 _atom_site_pbe_ddec_sum_bond_order
 _atom_site_pbe_magmom
Zn  Zn0  1  0.35141873  0.03236341  0.43037189  1  0  1.043915  0  1.865776  0  0  0.871767  0  2.336505  0  0  0.924588  0  2.270453  0  0  0.674003  0.835018  0  2.381869  0
Zn  Zn1  1  0.64858186  0.96763791  0.56962777  1  0  1.043904  0  1.865832  0  0  0.871741  0  2.336573  0  0  0.924567  0  2.270503  0  0  0.673982  0.834991  0  2.38194  0
H  H2  1  0.94863507  0.92103538  0.32117770  1  0  0.099413  0  0.941141  0  0  0.10609  0  1.006749  0  0  0.108847  0  1.003913  0  0  0.124088  0.104102  0  1.008636  0
H  H3  1  0.05136305  0.07896239  0.67882231  1  0  0.099407  0  0.941155  0  0  0.106083  0  1.006767  0  0  0.108841  0  1.003928  0  0  0.124083  0.104095  0  1.008656  0
H  H4  1  0.72061198  0.96576083  0.16895517  1  0  0.129996  0  0.939123  0  0  0.139129  0  0.997442  0  0  0.142245  0  0.996979  0  0  0.112846  0.136922  0  0.997776  0
H  H5  1  0.27938389  0.03423813  0.83104795  1  0  0.130005  0  0.939171  0  0  0.139141  0  0.997481  0  0  0.142257  0  0.997017  0  0  0.112849  0.136934  0  0.997816  0
H  H6  1  0.16694916  0.30643064  0.14346743  1  0  0.12474  0  0.934933  0  0  0.135801  0  0.990222  0  0  0.138506  0  0.99074  0  0  0.113233  0.13404  0  0.989701  0
H  H7  1  0.83304409  0.69356833  0.85653180  1  0  0.124687  0  0.935055  0  0  0.135816  0  0.990274  0  0  0.138521  0  0.990792  0  0  0.113245  0.134056  0  0.989755  0
H  H8  1  0.37702206  0.24583064  0.29589227  1  0  0.092582  0  0.939672  0  0  0.102213  0  0.99964  0  0  0.105233  0  0.996097  0  0  0.123161  0.099963  0  1.002315  0
H  H9  1  0.62297475  0.75416714  0.70410393  1  0  0.092548  0  0.939729  0  0  0.10218  0  0.99969  0  0  0.105204  0  0.996148  0  0  0.123147  0.099935  0  1.002367  0
H  H10  1  0.11720686  0.33400225  0.59329765  1  0  0.108428  0  0.9644  0  0  0.113184  0  1.035334  0  0  0.117214  0  1.032023  0  0  0.101368  0.11005  0  1.038064  0
H  H11  1  0.88279071  0.66599789  0.40670230  1  0  0.108432  0  0.964417  0  0  0.113181  0  1.035356  0  0  0.117211  0  1.032049  0  0  0.101369  0.110047  0  1.038081  0
H  H12  1  0.66860641  0.42906557  0.40015703  1  0  0.097796  0  0.948404  0  0  0.108287  0  1.008009  0  0  0.112031  0  1.005128  0  0  0.101715  0.105546  0  1.010262  0
H  H13  1  0.33139434  0.57093220  0.59984222  1  0  0.097775  0  0.948411  0  0  0.10828  0  1.008004  0  0  0.112016  0  1.005133  0  0  0.101706  0.105545  0  1.010257  0
H  H14  1  0.20261878  0.36704256  0.82845571  1  0  0.101691  0  0.948749  0  0  0.111891  0  1.010107  0  0  0.115252  0  1.007997  0  0  0.10491  0.1095  0  1.011611  0
H  H15  1  0.79738784  0.63296111  0.17154524  1  0  0.101737  0  0.948843  0  0  0.111907  0  1.010217  0  0  0.115289  0  1.008086  0  0  0.104938  0.109513  0  1.011718  0
H  H16  1  0.77023094  0.39979751  0.94127699  1  0  0.0997  0  0.953603  0  0  0.108363  0  1.014884  0  0  0.112338  0  1.011907  0  0  0.098267  0.105428  0  1.017135  0
H  H17  1  0.22977529  0.60020497  0.05872441  1  0  0.09973  0  0.953579  0  0  0.108406  0  1.014843  0  0  0.112381  0  1.011867  0  0  0.098297  0.105485  0  1.017077  0
C  C18  1  0.99163578  0.00359949  0.27809395  1  0  0.16013  0  3.656198  0  0  0.123885  0  3.914935  0  0  0.132555  0  3.93202  0  0  0.056896  0.11848  0  3.902715  0
C  C19  1  0.00836048  0.99640065  0.72190685  1  0  0.160148  0  3.65622  0  0  0.12391  0  3.914939  0  0  0.132577  0  3.932025  0  0  0.056886  0.118501  0  3.902722  0
C  C20  1  0.86520742  0.02848892  0.19375861  1  0  -0.17913  0  3.705282  0  0  -0.20072  0  3.96041  0  0  -0.209968  0  3.982122  0  0  -0.087371  -0.195028  0  3.945812  0
C  C21  1  0.13479015  0.97151121  0.80624414  1  0  -0.179242  0  3.705322  0  0  -0.200819  0  3.960459  0  0  -0.210068  0  3.982172  0  0  -0.087411  -0.195124  0  3.945862  0
C  C22  1  0.92818182  0.13825271  0.14427393  1  0  0.181151  0  3.814839  0  0  0.187764  0  4.082617  0  0  0.196065  0  4.10314  0  0  0.033947  0.182227  0  4.069542  0
C  C23  1  0.07180972  0.86174508  0.85572754  1  0  0.181297  0  3.814732  0  0  0.187857  0  4.08258  0  0  0.196159  0  4.103102  0  0  0.034005  0.182325  0  4.069502  0
C  C24  1  0.11403207  0.21979640  0.18020859  1  0  -0.183629  0  3.729114  0  0  -0.203804  0  3.97887  0  0  -0.213015  0  4.00132  0  0  -0.086167  -0.197928  0  3.964353  0
C  C25  1  0.88596288  0.78020375  0.81979307  1  0  -0.18358  0  3.729196  0  0  -0.203806  0  3.978959  0  0  -0.213017  0  4.001409  0  0  -0.086168  -0.197928  0  3.964446  0
C  C26  1  0.23056609  0.18695746  0.26457948  1  0  0.148695  0  3.686582  0  0  0.11482  0  3.940501  0  0  0.123105  0  3.957847  0  0  0.05319  0.109343  0  3.929177  0
C  C27  1  0.76942886  0.81304269  0.73541938  1  0  0.148729  0  3.686453  0  0  0.114857  0  3.940365  0  0  0.123137  0  3.957712  0  0  0.053213  0.10937  0  3.929049  0
C  C28  1  0.74952918  0.22572433  0.49369253  1  0  0.657919  0  3.893766  0  0  0.606506  0  4.183581  0  0  0.641991  0  4.176443  0  0  0.212619  0.582859  0  4.187249  0
C  C29  1  0.25047064  0.77427462  0.50630711  1  0  0.657745  0  3.893965  0  0  0.60633  0  4.183784  0  0  0.641816  0  4.17665  0  0  0.212558  0.582686  0  4.187441  0
C  C30  1  0.87907619  0.36732131  0.49685131  1  0  -0.064292  0  3.758089  0  0  -0.041802  0  3.990569  0  0  -0.049115  0  4.014134  0  0  -0.020842  -0.037122  0  3.974696  0
C  C31  1  0.12092363  0.63267765  0.50314833  1  0  -0.064312  0  3.758218  0  0  -0.0418  0  3.990664  0  0  -0.049114  0  4.014229  0  0  -0.020811  -0.037119  0  3.974786  0
C  C32  1  0.06613975  0.40766752  0.55369564  1  0  -0.074876  0  3.727765  0  0  -0.099354  0  3.980695  0  0  -0.100283  0  4.001329  0  0  -0.087935  -0.098486  0  3.967205  0
C  C33  1  0.93386046  0.59233262  0.44630354  1  0  -0.074841  0  3.727752  0  0  -0.099318  0  3.980667  0  0  -0.100249  0  4.001305  0  0  -0.087931  -0.09845  0  3.967168  0
C  C34  1  0.81413858  0.46055377  0.44340331  1  0  -0.07259  0  3.741163  0  0  -0.096762  0  3.992866  0  0  -0.097669  0  4.013079  0  0  -0.088452  -0.096279  0  3.979877  0
C  C35  1  0.18585993  0.53944519  0.55659531  1  0  -0.072561  0  3.741244  0  0  -0.096752  0  3.992947  0  0  -0.097651  0  4.013162  0  0  -0.088451  -0.096275  0  3.979964  0
C  C36  1  0.47151505  0.22693335  0.73568945  1  0  0.653734  0  3.897695  0  0  0.603235  0  4.189237  0  0  0.63825  0  4.1818  0  0  0.210724  0.579415  0  4.193412  0
C  C37  1  0.52849119  0.77306914  0.26431009  1  0  0.653932  0  3.897279  0  0  0.603328  0  4.188992  0  0  0.638341  0  4.181552  0  0  0.210757  0.57951  0  4.193163  0
C  C38  1  0.48509874  0.36885227  0.87147573  1  0  -0.055949  0  3.752617  0  0  -0.03315  0  3.983868  0  0  -0.039573  0  4.006136  0  0  -0.017843  -0.028666  0  3.96852  0
C  C39  1  0.51490827  0.63115258  0.12852383  1  0  -0.055809  0  3.752497  0  0  -0.033011  0  3.983815  0  0  -0.039434  0  4.006089  0  0  -0.01773  -0.028529  0  3.96846  0
C  C40  1  0.33235447  0.42527113  0.90400887  1  0  -0.082055  0  3.74737  0  0  -0.105617  0  3.997448  0  0  -0.106616  0  4.017946  0  0  -0.088522  -0.104829  0  3.983126  0
C  C41  1  0.66765517  0.57473371  0.09599178  1  0  -0.08221  0  3.747497  0  0  -0.10575  0  3.997604  0  0  -0.106766  0  4.018093  0  0  -0.0886  -0.104955  0  3.983266  0
C  C42  1  0.65272594  0.44492175  0.96803179  1  0  -0.082516  0  3.761724  0  0  -0.104904  0  4.011042  0  0  -0.105633  0  4.030654  0  0  -0.093356  -0.104277  0  3.997618  0
C  C43  1  0.34728292  0.55508073  0.03196791  1  0  -0.082624  0  3.761757  0  0  -0.105023  0  4.011098  0  0  -0.105752  0  4.030706  0  0  -0.093423  -0.104405  0  3.997668  0
N  N44  1  0.17114290  0.08082634  0.31253989  1  0  -0.318901  0  3.269051  0  0  -0.238867  0  3.546987  0  0  -0.259021  0  3.561122  0  0  -0.328594  -0.225186  0  3.537253  0
N  N45  1  0.82885638  0.91917498  0.68745969  1  0  -0.318897  0  3.269035  0  0  -0.238876  0  3.546987  0  0  -0.259026  0  3.561119  0  0  -0.328573  -0.225189  0  3.53725  0
Cl  Cl46  1  0.77781698  0.17161906  0.03818786  1  0  -0.055155  0  1.370647  0  0  -0.039046  0  1.589644  0  0  -0.043499  0  1.585521  0  0  0.036314  -0.03598  0  1.592852  0
Cl  Cl47  1  0.22217418  0.82837755  0.96181406  1  0  -0.055209  0  1.370597  0  0  -0.03908  0  1.589621  0  0  -0.043534  0  1.585497  0  0  0.036294  -0.036015  0  1.592835  0
O  O48  1  0.58172194  0.19447323  0.43895198  1  0  -0.644545  0  2.095855  0  0  -0.578272  0  2.360534  0  0  -0.607158  0  2.346524  0  0  -0.316023  -0.558155  0  2.369237  0
O  O49  1  0.41827679  0.80553046  0.56105033  1  0  -0.644437  0  2.095924  0  0  -0.578161  0  2.360592  0  0  -0.607047  0  2.346578  0  0  -0.315997  -0.558055  0  2.369305  0
O  O50  1  0.81594132  0.14701713  0.54578152  1  0  -0.623445  0  2.072967  0  0  -0.554908  0  2.333445  0  0  -0.58419  0  2.321152  0  0  -0.311676  -0.535166  0  2.341307  0
O  O51  1  0.18405812  0.85298065  0.45421485  1  0  -0.62336  0  2.07293  0  0  -0.554836  0  2.33341  0  0  -0.584118  0  2.321125  0  0  -0.311661  -0.535094  0  2.341265  0
O  O52  1  0.34613884  0.19452032  0.63241454  1  0  -0.624645  0  2.049796  0  0  -0.55889  0  2.308768  0  0  -0.587626  0  2.296041  0  0  -0.311519  -0.538564  0  2.316873  0
O  O53  1  0.65386244  0.80547507  0.36758851  1  0  -0.62482  0  2.049632  0  0  -0.558971  0  2.308587  0  0  -0.58771  0  2.295864  0  0  -0.311558  -0.538647  0  2.31669  0
O  O54  1  0.58666633  0.14947279  0.73549412  1  0  -0.638121  0  2.081467  0  0  -0.576794  0  2.345272  0  0  -0.60481  0  2.331975  0  0  -0.31898  -0.557183  0  2.353648  0
O  O55  1  0.41334973  0.85053558  0.26450736  1  0  -0.638214  0  2.081384  0  0  -0.576859  0  2.345264  0  0  -0.604873  0  2.331965  0  0  -0.319017  -0.557252  0  2.353643  0
