# generated using pymatgen
data_CdH9C13NO5
_symmetry_space_group_name_H-M   'P 1'
_cell_length_a   10.38794520
_cell_length_b   10.94155654
_cell_length_c   12.05930813
_cell_angle_alpha   114.43778139
_cell_angle_beta   90.00037355
_cell_angle_gamma   89.99998446
_symmetry_Int_Tables_number   1
_chemical_formula_structural   CdH9C13NO5
_chemical_formula_sum   'Cd4 H36 C52 N4 O20'
_cell_volume   1247.86807716
_cell_formula_units_Z   4
loop_
 _symmetry_equiv_pos_site_id
 _symmetry_equiv_pos_as_xyz
  1  'x, y, z'
loop_
 _atom_site_type_symbol
 _atom_site_label
 _atom_site_symmetry_multiplicity
 _atom_site_fract_x
 _atom_site_fract_y
 _atom_site_fract_z
 _atom_site_occupancy
 _atom_site_hle17_bader_spin_density
 _atom_site_hle17_ddec_charge
 _atom_site_hle17_ddec_spin_density
 _atom_site_hle17_ddec_sum_bond_order
 _atom_site_hle17_magmom
 _atom_site_hse06_10hf_bader_spin_density
 _atom_site_hse06_10hf_ddec_charge
 _atom_site_hse06_10hf_ddec_spin_density
 _atom_site_hse06_10hf_ddec_sum_bond_order
 _atom_site_hse06_10hf_magmom
 _atom_site_hse06_bader_spin_density
 _atom_site_hse06_ddec_charge
 _atom_site_hse06_ddec_spin_density
 _atom_site_hse06_ddec_sum_bond_order
 _atom_site_hse06_magmom
 _atom_site_pbe_bader_spin_density
 _atom_site_pbe_cm5_charge
 _atom_site_pbe_ddec_charge
 _atom_site_pbe_ddec_spin_density
 _atom_site_pbe_ddec_sum_bond_order
 _atom_site_pbe_magmom
Cd  Cd0  1  0.02963508  0.14012244  0.95269364  1  0  1.210669  0  1.58359  0  0  1.025863  0  2.016046  0  0  1.087578  0  1.959244  0  0  0.787386  0.982125  0  2.054515  0
Cd  Cd1  1  0.52963519  0.35987917  0.04730789  1  0  1.210631  0  1.583603  0  0  1.025825  0  2.01606  0  0  1.08754  0  1.959264  0  0  0.787389  0.9821  0  2.054503  0
Cd  Cd2  1  0.97036521  0.85987809  0.04730747  1  0  1.210672  0  1.583551  0  0  1.025868  0  2.016007  0  0  1.087584  0  1.959205  0  0  0.787408  0.982127  0  2.054477  0
Cd  Cd3  1  0.47036510  0.64012036  0.95269284  1  0  1.21066  0  1.583556  0  0  1.025859  0  2.016006  0  0  1.087576  0  1.959206  0  0  0.787399  0.982118  0  2.054478  0
H  H4  1  0.65852370  0.86846044  0.99118315  1  0  0.090595  0  0.972252  0  0  0.094475  0  1.045008  0  0  0.097687  0  1.04145  0  0  0.115493  0.092137  0  1.04751  0
H  H5  1  0.15852312  0.63153715  0.00881842  1  0  0.090671  0  0.972155  0  0  0.094544  0  1.044923  0  0  0.097757  0  1.041363  0  0  0.115525  0.092207  0  1.047424  0
H  H6  1  0.34147756  0.13153910  0.00881675  1  0  0.090589  0  0.972227  0  0  0.094459  0  1.044997  0  0  0.097673  0  1.041437  0  0  0.115495  0.092122  0  1.047499  0
H  H7  1  0.84147718  0.36846339  0.99118104  1  0  0.090651  0  0.972137  0  0  0.094528  0  1.044909  0  0  0.097742  0  1.041347  0  0  0.115512  0.092191  0  1.04741  0
H  H8  1  0.62506375  0.00313382  0.70478491  1  0  0.110089  0  0.956846  0  0  0.118849  0  1.023184  0  0  0.121775  0  1.020806  0  0  0.113487  0.116705  0  1.024928  0
H  H9  1  0.12506525  0.49687106  0.29522335  1  0  0.109989  0  0.956938  0  0  0.118765  0  1.023283  0  0  0.121691  0  1.020905  0  0  0.113486  0.116622  0  1.025029  0
H  H10  1  0.37493558  0.99686471  0.29521544  1  0  0.110058  0  0.95686  0  0  0.118811  0  1.02321  0  0  0.121737  0  1.02083  0  0  0.113482  0.116658  0  1.024964  0
H  H11  1  0.87493408  0.50312847  0.70477655  1  0  0.110019  0  0.95692  0  0  0.118801  0  1.023256  0  0  0.121727  0  1.020879  0  0  0.113503  0.116658  0  1.025002  0
H  H12  1  0.32992277  0.76712025  0.77614152  1  0  0.086453  0  0.9528  0  0  0.0944  0  1.017444  0  0  0.09717  0  1.015083  0  0  0.11511  0.092333  0  1.019217  0
H  H13  1  0.82992523  0.73287983  0.22385697  1  0  0.086481  0  0.952757  0  0  0.094416  0  1.017412  0  0  0.097186  0  1.015051  0  0  0.115109  0.092347  0  1.019189  0
H  H14  1  0.67007656  0.23287928  0.22386005  1  0  0.086461  0  0.952812  0  0  0.094464  0  1.017384  0  0  0.097235  0  1.015022  0  0  0.115105  0.092393  0  1.019167  0
H  H15  1  0.17007506  0.26711971  0.77614211  1  0  0.086477  0  0.95279  0  0  0.094468  0  1.017375  0  0  0.097239  0  1.015013  0  0  0.115145  0.092399  0  1.019154  0
H  H16  1  0.08915047  0.95100451  0.54452319  1  0  0.094992  0  0.943955  0  0  0.106818  0  1.001816  0  0  0.109776  0  1.000361  0  0  0.103248  0.104652  0  1.003005  0
H  H17  1  0.58915090  0.54899993  0.45547477  1  0  0.095005  0  0.94394  0  0  0.106761  0  1.001888  0  0  0.109719  0  1.000434  0  0  0.103234  0.104593  0  1.003082  0
H  H18  1  0.91084886  0.04899603  0.45547626  1  0  0.094969  0  0.943944  0  0  0.106746  0  1.00187  0  0  0.109703  0  1.000416  0  0  0.103222  0.10458  0  1.00306  0
H  H19  1  0.41084843  0.45100262  0.54452544  1  0  0.095013  0  0.94394  0  0  0.106767  0  1.00189  0  0  0.109725  0  1.000435  0  0  0.103232  0.104601  0  1.00308  0
H  H20  1  0.54528671  0.80157375  0.49448035  1  0  0.094941  0  0.96079  0  0  0.105062  0  1.023012  0  0  0.107569  0  1.022894  0  0  0.100369  0.103223  0  1.023293  0
H  H21  1  0.04528894  0.69842754  0.50552448  1  0  0.094919  0  0.960827  0  0  0.105041  0  1.02305  0  0  0.107551  0  1.022925  0  0  0.100362  0.103202  0  1.023334  0
H  H22  1  0.45471262  0.19842578  0.50552039  1  0  0.094904  0  0.960813  0  0  0.105035  0  1.02303  0  0  0.107543  0  1.022911  0  0  0.100365  0.103197  0  1.02331  0
H  H23  1  0.95471039  0.30157300  0.49447581  1  0  0.094901  0  0.960834  0  0  0.10502  0  1.023058  0  0  0.107531  0  1.022932  0  0  0.100354  0.103182  0  1.023342  0
H  H24  1  0.19295560  0.86557541  0.33831812  1  0  0.105649  0  0.95698  0  0  0.114901  0  1.017416  0  0  0.118079  0  1.016337  0  0  0.101338  0.112545  0  1.018374  0
H  H25  1  0.69295661  0.63442831  0.66168263  1  0  0.105675  0  0.956997  0  0  0.114928  0  1.017428  0  0  0.118106  0  1.016348  0  0  0.101361  0.112573  0  1.018385  0
H  H26  1  0.80704566  0.13442312  0.66168223  1  0  0.105657  0  0.956967  0  0  0.114907  0  1.017407  0  0  0.118083  0  1.01633  0  0  0.101339  0.112551  0  1.018364  0
H  H27  1  0.30704271  0.36557223  0.33831683  1  0  0.105678  0  0.957007  0  0  0.114937  0  1.017435  0  0  0.118115  0  1.016355  0  0  0.101351  0.11258  0  1.018393  0
H  H28  1  0.42080231  0.79097523  0.31545511  1  0  0.102382  0  0.974757  0  0  0.113023  0  1.034937  0  0  0.116448  0  1.032309  0  0  0.101355  0.110511  0  1.036887  0
H  H29  1  0.92080637  0.70902609  0.68454850  1  0  0.102383  0  0.974805  0  0  0.113024  0  1.034995  0  0  0.116447  0  1.032368  0  0  0.101367  0.11051  0  1.036948  0
H  H30  1  0.57919701  0.20902430  0.68454645  1  0  0.10238  0  0.974732  0  0  0.11302  0  1.034916  0  0  0.116445  0  1.032288  0  0  0.101348  0.110508  0  1.036868  0
H  H31  1  0.07919296  0.29097445  0.31545178  1  0  0.102399  0  0.974781  0  0  0.113044  0  1.034966  0  0  0.116464  0  1.03234  0  0  0.10137  0.110532  0  1.036918  0
H  H32  1  0.87709800  0.31229279  0.16130098  1  0  0.427893  0  0.874777  0  0  0.393388  0  0.943873  0  0  0.405135  0  0.927041  0  0  0.286858  0.38504  0  0.955818  0
H  H33  1  0.37709893  0.18770878  0.83869998  1  0  0.427875  0  0.874808  0  0  0.39337  0  0.943904  0  0  0.405116  0  0.927074  0  0  0.286854  0.385021  0  0.955852  0
H  H34  1  0.12290133  0.68770775  0.83870013  1  0  0.42785  0  0.874835  0  0  0.393338  0  0.943942  0  0  0.405085  0  0.92711  0  0  0.286836  0.38499  0  0.955888  0
H  H35  1  0.62290136  0.81229075  0.16129993  1  0  0.427865  0  0.874826  0  0  0.393356  0  0.94393  0  0  0.405103  0  0.927098  0  0  0.286845  0.385008  0  0.955877  0
H  H36  1  0.93398036  0.18498524  0.17844219  1  0  0.427063  0  0.870479  0  0  0.396222  0  0.934349  0  0  0.406662  0  0.919304  0  0  0.29428  0.388842  0  0.944977  0
H  H37  1  0.43398209  0.31501448  0.82155590  1  0  0.427038  0  0.870501  0  0  0.396209  0  0.934373  0  0  0.406649  0  0.919329  0  0  0.294267  0.388827  0  0.945004  0
H  H38  1  0.06601993  0.81501429  0.82155772  1  0  0.426962  0  0.870595  0  0  0.396158  0  0.934431  0  0  0.406599  0  0.919386  0  0  0.294259  0.388778  0  0.945059  0
H  H39  1  0.56601820  0.68498606  0.17844438  1  0  0.427047  0  0.870491  0  0  0.396218  0  0.934362  0  0  0.406659  0  0.919315  0  0  0.294266  0.388836  0  0.944991  0
C  C40  1  0.78410456  0.01326538  0.88775051  1  0  0.666652  0  3.910215  0  0  0.616625  0  4.194741  0  0  0.652541  0  4.188114  0  0  0.206385  0.592362  0  4.198214  0
C  C41  1  0.28410371  0.48673392  0.11225405  1  0  0.666755  0  3.910022  0  0  0.616736  0  4.194532  0  0  0.652653  0  4.187902  0  0  0.206435  0.592475  0  4.198006  0
C  C42  1  0.21589669  0.98673416  0.11224939  1  0  0.666692  0  3.910354  0  0  0.61666  0  4.194882  0  0  0.652578  0  4.188255  0  0  0.206388  0.592398  0  4.198356  0
C  C43  1  0.71589755  0.51326461  0.88774548  1  0  0.666858  0  3.909926  0  0  0.616839  0  4.19443  0  0  0.652757  0  4.187799  0  0  0.206461  0.592578  0  4.197903  0
C  C44  1  0.60498154  0.87516293  0.91635487  1  0  0.138043  0  3.670624  0  0  0.09377  0  3.926595  0  0  0.104276  0  3.942952  0  0  0.050917  0.087436  0  3.915111  0
C  C45  1  0.10497865  0.62483251  0.08364641  1  0  0.137962  0  3.670597  0  0  0.093698  0  3.926561  0  0  0.104202  0  3.942916  0  0  0.050895  0.087364  0  3.915078  0
C  C46  1  0.39501971  0.12483661  0.08364586  1  0  0.138057  0  3.670679  0  0  0.093801  0  3.92663  0  0  0.104308  0  3.942987  0  0  0.050918  0.087467  0  3.915148  0
C  C47  1  0.89502261  0.37516603  0.91635228  1  0  0.137951  0  3.670597  0  0  0.093666  0  3.926572  0  0  0.10417  0  3.942928  0  0  0.050876  0.087332  0  3.915088  0
C  C48  1  0.65631964  0.94469590  0.85254098  1  0  -0.100023  0  3.733955  0  0  -0.073073  0  3.970756  0  0  -0.086163  0  3.992823  0  0  -0.008519  -0.065077  0  3.956315  0
C  C49  1  0.15631918  0.55531071  0.14746895  1  0  -0.100212  0  3.734245  0  0  -0.073261  0  3.971056  0  0  -0.086352  0  3.993123  0  0  -0.008595  -0.065265  0  3.956617  0
C  C50  1  0.34368065  0.05530364  0.14745975  1  0  -0.100114  0  3.734096  0  0  -0.073167  0  3.970891  0  0  -0.086263  0  3.992965  0  0  -0.008533  -0.06517  0  3.95645  0
C  C51  1  0.84368208  0.44468883  0.85253095  1  0  -0.100209  0  3.734262  0  0  -0.07324  0  3.971068  0  0  -0.086333  0  3.993136  0  0  -0.008571  -0.065245  0  3.956631  0
C  C52  1  0.58603203  0.94972043  0.75586727  1  0  -0.028243  0  3.632658  0  0  -0.065655  0  3.878203  0  0  -0.059202  0  3.893643  0  0  -0.049033  -0.069821  0  3.868004  0
C  C53  1  0.08603327  0.55027997  0.24413662  1  0  -0.027955  0  3.632728  0  0  -0.065404  0  3.878271  0  0  -0.058949  0  3.893711  0  0  -0.048953  -0.069573  0  3.868076  0
C  C54  1  0.41396826  0.05027810  0.24413226  1  0  -0.028124  0  3.63262  0  0  -0.065525  0  3.87814  0  0  -0.059069  0  3.893579  0  0  -0.049005  -0.069684  0  3.867947  0
C  C55  1  0.91396702  0.44971856  0.75586291  1  0  -0.028016  0  3.632773  0  0  -0.065484  0  3.878322  0  0  -0.059029  0  3.893761  0  0  -0.04897  -0.069654  0  3.868127  0
C  C56  1  0.42147415  0.82060268  0.79650502  1  0  0.097008  0  3.654965  0  0  0.056033  0  3.909822  0  0  0.064833  0  3.926185  0  0  0.048388  0.050691  0  3.898568  0
C  C57  1  0.92147455  0.67939865  0.20349693  1  0  0.097004  0  3.654996  0  0  0.056046  0  3.909837  0  0  0.06484  0  3.92621  0  0  0.048402  0.050706  0  3.898583  0
C  C58  1  0.57852710  0.17939585  0.20349533  1  0  0.097042  0  3.654962  0  0  0.056036  0  3.909783  0  0  0.064829  0  3.926156  0  0  0.048425  0.050694  0  3.898531  0
C  C59  1  0.07852574  0.32060088  0.79650214  1  0  0.097077  0  3.655015  0  0  0.056076  0  3.90984  0  0  0.064869  0  3.92621  0  0  0.048394  0.050735  0  3.898584  0
C  C60  1  0.46553938  0.88743181  0.72657429  1  0  0.010169  0  3.768808  0  0  0.028757  0  4.009468  0  0  0.022924  0  4.033501  0  0  0.000652  0.032123  0  3.993407  0
C  C61  1  0.96554032  0.61257466  0.27343067  1  0  0.010152  0  3.768826  0  0  0.028738  0  4.00948  0  0  0.022905  0  4.033515  0  0  0.000645  0.032105  0  3.993419  0
C  C62  1  0.53446091  0.11256773  0.27342561  1  0  0.010139  0  3.768873  0  0  0.028718  0  4.009549  0  0  0.022885  0  4.033581  0  0  0.000668  0.032085  0  3.993487  0
C  C63  1  0.03446093  0.38742488  0.72656840  1  0  0.010133  0  3.76882  0  0  0.028748  0  4.009471  0  0  0.022914  0  4.033507  0  0  0.000649  0.032114  0  3.993411  0
C  C64  1  0.19513758  0.99443166  0.75541120  1  0  0.655242  0  3.906631  0  0  0.596801  0  4.211431  0  0  0.631267  0  4.204462  0  0  0.206554  0.573482  0  4.215238  0
C  C65  1  0.69513930  0.50557407  0.24458783  1  0  0.655186  0  3.906743  0  0  0.596731  0  4.211563  0  0  0.631199  0  4.204594  0  0  0.206525  0.573412  0  4.21537  0
C  C66  1  0.80486271  0.00556888  0.24458825  1  0  0.655201  0  3.906703  0  0  0.596735  0  4.211544  0  0  0.631203  0  4.204575  0  0  0.206504  0.573418  0  4.215351  0
C  C67  1  0.30486003  0.49442747  0.75541200  1  0  0.65517  0  3.906705  0  0  0.596707  0  4.211523  0  0  0.631176  0  4.204554  0  0  0.206513  0.573389  0  4.215328  0
C  C68  1  0.38970300  0.88565353  0.62188826  1  0  0.034053  0  3.779405  0  0  0.041323  0  4.009225  0  0  0.04188  0  4.035204  0  0  -0.006386  0.041099  0  3.9916  0
C  C69  1  0.88970282  0.61434572  0.37811024  1  0  0.034059  0  3.779464  0  0  0.041347  0  4.009245  0  0  0.041902  0  4.035225  0  0  -0.006375  0.041122  0  3.991621  0
C  C70  1  0.61029633  0.11434501  0.37811044  1  0  0.034079  0  3.779389  0  0  0.041348  0  4.009214  0  0  0.041905  0  4.035193  0  0  -0.006405  0.041125  0  3.991591  0
C  C71  1  0.11029651  0.38565683  0.62188997  1  0  0.034093  0  3.779401  0  0  0.04134  0  4.009214  0  0  0.041896  0  4.035194  0  0  -0.006358  0.041116  0  3.991591  0
C  C72  1  0.26017117  0.92751610  0.63448653  1  0  -0.106611  0  3.74822  0  0  -0.08824  0  3.983748  0  0  -0.095446  0  4.005391  0  0  -0.018631  -0.083673  0  3.969185  0
C  C73  1  0.76016898  0.57248780  0.36551384  1  0  -0.106711  0  3.748292  0  0  -0.088324  0  3.983798  0  0  -0.095531  0  4.00544  0  0  -0.018661  -0.083755  0  3.969233  0
C  C74  1  0.73982912  0.07248344  0.36551172  1  0  -0.106722  0  3.748069  0  0  -0.088344  0  3.983616  0  0  -0.095551  0  4.005258  0  0  -0.018657  -0.083777  0  3.969053  0
C  C75  1  0.23983035  0.42751475  0.63448554  1  0  -0.106616  0  3.748187  0  0  -0.088197  0  3.983658  0  0  -0.095402  0  4.0053  0  0  -0.018647  -0.083629  0  3.969094  0
C  C76  1  0.18930306  0.91798475  0.53216603  1  0  -0.08278  0  3.765106  0  0  -0.104508  0  4.013019  0  0  -0.105139  0  4.033511  0  0  -0.089218  -0.103952  0  3.999146  0
C  C77  1  0.68930261  0.58201997  0.46783425  1  0  -0.082725  0  3.765076  0  0  -0.104407  0  4.012987  0  0  -0.105038  0  4.033478  0  0  -0.089167  -0.103852  0  3.99911  0
C  C78  1  0.81069916  0.08201680  0.46783380  1  0  -0.082599  0  3.764922  0  0  -0.104286  0  4.012834  0  0  -0.104916  0  4.033325  0  0  -0.089148  -0.103729  0  3.998959  0
C  C79  1  0.31069672  0.41798158  0.53216559  1  0  -0.082753  0  3.76508  0  0  -0.104444  0  4.012992  0  0  -0.105074  0  4.033484  0  0  -0.089175  -0.103886  0  3.999115  0
C  C80  1  0.44577814  0.83639795  0.50572092  1  0  -0.10279  0  3.728218  0  0  -0.121981  0  3.976233  0  0  -0.125175  0  3.997842  0  0  -0.085476  -0.119668  0  3.961435  0
C  C81  1  0.94577979  0.66360446  0.49428074  1  0  -0.102779  0  3.728311  0  0  -0.121978  0  3.976322  0  0  -0.12517  0  3.99793  0  0  -0.085471  -0.119666  0  3.961525  0
C  C82  1  0.55422312  0.16359958  0.49427822  1  0  -0.102769  0  3.728254  0  0  -0.121967  0  3.976276  0  0  -0.12516  0  3.997885  0  0  -0.085466  -0.119653  0  3.961479  0
C  C83  1  0.05421954  0.33639609  0.50571872  1  0  -0.102753  0  3.728252  0  0  -0.121937  0  3.976264  0  0  -0.125128  0  3.997871  0  0  -0.085459  -0.119625  0  3.961468  0
C  C84  1  0.24668741  0.86979242  0.41755308  1  0  -0.075543  0  3.764953  0  0  -0.089798  0  4.018225  0  0  -0.092709  0  4.039739  0  0  -0.091885  -0.087675  0  4.003542  0
C  C85  1  0.74668975  0.63021044  0.58244682  1  0  -0.075581  0  3.764866  0  0  -0.089822  0  4.018103  0  0  -0.092732  0  4.039616  0  0  -0.091944  -0.087697  0  4.00342  0
C  C86  1  0.75331288  0.13020712  0.58244600  1  0  -0.075649  0  3.76494  0  0  -0.089908  0  4.018223  0  0  -0.092817  0  4.039735  0  0  -0.091919  -0.087783  0  4.003541  0
C  C87  1  0.25330958  0.36979111  0.41755218  1  0  -0.075602  0  3.764894  0  0  -0.089854  0  4.018137  0  0  -0.092764  0  4.039649  0  0  -0.091904  -0.087729  0  4.003454  0
C  C88  1  0.37520749  0.82863893  0.40467985  1  0  -0.054049  0  3.744568  0  0  -0.070541  0  3.9959  0  0  -0.071216  0  4.015666  0  0  -0.089532  -0.069946  0  3.982283  0
C  C89  1  0.87521088  0.67136429  0.59532172  1  0  -0.05403  0  3.744596  0  0  -0.07054  0  3.995966  0  0  -0.071213  0  4.015731  0  0  -0.08953  -0.069945  0  3.982352  0
C  C90  1  0.62479184  0.17135960  0.59531967  1  0  -0.054012  0  3.744531  0  0  -0.070502  0  3.99587  0  0  -0.071177  0  4.015635  0  0  -0.089516  -0.069907  0  3.982255  0
C  C91  1  0.12478749  0.32863826  0.40467849  1  0  -0.054052  0  3.744593  0  0  -0.07057  0  3.995969  0  0  -0.07124  0  4.01573  0  0  -0.089551  -0.069975  0  3.982356  0
N  N92  1  0.48987206  0.81368663  0.88851089  1  0  -0.353704  0  3.28033  0  0  -0.275063  0  3.555816  0  0  -0.29793  0  3.574893  0  0  -0.332619  -0.259559  0  3.541909  0
N  N93  1  0.98987078  0.68631288  0.11149241  1  0  -0.353698  0  3.28038  0  0  -0.275056  0  3.555862  0  0  -0.297921  0  3.574937  0  0  -0.332636  -0.259554  0  3.541955  0
N  N94  1  0.51012920  0.18631291  0.11149067  1  0  -0.353712  0  3.28041  0  0  -0.275079  0  3.555918  0  0  -0.297945  0  3.574993  0  0  -0.332627  -0.259577  0  3.542011  0
N  N95  1  0.01012951  0.31368666  0.88850749  1  0  -0.353765  0  3.280439  0  0  -0.275124  0  3.555959  0  0  -0.297989  0  3.575034  0  0  -0.332662  -0.259622  0  3.542051  0
O  O96  1  0.86072715  0.97957236  0.95395341  1  0  -0.701006  0  2.089902  0  0  -0.620574  0  2.347898  0  0  -0.654321  0  2.336199  0  0  -0.342447  -0.597207  0  2.354942  0
O  O97  1  0.36072399  0.52042679  0.04604987  1  0  -0.701026  0  2.089678  0  0  -0.620609  0  2.347711  0  0  -0.654355  0  2.33601  0  0  -0.342459  -0.597242  0  2.354755  0
O  O98  1  0.13927411  0.02042717  0.04604732  1  0  -0.701001  0  2.08986  0  0  -0.620568  0  2.347855  0  0  -0.654313  0  2.336152  0  0  -0.342441  -0.5972  0  2.354899  0
O  O99  1  0.63927630  0.47957275  0.95394921  1  0  -0.701064  0  2.089657  0  0  -0.620648  0  2.347684  0  0  -0.654394  0  2.335984  0  0  -0.342466  -0.597281  0  2.354727  0
O  O100  1  0.81189528  0.10352557  0.85229291  1  0  -0.620096  0  1.944935  0  0  -0.564536  0  2.176324  0  0  -0.592688  0  2.168409  0  0  -0.313996  -0.544535  0  2.180718  0
O  O101  1  0.31189376  0.39647080  0.14770821  1  0  -0.620151  0  1.944974  0  0  -0.564582  0  2.176354  0  0  -0.592736  0  2.168441  0  0  -0.314028  -0.544582  0  2.180746  0
O  O102  1  0.18810501  0.89647497  0.14770737  1  0  -0.620138  0  1.945031  0  0  -0.564579  0  2.176431  0  0  -0.592731  0  2.168516  0  0  -0.314032  -0.544578  0  2.180825  0
O  O103  1  0.68810653  0.60352773  0.85229131  1  0  -0.620182  0  1.944892  0  0  -0.564616  0  2.176276  0  0  -0.592768  0  2.168362  0  0  -0.314039  -0.544615  0  2.18067  0
O  O104  1  0.24365098  0.10165112  0.83641947  1  0  -0.658629  0  2.034  0  0  -0.58869  0  2.268777  0  0  -0.618304  0  2.259149  0  0  -0.3089  -0.568096  0  2.274793  0
O  O105  1  0.74365293  0.39835411  0.16358129  1  0  -0.658593  0  2.034034  0  0  -0.58865  0  2.26882  0  0  -0.618268  0  2.259194  0  0  -0.308887  -0.568058  0  2.274835  0
O  O106  1  0.75634835  0.89834942  0.16358164  1  0  -0.658629  0  2.03404  0  0  -0.588675  0  2.26882  0  0  -0.61829  0  2.259194  0  0  -0.308878  -0.56808  0  2.274835  0
O  O107  1  0.25634832  0.60164744  0.83641937  1  0  -0.658628  0  2.034051  0  0  -0.588665  0  2.268821  0  0  -0.618287  0  2.259198  0  0  -0.308885  -0.568074  0  2.274835  0
O  O108  1  0.95566499  0.25506124  0.14955974  1  0  -0.830222  0  1.875848  0  0  -0.763464  0  2.072325  0  0  -0.788057  0  2.038635  0  0  -0.580137  -0.745981  0  2.09564  0
O  O109  1  0.45566599  0.24493855  0.85043932  1  0  -0.830168  0  1.875824  0  0  -0.763436  0  2.072289  0  0  -0.78803  0  2.038603  0  0  -0.580128  -0.745955  0  2.095609  0
O  O110  1  0.04433530  0.74493830  0.85044016  1  0  -0.830064  0  1.875941  0  0  -0.763344  0  2.072381  0  0  -0.787939  0  2.038694  0  0  -0.580097  -0.745855  0  2.095682  0
O  O111  1  0.54433333  0.75506199  0.14956096  1  0  -0.830165  0  1.875812  0  0  -0.763432  0  2.072288  0  0  -0.788029  0  2.038598  0  0  -0.580115  -0.745949  0  2.095605  0
O  O112  1  0.08707971  0.94860151  0.77114807  1  0  -0.638194  0  1.994858  0  0  -0.570184  0  2.229518  0  0  -0.599246  0  2.220053  0  0  -0.31505  -0.550114  0  2.23521  0
O  O113  1  0.58707937  0.55140091  0.22885078  1  0  -0.638167  0  1.994857  0  0  -0.570139  0  2.229527  0  0  -0.5992  0  2.220058  0  0  -0.315047  -0.55007  0  2.23522  0
O  O114  1  0.91292058  0.05139903  0.22885221  1  0  -0.63818  0  1.9949  0  0  -0.570146  0  2.229568  0  0  -0.599208  0  2.220103  0  0  -0.315028  -0.550076  0  2.235261  0
O  O115  1  0.41292092  0.44860063  0.77114905  1  0  -0.638181  0  1.994864  0  0  -0.570155  0  2.229534  0  0  -0.599216  0  2.220067  0  0  -0.315048  -0.550083  0  2.235227  0
