# generated using pymatgen
data_SmH13C15(NO2)4
_symmetry_space_group_name_H-M   'P 1'
_cell_length_a   9.30301024
_cell_length_b   10.02042502
_cell_length_c   12.20358068
_cell_angle_alpha   100.07612312
_cell_angle_beta   91.72083829
_cell_angle_gamma   110.85879401
_symmetry_Int_Tables_number   1
_chemical_formula_structural   SmH13C15(NO2)4
_chemical_formula_sum   'Sm2 H26 C30 N8 O16'
_cell_volume   1041.38084924
_cell_formula_units_Z   2
loop_
 _symmetry_equiv_pos_site_id
 _symmetry_equiv_pos_as_xyz
  1  'x, y, z'
loop_
 _atom_site_type_symbol
 _atom_site_label
 _atom_site_symmetry_multiplicity
 _atom_site_fract_x
 _atom_site_fract_y
 _atom_site_fract_z
 _atom_site_occupancy
 _atom_site_hle17_bader_spin_density
 _atom_site_hle17_ddec_charge
 _atom_site_hle17_ddec_spin_density
 _atom_site_hle17_ddec_sum_bond_order
 _atom_site_hle17_magmom
 _atom_site_hse06_10hf_bader_spin_density
 _atom_site_hse06_10hf_ddec_charge
 _atom_site_hse06_10hf_ddec_spin_density
 _atom_site_hse06_10hf_ddec_sum_bond_order
 _atom_site_hse06_10hf_magmom
 _atom_site_hse06_bader_spin_density
 _atom_site_hse06_ddec_charge
 _atom_site_hse06_ddec_spin_density
 _atom_site_hse06_ddec_sum_bond_order
 _atom_site_hse06_magmom
 _atom_site_pbe_bader_spin_density
 _atom_site_pbe_cm5_charge
 _atom_site_pbe_ddec_charge
 _atom_site_pbe_ddec_spin_density
 _atom_site_pbe_ddec_sum_bond_order
 _atom_site_pbe_magmom
Sm  Sm0  1  0.19258821  0.44329993  0.01644251  1  0  2.343548  0  1.602154  0  0  2.256063  0  1.954475  0  0  2.298017  0  1.910243  0  0  1.519089  2.166367  0  2.093607  0
Sm  Sm1  1  0.80741784  0.55669909  0.98355687  1  0  2.343604  0  1.602101  0  0  2.256119  0  1.95441  0  0  2.298071  0  1.91018  0  0  1.519113  2.166389  0  2.093608  0
H  H2  1  0.19391793  0.31131038  0.23911800  1  0  0.426302  0  0.866624  0  0  0.388616  0  0.94111  0  0  0.400221  0  0.923811  0  0  0.29965  0.37998  0  0.953846  0
H  H3  1  0.80608383  0.68868868  0.76088374  1  0  0.426285  0  0.866662  0  0  0.388609  0  0.941137  0  0  0.400215  0  0.923838  0  0  0.299639  0.379971  0  0.953878  0
H  H4  1  0.07486312  0.19626600  0.14249511  1  0  0.441775  0  0.813693  0  0  0.42326  0  0.867412  0  0  0.43152  0  0.855337  0  0  0.323891  0.417081  0  0.875992  0
H  H5  1  0.92515009  0.80373808  0.85749756  1  0  0.441805  0  0.813658  0  0  0.423268  0  0.867411  0  0  0.43153  0  0.855332  0  0  0.323894  0.417091  0  0.875991  0
H  H6  1  0.40155366  0.53394408  0.22535996  1  0  0.380205  0  0.951962  0  0  0.335496  0  1.037796  0  0  0.34749  0  1.021234  0  0  0.294333  0.327348  0  1.048728  0
H  H7  1  0.59845057  0.46605892  0.77463648  1  0  0.380204  0  0.951989  0  0  0.335536  0  1.037748  0  0  0.347535  0  1.021177  0  0  0.294345  0.327384  0  1.048684  0
H  H8  1  0.27846867  0.60830658  0.26032289  1  0  0.43283  0  0.813568  0  0  0.419088  0  0.861514  0  0  0.426649  0  0.853436  0  0  0.329809  0.413552  0  0.866513  0
H  H9  1  0.72153756  0.39169296  0.73968312  1  0  0.432854  0  0.8136  0  0  0.419115  0  0.861534  0  0  0.426675  0  0.85346  0  0  0.329815  0.413582  0  0.866528  0
H  H10  1  0.11645767  0.29261608  0.77748719  1  0  0.426545  0  0.835944  0  0  0.411132  0  0.881399  0  0  0.418723  0  0.870422  0  0  0.322889  0.405649  0  0.889134  0
H  H11  1  0.88358452  0.70735129  0.22252802  1  0  0.426529  0  0.835971  0  0  0.411101  0  0.881451  0  0  0.418695  0  0.870468  0  0  0.322902  0.405611  0  0.889197  0
H  H12  1  0.24344182  0.44754023  0.76588628  1  0  0.395752  0  0.926772  0  0  0.349689  0  1.014041  0  0  0.361869  0  0.996823  0  0  0.289354  0.340912  0  1.026287  0
H  H13  1  0.75656038  0.55243580  0.23410664  1  0  0.395642  0  0.926942  0  0  0.349632  0  1.014131  0  0  0.361811  0  0.996913  0  0  0.289355  0.340855  0  1.026375  0
H  H14  1  0.77662561  0.75662038  0.49189980  1  0  0.102091  0  0.934683  0  0  0.113428  0  0.991359  0  0  0.116642  0  0.989297  0  0  0.106457  0.111026  0  0.993016  0
H  H15  1  0.22334457  0.24337762  0.50811584  1  0  0.102097  0  0.9349  0  0  0.113381  0  0.991611  0  0  0.116596  0  0.98955  0  0  0.106462  0.110978  0  0.993266  0
H  H16  1  0.82413166  0.89930661  0.33817249  1  0  0.104367  0  0.940637  0  0  0.118548  0  0.993472  0  0  0.122027  0  0.991788  0  0  0.106132  0.116045  0  0.994825  0
H  H17  1  0.17585753  0.10069952  0.66184360  1  0  0.104324  0  0.94068  0  0  0.118496  0  0.993537  0  0  0.121978  0  0.991847  0  0  0.106155  0.115987  0  0.9949  0
H  H18  1  0.37116375  0.91985804  0.35358400  1  0  0.106977  0  0.95779  0  0  0.119925  0  1.010836  0  0  0.122081  0  1.011667  0  0  0.105177  0.118382  0  1.010448  0
H  H19  1  0.62883576  0.08017112  0.64642229  1  0  0.107135  0  0.957678  0  0  0.120048  0  1.010761  0  0  0.122203  0  1.011594  0  0  0.105254  0.118501  0  1.010376  0
H  H20  1  0.32305032  0.77617364  0.50353945  1  0  0.104648  0  0.937332  0  0  0.114325  0  0.995891  0  0  0.117944  0  0.993033  0  0  0.106514  0.111634  0  0.998196  0
H  H21  1  0.67692047  0.22384130  0.49646064  1  0  0.104466  0  0.937571  0  0  0.114231  0  0.996054  0  0  0.117846  0  0.993199  0  0  0.106499  0.111539  0  0.998359  0
H  H22  1  0.66051472  0.22329359  0.17206792  1  0  0.135457  0  0.918806  0  0  0.143926  0  0.978587  0  0  0.148078  0  0.975294  0  0  0.121287  0.14079  0  0.981394  0
H  H23  1  0.33948313  0.77670357  0.82793847  1  0  0.135433  0  0.918683  0  0  0.143908  0  0.978455  0  0  0.148062  0  0.975164  0  0  0.121271  0.140775  0  0.981262  0
H  H24  1  0.19766409  0.05731495  0.00561615  1  0  0.118551  0  0.948122  0  0  0.125091  0  1.016257  0  0  0.129561  0  1.01199  0  0  0.111212  0.121562  0  1.019984  0
H  H25  1  0.80234886  0.94267320  0.99436344  1  0  0.118589  0  0.948059  0  0  0.125063  0  1.016273  0  0  0.129575  0  1.011952  0  0  0.111228  0.121511  0  1.020029  0
H  H26  1  0.36375145  0.78121600  0.16638934  1  0  0.12679  0  1.010417  0  0  0.133315  0  1.076474  0  0  0.137515  0  1.073175  0  0  0.112872  0.130527  0  1.078177  0
H  H27  1  0.63626338  0.21878656  0.83361060  1  0  0.126839  0  1.010381  0  0  0.133397  0  1.0764  0  0  0.137598  0  1.073105  0  0  0.112935  0.130612  0  1.078093  0
C  C28  1  0.50965031  0.66831666  0.59367691  1  0  0.260235  0  3.805933  0  0  0.238454  0  4.08913  0  0  0.24626  0  4.107637  0  0  0.204696  0.233184  0  4.076902  0
C  C29  1  0.49032835  0.33168707  0.40632637  1  0  0.260448  0  3.805683  0  0  0.238428  0  4.089218  0  0  0.24624  0  4.107718  0  0  0.204711  0.233154  0  4.076991  0
C  C30  1  0.54573134  0.75559314  0.50712525  1  0  -0.002531  0  3.795001  0  0  0.010845  0  4.036714  0  0  0.008283  0  4.06006  0  0  -0.015564  0.012214  0  4.021173  0
C  C31  1  0.45424743  0.24441394  0.49288000  1  0  -0.002546  0  3.794398  0  0  0.010895  0  4.036199  0  0  0.008331  0  4.059542  0  0  -0.015487  0.01226  0  4.020663  0
C  C32  1  0.68819620  0.79285232  0.46147401  1  0  -0.071338  0  3.752232  0  0  -0.098117  0  4.010451  0  0  -0.097745  0  4.030886  0  0  -0.08702  -0.098207  0  3.996407  0
C  C33  1  0.31176995  0.20714952  0.53853780  1  0  -0.071455  0  3.75216  0  0  -0.098178  0  4.010363  0  0  -0.097808  0  4.030801  0  0  -0.087099  -0.098262  0  3.996312  0
C  C34  1  0.71442496  0.87031464  0.37499732  1  0  -0.184109  0  3.762181  0  0  -0.206734  0  4.020362  0  0  -0.212677  0  4.040647  0  0  -0.102967  -0.202516  0  4.006552  0
C  C35  1  0.28556380  0.12969331  0.62501483  1  0  -0.183893  0  3.762443  0  0  -0.206571  0  4.020553  0  0  -0.212511  0  4.04084  0  0  -0.102927  -0.202358  0  4.006754  0
C  C36  1  0.59881409  0.91243468  0.33354540  1  0  0.28712  0  3.76927  0  0  0.277082  0  4.0312  0  0  0.288536  0  4.046956  0  0  0.088301  0.269283  0  4.020663  0
C  C37  1  0.40118313  0.08758196  0.66646535  1  0  0.287026  0  3.76933  0  0  0.277178  0  4.030971  0  0  0.288635  0  4.046721  0  0  0.088287  0.26938  0  4.020427  0
C  C38  1  0.45819585  0.88030687  0.38095842  1  0  -0.199756  0  3.803959  0  0  -0.215439  0  4.052816  0  0  -0.222273  0  4.075287  0  0  -0.106892  -0.211104  0  4.038254  0
C  C39  1  0.54179049  0.11971550  0.61904852  1  0  -0.200035  0  3.804084  0  0  -0.215788  0  4.052978  0  0  -0.222622  0  4.075449  0  0  -0.107034  -0.211447  0  4.038413  0
C  C40  1  0.43202354  0.80128123  0.46593129  1  0  -0.074664  0  3.752239  0  0  -0.097462  0  4.003303  0  0  -0.09692  0  4.022376  0  0  -0.085859  -0.097884  0  3.990982  0
C  C41  1  0.56795745  0.19873514  0.53406919  1  0  -0.074366  0  3.752117  0  0  -0.097234  0  4.003217  0  0  -0.096686  0  4.022288  0  0  -0.085804  -0.097664  0  3.990913  0
C  C42  1  0.51847164  0.00404479  0.18386280  1  0  0.267538  0  3.778778  0  0  0.262524  0  4.045051  0  0  0.269865  0  4.061444  0  0  0.085878  0.257085  0  4.034286  0
C  C43  1  0.48153634  0.99595967  0.81613716  1  0  0.267617  0  3.779075  0  0  0.262431  0  4.045563  0  0  0.26978  0  4.061949  0  0  0.085817  0.256986  0  4.034806  0
C  C44  1  0.54855862  0.13519104  0.14858796  1  0  -0.130845  0  3.658722  0  0  -0.173781  0  3.920068  0  0  -0.173433  0  3.937898  0  0  -0.075997  -0.17426  0  3.909141  0
C  C45  1  0.45145675  0.86481911  0.85141356  1  0  -0.130777  0  3.658918  0  0  -0.173658  0  3.920311  0  0  -0.173308  0  3.938133  0  0  -0.075941  -0.174137  0  3.909394  0
C  C46  1  0.43336170  0.15278223  0.08241035  1  0  -0.061769  0  3.748942  0  0  -0.037234  0  3.987465  0  0  -0.04653  0  4.012367  0  0  -0.013066  -0.031983  0  3.972306  0
C  C47  1  0.56664190  0.84721292  0.91758120  1  0  -0.061871  0  3.749298  0  0  -0.037376  0  3.987831  0  0  -0.046678  0  4.012738  0  0  -0.013131  -0.032127  0  3.972679  0
C  C48  1  0.47070098  0.29186402  0.04004688  1  0  0.7458  0  3.846362  0  0  0.697343  0  4.142656  0  0  0.733254  0  4.130138  0  0  0.246015  0.672799  0  4.146517  0
C  C49  1  0.52930624  0.70814136  0.95995151  1  0  0.745971  0  3.846303  0  0  0.697573  0  4.142484  0  0  0.733497  0  4.129947  0  0  0.246097  0.673025  0  4.146362  0
C  C50  1  0.28781010  0.04125147  0.05469584  1  0  -0.082856  0  3.673892  0  0  -0.125627  0  3.927749  0  0  -0.123028  0  3.946158  0  0  -0.079634  -0.126731  0  3.916137  0
C  C51  1  0.71220004  0.95873482  0.94528843  1  0  -0.082962  0  3.673752  0  0  -0.12566  0  3.92756  0  0  -0.123102  0  3.94597  0  0  -0.07967  -0.126741  0  3.915945  0
C  C52  1  0.26313384  0.90656681  0.08492893  1  0  -0.049946  0  3.769589  0  0  -0.022752  0  4.002287  0  0  -0.031838  0  4.025999  0  0  -0.016782  -0.017443  0  3.987475  0
C  C53  1  0.73688851  0.09342964  0.91505747  1  0  -0.049824  0  3.769235  0  0  -0.022604  0  4.001883  0  0  -0.0317  0  4.025615  0  0  -0.016674  -0.017284  0  3.987061  0
C  C54  1  0.11099140  0.78461627  0.05330223  1  0  0.695975  0  3.848583  0  0  0.653943  0  4.134897  0  0  0.688629  0  4.125117  0  0  0.218352  0.630507  0  4.134878  0
C  C55  1  0.88902122  0.21537698  0.94668853  1  0  0.69604  0  3.848385  0  0  0.653992  0  4.134734  0  0  0.68868  0  4.124953  0  0  0.218347  0.630551  0  4.134721  0
C  C56  1  0.37995816  0.88704402  0.14703236  1  0  -0.173173  0  3.714057  0  0  -0.208166  0  3.96033  0  0  -0.209075  0  3.978562  0  0  -0.087903  -0.207475  0  3.948493  0
C  C57  1  0.62004691  0.11295225  0.85295933  1  0  -0.173353  0  3.714063  0  0  -0.208326  0  3.960367  0  0  -0.209239  0  3.978602  0  0  -0.087989  -0.207638  0  3.94853  0
N  N58  1  0.36246545  0.60141939  0.61655133  1  0  -0.298804  0  2.902388  0  0  -0.294458  0  3.182525  0  0  -0.301465  0  3.193348  0  0  -0.226744  -0.28939  0  3.175335  0
N  N59  1  0.63751287  0.39857732  0.38345781  1  0  -0.298918  0  2.902659  0  0  -0.294454  0  3.18291  0  0  -0.301461  0  3.19373  0  0  -0.226654  -0.289381  0  3.175714  0
N  N60  1  0.37462382  0.52946882  0.69579195  1  0  -0.079981  0  3.155685  0  0  -0.039624  0  3.428543  0  0  -0.043428  0  3.442284  0  0  -0.082266  -0.037214  0  3.419954  0
N  N61  1  0.62536970  0.47051915  0.30420767  1  0  -0.079796  0  3.15556  0  0  -0.039602  0  3.428529  0  0  -0.043405  0  3.442267  0  0  -0.082358  -0.037194  0  3.419943  0
N  N62  1  0.52153027  0.55139651  0.72096991  1  0  -0.11583  0  3.19123  0  0  -0.076667  0  3.459225  0  0  -0.0829  0  3.475832  0  0  -0.099955  -0.072421  0  3.448308  0
N  N63  1  0.47846706  0.44859614  0.27901960  1  0  -0.115858  0  3.190983  0  0  -0.076567  0  3.458936  0  0  -0.082795  0  3.475546  0  0  -0.099905  -0.072329  0  3.448024  0
N  N64  1  0.61092060  0.63884771  0.65853196  1  0  -0.334647  0  2.955462  0  0  -0.308127  0  3.222878  0  0  -0.318718  0  3.236749  0  0  -0.22324  -0.301118  0  3.214105  0
N  N65  1  0.38906282  0.36115429  0.34146059  1  0  -0.334795  0  2.955068  0  0  -0.30821  0  3.222505  0  0  -0.318804  0  3.236374  0  0  -0.223315  -0.301198  0  3.213731  0
O  O66  1  0.61216249  0.36945872  0.04131187  1  0  -0.732828  0  2.069354  0  0  -0.692667  0  2.336135  0  0  -0.717684  0  2.323401  0  0  -0.40445  -0.66626  0  2.345579  0
O  O67  1  0.38783630  0.63055022  0.95869487  1  0  -0.732913  0  2.069456  0  0  -0.692785  0  2.336226  0  0  -0.717808  0  2.323489  0  0  -0.404486  -0.666376  0  2.345665  0
O  O68  1  0.11769667  0.29978828  0.17607969  1  0  -0.893832  0  1.823267  0  0  -0.853504  0  1.98951  0  0  -0.869316  0  1.957728  0  0  -0.612163  -0.835134  0  2.015956  0
O  O69  1  0.88231907  0.70021380  0.82391366  1  0  -0.893838  0  1.823248  0  0  -0.853515  0  1.989467  0  0  -0.869324  0  1.957687  0  0  -0.612136  -0.835145  0  2.015923  0
O  O70  1  0.35940014  0.32301859  0.00329466  1  0  -0.77558  0  2.052256  0  0  -0.735522  0  2.316608  0  0  -0.759025  0  2.300142  0  0  -0.435475  -0.709232  0  2.330082  0
O  O71  1  0.64059622  0.67697132  0.99670112  1  0  -0.775635  0  2.052185  0  0  -0.73558  0  2.316485  0  0  -0.759085  0  2.300016  0  0  -0.435493  -0.709284  0  2.329972  0
O  O72  1  0.32749167  0.58135987  0.19521166  1  0  -0.906137  0  1.945376  0  0  -0.862186  0  2.151504  0  0  -0.881419  0  2.124654  0  0  -0.643344  -0.840568  0  2.172241  0
O  O73  1  0.67251729  0.41865346  0.80479249  1  0  -0.906198  0  1.945442  0  0  -0.862276  0  2.15157  0  0  -0.881513  0  2.124715  0  0  -0.643415  -0.840652  0  2.172315  0
O  O74  1  0.09845208  0.64910403  0.03824507  1  0  -0.841697  0  2.04025  0  0  -0.799902  0  2.298238  0  0  -0.82381  0  2.283032  0  0  -0.429981  -0.767495  0  2.307973  0
O  O75  1  0.90155725  0.35088602  0.96174694  1  0  -0.841741  0  2.040102  0  0  -0.799978  0  2.298164  0  0  -0.823857  0  2.282893  0  0  -0.430004  -0.767572  0  2.307906  0
O  O76  1  0.15921136  0.39453410  0.81422718  1  0  -0.918428  0  1.875169  0  0  -0.879055  0  2.064208  0  0  -0.89578  0  2.032008  0  0  -0.644623  -0.858549  0  2.090758  0
O  O77  1  0.84079448  0.60544004  0.18576728  1  0  -0.91838  0  1.875374  0  0  -0.879017  0  2.064338  0  0  -0.895749  0  2.03215  0  0  -0.644649  -0.858504  0  2.090894  0
O  O78  1  0.99022495  0.81456005  0.04264852  1  0  -0.687649  0  1.951907  0  0  -0.644867  0  2.181328  0  0  -0.668491  0  2.170219  0  0  -0.367256  -0.623093  0  2.189818  0
O  O79  1  0.00979075  0.18543584  0.95734750  1  0  -0.687657  0  1.951765  0  0  -0.644878  0  2.181224  0  0  -0.668508  0  2.170114  0  0  -0.367251  -0.623108  0  2.189715  0
O  O80  1  0.63560726  0.99186390  0.24954102  1  0  -0.286104  0  2.312418  0  0  -0.220185  0  2.530736  0  0  -0.237605  0  2.531904  0  0  -0.150745  -0.20781  0  2.529572  0
O  O81  1  0.36439619  0.00814906  0.75047445  1  0  -0.286096  0  2.312378  0  0  -0.220165  0  2.530663  0  0  -0.237593  0  2.531832  0  0  -0.150689  -0.207781  0  2.52949  0
