# generated using pymatgen
data_ZnH20C20(NO2)2
_symmetry_space_group_name_H-M   'P 1'
_cell_length_a   11.99557495
_cell_length_b   12.34591690
_cell_length_c   13.92766882
_cell_angle_alpha   89.99989548
_cell_angle_beta   90.00002053
_cell_angle_gamma   89.99989980
_symmetry_Int_Tables_number   1
_chemical_formula_structural   ZnH20C20(NO2)2
_chemical_formula_sum   'Zn4 H80 C80 N8 O16'
_cell_volume   2062.63721525
_cell_formula_units_Z   4
loop_
 _symmetry_equiv_pos_site_id
 _symmetry_equiv_pos_as_xyz
  1  'x, y, z'
loop_
 _atom_site_type_symbol
 _atom_site_label
 _atom_site_symmetry_multiplicity
 _atom_site_fract_x
 _atom_site_fract_y
 _atom_site_fract_z
 _atom_site_occupancy
 _atom_site_pbe_bader_charge
 _atom_site_pbe_bader_spin_density
 _atom_site_pbe_cm5_charge
 _atom_site_pbe_ddec_charge
 _atom_site_pbe_ddec_spin_density
 _atom_site_pbe_ddec_sum_bond_order
 _atom_site_pbe_magmom
Zn  Zn0  1  0.19145491  0.75000084  0.00000014  1  1.248475  0  0.683718  0.73681  0  2.398584  0
Zn  Zn1  1  0.30854820  0.74999942  0.50000056  1  1.248301  0  0.683711  0.736813  0  2.398584  0
Zn  Zn2  1  0.80854709  0.25000020  0.00000064  1  1.248299  0  0.683697  0.736783  0  2.398612  0
Zn  Zn3  1  0.69145235  0.25000140  0.49999959  1  1.248395  0  0.683706  0.736807  0  2.398582  0
H  H4  1  0.57604974  0.38746685  0.82881112  1  0.165711  0  0.115792  0.144177  0  1.039641  0
H  H5  1  0.57604902  0.11253452  0.17119089  1  0.165533  0  0.115797  0.144206  0  1.03962  0
H  H6  1  0.92395151  0.11253488  0.32881100  1  0.165711  0  0.115782  0.144172  0  1.039626  0
H  H7  1  0.92395049  0.38746672  0.67118753  1  0.165675  0  0.115789  0.144182  0  1.039639  0
H  H8  1  0.42394831  0.61253316  0.17118974  1  0.16572  0  0.115802  0.144196  0  1.039619  0
H  H9  1  0.42394903  0.88746792  0.82881069  1  0.165713  0  0.1158  0.144176  0  1.039627  0
H  H10  1  0.07605071  0.88746837  0.67118843  1  0.165706  0  0.115795  0.144173  0  1.039639  0
H  H11  1  0.07605172  0.61253086  0.32881118  1  0.165689  0  0.115789  0.144158  0  1.039648  0
H  H12  1  0.67848259  0.27603896  0.70907978  1  0.107783  0  0.118847  0.090926  0  1.027197  0
H  H13  1  0.67848088  0.22396306  0.29092298  1  0.107801  0  0.1188  0.090861  0  1.02728  0
H  H14  1  0.82151778  0.22396140  0.20907873  1  0.107407  0  0.118825  0.090864  0  1.027265  0
H  H15  1  0.82151618  0.27603876  0.79091905  1  0.107379  0  0.118831  0.090879  0  1.027253  0
H  H16  1  0.32151546  0.72396024  0.29092252  1  0.107734  0  0.118761  0.09088  0  1.027319  0
H  H17  1  0.32151550  0.77603938  0.70908004  1  0.107395  0  0.118846  0.09092  0  1.027215  0
H  H18  1  0.17848360  0.77603942  0.79091998  1  0.107774  0  0.118841  0.090915  0  1.027213  0
H  H19  1  0.17848437  0.72396045  0.20907965  1  0.107387  0  0.118818  0.09091  0  1.027269  0
H  H20  1  0.47688394  0.37902725  0.48621897  1  0.102628  0  0.114673  0.077391  0  1.01712  0
H  H21  1  0.47688085  0.12097186  0.51378230  1  0.102525  0  0.114668  0.077403  0  1.017097  0
H  H22  1  0.02311695  0.12097257  0.98621807  1  0.102606  0  0.114658  0.077388  0  1.017119  0
H  H23  1  0.02311318  0.37902730  0.01378018  1  0.102579  0  0.114685  0.07741  0  1.017112  0
H  H24  1  0.52311827  0.62097195  0.51378190  1  0.102541  0  0.114677  0.077414  0  1.017084  0
H  H25  1  0.52311470  0.87902734  0.48621857  1  0.102535  0  0.114662  0.077358  0  1.017179  0
H  H26  1  0.97688610  0.87902744  0.01378064  1  0.102572  0  0.114667  0.077439  0  1.01711  0
H  H27  1  0.97688653  0.62097271  0.98621925  1  0.102565  0  0.114678  0.077407  0  1.017112  0
H  H28  1  0.36375547  0.49610967  0.59645123  1  0.127548  0  0.108419  0.120935  0  1.029917  0
H  H29  1  0.36375755  0.00388883  0.40354856  1  0.127553  0  0.108432  0.120925  0  1.029937  0
H  H30  1  0.13624276  0.00389095  0.09645263  1  0.127571  0  0.108426  0.120939  0  1.029985  0
H  H31  1  0.13624164  0.49610873  0.90354925  1  0.12759  0  0.108383  0.120904  0  1.02989  0
H  H32  1  0.63624424  0.50389035  0.40354748  1  0.127553  0  0.108425  0.12093  0  1.029957  0
H  H33  1  0.63624050  0.99610956  0.59645014  1  0.127585  0  0.108431  0.120957  0  1.029915  0
H  H34  1  0.86375696  0.99610987  0.90354895  1  0.127555  0  0.108426  0.120928  0  1.029955  0
H  H35  1  0.86375807  0.50389209  0.09645018  1  0.127582  0  0.108394  0.120891  0  1.029879  0
H  H36  1  0.33571843  0.57537056  0.75080721  1  0.129006  0  0.103553  0.10255  0  1.04611  0
H  H37  1  0.33572134  0.92462743  0.24919176  1  0.129876  0  0.103565  0.102561  0  1.046091  0
H  H38  1  0.16428062  0.92462838  0.25080722  1  0.128991  0  0.103549  0.102538  0  1.046142  0
H  H39  1  0.16428104  0.57537070  0.74919313  1  0.129855  0  0.103555  0.10255  0  1.046102  0
H  H40  1  0.66428045  0.42462784  0.24919293  1  0.128993  0  0.103546  0.102542  0  1.046119  0
H  H41  1  0.66428004  0.07537177  0.75080552  1  0.12898  0  0.103537  0.102537  0  1.046119  0
H  H42  1  0.83571993  0.07537163  0.74919149  1  0.129875  0  0.10357  0.102563  0  1.046108  0
H  H43  1  0.83572284  0.42462769  0.25080988  1  0.129924  0  0.103601  0.1026  0  1.046097  0
H  H44  1  0.46889516  0.47675305  0.91969703  1  0.118381  0  0.107901  0.126584  0  1.037931  0
H  H45  1  0.46889540  0.02324608  0.08030423  1  0.118382  0  0.107912  0.126602  0  1.037915  0
H  H46  1  0.03110403  0.02324610  0.41969549  1  0.118387  0  0.107907  0.12659  0  1.037915  0
H  H47  1  0.03110449  0.47675295  0.58030420  1  0.118377  0  0.10794  0.126643  0  1.037872  0
H  H48  1  0.53110289  0.52324696  0.08030384  1  0.118381  0  0.107932  0.126619  0  1.037886  0
H  H49  1  0.53110931  0.97675069  0.91969519  1  0.118407  0  0.107885  0.126545  0  1.037978  0
H  H50  1  0.96889484  0.97675392  0.58030322  1  0.118375  0  0.107925  0.126605  0  1.0379  0
H  H51  1  0.96889606  0.52324625  0.41969667  1  0.118361  0  0.107937  0.126634  0  1.037879  0
H  H52  1  0.26353204  0.19088458  0.16697542  1  0.057462  0  0.081295  0.069402  0  1.041315  0
H  H53  1  0.26352873  0.30911327  0.83302505  1  0.057481  0  0.081323  0.069411  0  1.041339  0
H  H54  1  0.23646705  0.30911265  0.66697501  1  0.057448  0  0.081279  0.069334  0  1.041337  0
H  H55  1  0.23646543  0.19088605  0.33302546  1  0.057414  0  0.081293  0.069415  0  1.041259  0
H  H56  1  0.73646934  0.80911300  0.83302472  1  0.057502  0  0.081279  0.069325  0  1.04134  0
H  H57  1  0.73647015  0.69088755  0.16697365  1  0.057459  0  0.081284  0.06933  0  1.041348  0
H  H58  1  0.76353016  0.69088655  0.33302442  1  0.0575  0  0.08127  0.069306  0  1.04134  0
H  H59  1  0.76353012  0.80911396  0.66697468  1  0.057481  0  0.081314  0.069403  0  1.041335  0
H  H60  1  0.34944021  0.36948046  0.10257614  1  0.044582  0  0.090166  0.127897  0  0.991167  0
H  H61  1  0.34943559  0.13051563  0.89742651  1  0.044676  0  0.090151  0.127801  0  0.991077  0
H  H62  1  0.15056386  0.13051690  0.60257456  1  0.044652  0  0.090136  0.127796  0  0.991138  0
H  H63  1  0.15056277  0.36948438  0.39742589  1  0.044648  0  0.090145  0.127811  0  0.991127  0
H  H64  1  0.65056284  0.63051631  0.89742544  1  0.044644  0  0.090144  0.1278  0  0.991128  0
H  H65  1  0.65056413  0.86948520  0.10257507  1  0.044409  0  0.090153  0.1278  0  0.991141  0
H  H66  1  0.84943585  0.86948392  0.39742559  1  0.044676  0  0.090145  0.127787  0  0.991101  0
H  H67  1  0.84943611  0.63051644  0.60257282  1  0.044656  0  0.090143  0.127795  0  0.991085  0
H  H68  1  0.25234518  0.44335105  0.17291088  1  0.026624  0  0.084653  0.115099  0  1.027769  0
H  H69  1  0.25233817  0.05664844  0.82708959  1  0.026556  0  0.084652  0.115063  0  1.02774  0
H  H70  1  0.24765891  0.05664698  0.67291088  1  0.02551  0  0.084662  0.115097  0  1.027696  0
H  H71  1  0.24766015  0.44335090  0.32708816  1  0.025455  0  0.084678  0.115136  0  1.02769  0
H  H72  1  0.74765786  0.55664896  0.82709070  1  0.025539  0  0.084647  0.115079  0  1.027801  0
H  H73  1  0.74765821  0.94335319  0.17290984  1  0.026592  0  0.084655  0.115094  0  1.027725  0
H  H74  1  0.75233913  0.94335141  0.32709070  1  0.02546  0  0.084636  0.115062  0  1.027774  0
H  H75  1  0.75233956  0.55664993  0.67290912  1  0.026575  0  0.084655  0.115079  0  1.027791  0
H  H76  1  0.20622824  0.35899536  0.07741830  1  0.01157  0  0.081304  0.106866  0  1.015524  0
H  H77  1  0.20622194  0.14100340  0.92258073  1  0.011539  0  0.081302  0.106861  0  1.015445  0
H  H78  1  0.29377499  0.14100530  0.57741961  1  0.011538  0  0.081289  0.106858  0  1.015485  0
H  H79  1  0.29377559  0.35899493  0.42257945  1  0.011587  0  0.081297  0.106891  0  1.015459  0
H  H80  1  0.79377565  0.64100384  0.92258041  1  0.011538  0  0.081286  0.106866  0  1.015433  0
H  H81  1  0.79377527  0.85899742  0.07741870  1  0.011572  0  0.081285  0.106849  0  1.015454  0
H  H82  1  0.70622222  0.85899472  0.42258054  1  0.011545  0  0.081312  0.106876  0  1.015445  0
H  H83  1  0.70622246  0.64100589  0.57741783  1  0.011474  0  0.081351  0.106923  0  1.015489  0
C  C84  1  0.55041777  0.38870056  0.75376913  1  -0.035785  0  -0.070276  -0.161361  0  3.871679  0
C  C85  1  0.55041708  0.11130086  0.24623287  1  -0.035498  0  -0.070328  -0.161391  0  3.871835  0
C  C86  1  0.94958261  0.11130052  0.25376830  1  -0.035764  0  -0.070302  -0.161388  0  3.871692  0
C  C87  1  0.94958163  0.38870023  0.74622952  1  -0.035782  0  -0.070255  -0.161347  0  3.871688  0
C  C88  1  0.44958111  0.61129945  0.24623173  1  -0.035756  0  -0.070256  -0.161321  0  3.871684  0
C  C89  1  0.44958013  0.88870239  0.75376871  1  -0.035781  0  -0.070242  -0.161283  0  3.871623  0
C  C90  1  0.05041877  0.88870111  0.74623113  1  -0.035782  0  -0.070252  -0.161324  0  3.871691  0
C  C91  1  0.05042059  0.61129816  0.25376919  1  -0.03577  0  -0.07022  -0.161267  0  3.871609  0
C  C92  1  0.60854675  0.32686151  0.68779907  1  0.484269  0  0.049642  0.098212  0  3.931746  0
C  C93  1  0.60854431  0.17314063  0.31220295  1  0.48317  0  0.049636  0.098198  0  3.931751  0
C  C94  1  0.89145444  0.17313971  0.18779812  1  0.483706  0  0.049646  0.098258  0  3.931755  0
C  C95  1  0.89145193  0.32686034  0.81220040  1  0.484271  0  0.049669  0.098286  0  3.93177  0
C  C96  1  0.39145297  0.67313931  0.31220251  1  0.48325  0  0.049619  0.098135  0  3.931746  0
C  C97  1  0.39145290  0.82686101  0.68779863  1  0.484271  0  0.049612  0.098182  0  3.931746  0
C  C98  1  0.10854694  0.82686112  0.81220059  1  0.483694  0  0.049613  0.098176  0  3.931773  0
C  C99  1  0.10854862  0.67313887  0.18779831  1  0.48371  0  0.049634  0.098183  0  3.931792  0
C  C100  1  0.49554167  0.38371778  0.56275654  1  0.427299  0  0.04348  0.082665  0  3.983792  0
C  C101  1  0.49553938  0.11628212  0.43724545  1  0.42741  0  0.043484  0.082615  0  3.983853  0
C  C102  1  0.00445988  0.11628372  0.06275556  1  0.42742  0  0.043511  0.082686  0  3.983894  0
C  C103  1  0.00445649  0.38371699  0.93724268  1  0.427404  0  0.043501  0.082734  0  3.983827  0
C  C104  1  0.50446138  0.61628224  0.43724432  1  0.42745  0  0.043483  0.082651  0  3.983771  0
C  C105  1  0.50445866  0.88371546  0.56275470  1  0.427342  0  0.043581  0.082849  0  3.983747  0
C  C106  1  0.99554316  0.88371872  0.93724315  1  0.427384  0  0.043477  0.082559  0  3.983925  0
C  C107  1  0.99554239  0.61628221  0.06275675  1  0.427337  0  0.043502  0.0827  0  3.983904  0
C  C108  1  0.43308776  0.44822573  0.62401224  1  -0.037787  0  -0.079469  -0.179211  0  3.930444  0
C  C109  1  0.43308640  0.05177508  0.37598829  1  -0.037818  0  -0.079466  -0.179127  0  3.93052  0
C  C110  1  0.06691382  0.05177564  0.12401354  1  -0.037805  0  -0.079472  -0.179237  0  3.930598  0
C  C111  1  0.06691111  0.44822497  0.87598759  1  -0.037826  0  -0.07944  -0.179239  0  3.93039  0
C  C112  1  0.56691446  0.55177509  0.37598647  1  -0.038333  0  -0.079421  -0.179159  0  3.930457  0
C  C113  1  0.56691165  0.94822413  0.62401114  1  -0.037792  0  -0.079525  -0.179319  0  3.930418  0
C  C114  1  0.93308839  0.94822680  0.87598732  1  -0.037815  0  -0.079473  -0.179152  0  3.930488  0
C  C115  1  0.93308860  0.55177423  0.12401184  1  -0.037819  0  -0.079458  -0.179174  0  3.930408  0
C  C116  1  0.46085134  0.45303611  0.72207244  1  0.001385  0  0.01786  0.161746  0  3.982983  0
C  C117  1  0.46085246  0.04696304  0.27792881  1  0.001395  0  0.017901  0.161736  0  3.982972  0
C  C118  1  0.03914861  0.04696345  0.22207231  1  0.001388  0  0.01788  0.161786  0  3.982933  0
C  C119  1  0.03914752  0.45303640  0.77792810  1  0.00139  0  0.017822  0.161711  0  3.982996  0
C  C120  1  0.53914754  0.54696310  0.27792770  1  0.001902  0  0.017841  0.161705  0  3.983007  0
C  C121  1  0.53914642  0.95303698  0.72207133  1  0.001411  0  0.017821  0.161708  0  3.982978  0
C  C122  1  0.96085278  0.95303738  0.77792784  1  0.001383  0  0.017873  0.161726  0  3.98295  0
C  C123  1  0.96085387  0.54696280  0.22207133  1  0.001381  0  0.017851  0.161706  0  3.98295  0
C  C124  1  0.39679100  0.52296691  0.78577579  1  -0.118466  0  -0.073809  -0.083917  0  3.936469  0
C  C125  1  0.39679297  0.97703178  0.21422392  1  -0.11851  0  -0.073822  -0.083897  0  3.936408  0
C  C126  1  0.10321139  0.97703277  0.28577569  1  -0.118512  0  -0.073783  -0.083894  0  3.936446  0
C  C127  1  0.10320940  0.52296642  0.71422464  1  -0.118461  0  -0.073805  -0.083863  0  3.936416  0
C  C128  1  0.60320954  0.47703229  0.21422436  1  -0.118492  0  -0.073765  -0.08385  0  3.936447  0
C  C129  1  0.60321008  0.02296742  0.78577479  1  -0.118447  0  -0.073765  -0.083902  0  3.936332  0
C  C130  1  0.89679166  0.02296725  0.71422374  1  -0.1185  0  -0.073816  -0.083921  0  3.93645  0
C  C131  1  0.89679365  0.47703522  0.28577622  1  -0.118486  0  -0.073854  -0.083907  0  3.936475  0
C  C132  1  0.40779341  0.52680289  0.88200510  1  -0.015834  0  -0.08175  -0.202154  0  3.864972  0
C  C133  1  0.40779535  0.97319498  0.11799533  1  -0.015798  0  -0.081755  -0.202192  0  3.864947  0
C  C134  1  0.09220486  0.97319497  0.38200500  1  -0.015779  0  -0.081754  -0.202118  0  3.864929  0
C  C135  1  0.09220615  0.52680261  0.61799533  1  -0.015822  0  -0.081795  -0.202261  0  3.86499  0
C  C136  1  0.59220464  0.47319632  0.11799433  1  -0.0158  0  -0.08181  -0.202246  0  3.865027  0
C  C137  1  0.59220770  0.02680261  0.88200482  1  -0.01583  0  -0.081748  -0.202053  0  3.864889  0
C  C138  1  0.90779402  0.02680423  0.61799442  1  -0.015796  0  -0.081823  -0.202206  0  3.864977  0
C  C139  1  0.90779440  0.47319659  0.38200625  1  -0.015814  0  -0.081799  -0.202272  0  3.864993  0
C  C140  1  0.34064776  0.60031301  0.94329813  1  1.528638  0  0.194389  0.599156  0  4.226021  0
C  C141  1  0.34064814  0.89968577  0.05670156  1  1.528641  0  0.194376  0.599176  0  4.226009  0
C  C142  1  0.15935136  0.89968472  0.44329817  1  1.528581  0  0.194327  0.599006  0  4.226193  0
C  C143  1  0.15935250  0.60031275  0.55670146  1  1.528647  0  0.194377  0.599175  0  4.225972  0
C  C144  1  0.65935028  0.39968538  0.05670202  1  1.528587  0  0.194402  0.599195  0  4.226034  0
C  C145  1  0.65935324  0.10031181  0.94329859  1  1.52861  0  0.194326  0.598946  0  4.226174  0
C  C146  1  0.84064752  0.10031367  0.55670125  1  1.528573  0  0.194405  0.599184  0  4.226076  0
C  C147  1  0.84064889  0.39968645  0.44329869  1  1.528591  0  0.194382  0.599205  0  4.225977  0
C  C148  1  0.25734469  0.26996171  0.20223036  1  -0.149868  0  -0.116829  -0.070585  0  4.028328  0
C  C149  1  0.25734068  0.23003697  0.79777155  1  -0.149875  0  -0.11688  -0.070598  0  4.028336  0
C  C150  1  0.24265525  0.23003546  0.70223008  1  -0.040391  0  -0.116811  -0.070519  0  4.02828  0
C  C151  1  0.24265596  0.26996243  0.29777040  1  -0.040399  0  -0.116805  -0.070542  0  4.02823  0
C  C152  1  0.74265836  0.73003588  0.79776907  1  -0.149863  0  -0.116802  -0.070508  0  4.028279  0
C  C153  1  0.74265736  0.76996467  0.20223003  1  -0.040402  0  -0.11684  -0.070534  0  4.028361  0
C  C154  1  0.75734113  0.76996375  0.29776935  1  -0.14988  0  -0.116768  -0.070432  0  4.028256  0
C  C155  1  0.75734208  0.73003758  0.70222903  1  -0.040469  0  -0.116828  -0.070533  0  4.028307  0
C  C156  1  0.26670054  0.36570111  0.13673189  1  -0.046254  0  -0.244392  -0.341616  0  4.00677  0
C  C157  1  0.26669257  0.13429674  0.86326931  1  -0.046239  0  -0.244368  -0.341461  0  4.006554  0
C  C158  1  0.23330437  0.13429781  0.63673175  1  -0.046288  0  -0.244349  -0.341491  0  4.006629  0
C  C159  1  0.23330494  0.36570253  0.36326800  1  -0.04622  0  -0.24442  -0.341625  0  4.006597  0
C  C160  1  0.73330417  0.63429809  0.86326826  1  -0.046304  0  -0.244366  -0.341516  0  4.006619  0
C  C161  1  0.73330381  0.86570409  0.13673083  1  -0.046055  0  -0.244359  -0.341491  0  4.006622  0
C  C162  1  0.76669284  0.86570140  0.36326839  1  -0.046225  0  -0.244388  -0.3415  0  4.006546  0
C  C163  1  0.76669311  0.63429911  0.63672999  1  -0.046206  0  -0.244437  -0.34156  0  4.006653  0
N  N164  1  0.58329075  0.32511125  0.59326278  1  -1.270029  0  -0.336897  -0.242147  0  3.584302  0
N  N165  1  0.58328751  0.17489012  0.40673995  1  -1.269169  0  -0.336844  -0.242086  0  3.584082  0
N  N166  1  0.91671040  0.17488935  0.09326184  1  -1.269578  0  -0.336887  -0.242124  0  3.584285  0
N  N167  1  0.91670876  0.32511146  0.90673741  1  -1.27005  0  -0.336905  -0.242208  0  3.584407  0
N  N168  1  0.41671063  0.67488795  0.40673951  1  -1.269047  0  -0.336876  -0.242117  0  3.58424  0
N  N169  1  0.41670887  0.82511071  0.59326235  1  -1.270041  0  -0.336927  -0.24224  0  3.584395  0
N  N170  1  0.08329098  0.82511147  0.90673831  1  -1.269566  0  -0.336886  -0.24211  0  3.584352  0
N  N171  1  0.08329095  0.67488855  0.09326202  1  -1.269592  0  -0.336915  -0.24221  0  3.584393  0
O  O172  1  0.36485983  0.61074572  0.03039732  1  -1.16521  0  -0.313864  -0.544269  0  2.134944  0
O  O173  1  0.36486060  0.88925384  0.96960309  1  -1.165219  0  -0.31387  -0.544275  0  2.134954  0
O  O174  1  0.13513830  0.88925448  0.53039818  1  -1.165193  0  -0.313822  -0.544198  0  2.135023  0
O  O175  1  0.13514021  0.61074465  0.46960288  1  -1.165199  0  -0.313839  -0.544246  0  2.134996  0
O  O176  1  0.63513822  0.38925430  0.96960282  1  -1.165182  0  -0.313872  -0.544282  0  2.134979  0
O  O177  1  0.63514078  0.11074293  0.03039777  1  -1.165206  0  -0.313848  -0.544196  0  2.135024  0
O  O178  1  0.86485975  0.11074553  0.46960196  1  -1.165179  0  -0.313868  -0.544294  0  2.134982  0
O  O179  1  0.86486034  0.38925617  0.53039798  1  -1.165187  0  -0.313872  -0.544286  0  2.134981  0
O  O180  1  0.25728030  0.65080269  0.90310398  1  -1.172226  0  -0.336542  -0.566755  0  2.320967  0
O  O181  1  0.25728078  0.84919785  0.09689568  1  -1.172189  0  -0.336525  -0.566761  0  2.320984  0
O  O182  1  0.24271881  0.84919593  0.40310414  1  -1.17219  0  -0.336542  -0.566742  0  2.321042  0
O  O183  1  0.24271987  0.65080221  0.59689624  1  -1.172229  0  -0.33654  -0.566779  0  2.320878  0
O  O184  1  0.74271858  0.34919651  0.09689616  1  -1.172211  0  -0.336539  -0.566764  0  2.320994  0
O  O185  1  0.74272060  0.15080378  0.90310447  1  -1.172193  0  -0.336496  -0.56667  0  2.320914  0
O  O186  1  0.75728007  0.15080327  0.59689529  1  -1.172187  0  -0.336524  -0.566747  0  2.320995  0
O  O187  1  0.75728151  0.34919781  0.40310462  1  -1.172203  0  -0.336524  -0.566783  0  2.32093  0
