# generated using pymatgen
data_CdH12C13N3O5
_symmetry_space_group_name_H-M   'P 1'
_cell_length_a   9.53135560
_cell_length_b   9.53132939
_cell_length_c   18.40676180
_cell_angle_alpha   100.33121417
_cell_angle_beta   100.33080125
_cell_angle_gamma   94.16765828
_symmetry_Int_Tables_number   1
_chemical_formula_structural   CdH12C13N3O5
_chemical_formula_sum   'Cd4 H48 C52 N12 O20'
_cell_volume   1608.88797353
_cell_formula_units_Z   4
loop_
 _symmetry_equiv_pos_site_id
 _symmetry_equiv_pos_as_xyz
  1  'x, y, z'
loop_
 _atom_site_type_symbol
 _atom_site_label
 _atom_site_symmetry_multiplicity
 _atom_site_fract_x
 _atom_site_fract_y
 _atom_site_fract_z
 _atom_site_occupancy
 _atom_site_pbe_bader_charge
 _atom_site_pbe_bader_spin_density
 _atom_site_pbe_cm5_charge
 _atom_site_pbe_ddec_charge
 _atom_site_pbe_ddec_spin_density
 _atom_site_pbe_ddec_sum_bond_order
 _atom_site_pbe_magmom
Cd  Cd0  1  0.67884795  0.93221236  0.52690506  1  1.309302  0  0.777253  0.961211  0  2.157368  0
Cd  Cd1  1  0.06779157  0.32115342  0.97309654  1  1.30934  0  0.777248  0.961202  0  2.157355  0
Cd  Cd2  1  0.32115393  0.06778954  0.47309643  1  1.30927  0  0.777255  0.961221  0  2.157421  0
Cd  Cd3  1  0.93221031  0.67884529  0.02690357  1  1.309254  0  0.777243  0.961188  0  2.157423  0
H  H4  1  0.06509631  0.30187363  0.61835916  1  0.101362  0  0.118811  0.122965  0  0.983919  0
H  H5  1  0.69813067  0.93490670  0.88164150  1  0.101306  0  0.118799  0.122943  0  0.983954  0
H  H6  1  0.93490557  0.69813146  0.38163936  1  0.101389  0  0.118755  0.122875  0  0.983956  0
H  H7  1  0.30187015  0.06509296  0.11835914  1  0.101304  0  0.118791  0.122919  0  0.98396  0
H  H8  1  0.98568220  0.29561533  0.69911820  1  0.158271  0  0.120866  0.135158  0  1.014558  0
H  H9  1  0.70439135  0.01432096  0.80088329  1  0.158073  0  0.120897  0.135202  0  1.014485  0
H  H10  1  0.01431861  0.70439179  0.30088041  1  0.158239  0  0.120917  0.135241  0  1.014454  0
H  H11  1  0.29560946  0.98567977  0.19911745  1  0.158051  0  0.120881  0.135184  0  1.014521  0
H  H12  1  0.06359460  0.16805488  0.78463946  1  0.166743  0  0.12774  0.116934  0  1.021899  0
H  H13  1  0.83194714  0.93640143  0.71535958  1  0.166776  0  0.127756  0.116974  0  1.021862  0
H  H14  1  0.93640085  0.83194953  0.21535895  1  0.16678  0  0.127731  0.11696  0  1.021864  0
H  H15  1  0.16805046  0.06359894  0.28464029  1  0.16678  0  0.127734  0.116962  0  1.021862  0
H  H16  1  0.25349149  0.03694890  0.84476611  1  0.114664  0  0.110311  0.129428  0  1.000871  0
H  H17  1  0.96304688  0.74649846  0.65523233  1  0.114761  0  0.110316  0.129429  0  1.00095  0
H  H18  1  0.74649644  0.96304724  0.15523247  1  0.114765  0  0.110297  0.129379  0  1.000939  0
H  H19  1  0.03695179  0.25350203  0.34476764  1  0.114749  0  0.110326  0.129469  0  1.00091  0
H  H20  1  0.45387953  0.97073083  0.77449271  1  0.079081  0  0.107675  0.105853  0  1.004151  0
H  H21  1  0.02926680  0.54611388  0.72550584  1  0.079004  0  0.107704  0.105846  0  1.004138  0
H  H22  1  0.54611163  0.02926352  0.22550709  1  0.079004  0  0.107707  0.105854  0  1.004118  0
H  H23  1  0.97073293  0.45388673  0.27449370  1  0.078981  0  0.107708  0.105846  0  1.004117  0
H  H24  1  0.49652921  0.70659342  0.61443229  1  0.127609  0  0.137503  0.107706  0  0.989367  0
H  H25  1  0.29340728  0.50346818  0.88556693  1  0.127617  0  0.137485  0.107677  0  0.989393  0
H  H26  1  0.50347053  0.29340612  0.38556878  1  0.127634  0  0.137465  0.107628  0  0.98938  0
H  H27  1  0.70659460  0.49652945  0.11443199  1  0.127603  0  0.137495  0.107706  0  0.98934  0
H  H28  1  0.75425363  0.37687110  0.55528388  1  0.208614  0  0.119057  0.140449  0  1.055618  0
H  H29  1  0.62313041  0.24574712  0.94471635  1  0.208527  0  0.119058  0.140448  0  1.055612  0
H  H30  1  0.24574396  0.62312713  0.44471470  1  0.208602  0  0.119043  0.140438  0  1.055601  0
H  H31  1  0.37687363  0.75425501  0.05528535  1  0.208647  0  0.119071  0.140486  0  1.055549  0
H  H32  1  0.82158299  0.61410024  0.49119602  1  0.108341  0  0.118524  0.115526  0  1.004034  0
H  H33  1  0.38589748  0.17841722  0.00880395  1  0.108341  0  0.118513  0.115546  0  1.00398  0
H  H34  1  0.17841567  0.38590025  0.50880395  1  0.107994  0  0.118521  0.115532  0  1.004045  0
H  H35  1  0.61410548  0.82158374  0.99119755  1  0.10831  0  0.118516  0.115567  0  1.003979  0
H  H36  1  0.56342449  0.31806065  0.62387152  1  0.088108  0  0.119571  0.112619  0  0.961835  0
H  H37  1  0.68194065  0.43657539  0.87612884  1  0.088087  0  0.119564  0.112583  0  0.961818  0
H  H38  1  0.43657310  0.68193759  0.37612815  1  0.088118  0  0.119574  0.112617  0  0.961802  0
H  H39  1  0.31806337  0.56342354  0.12387203  1  0.088147  0  0.119593  0.112658  0  0.961788  0
H  H40  1  0.42323445  0.42927305  0.62734680  1  0.024859  0  0.106938  0.084708  0  0.98942  0
H  H41  1  0.57072996  0.57676660  0.87265371  1  0.024859  0  0.106939  0.084707  0  0.989394  0
H  H42  1  0.57676529  0.57072649  0.37265427  1  0.02487  0  0.106947  0.084722  0  0.989382  0
H  H43  1  0.42927406  0.42323233  0.12734553  1  0.024822  0  0.106972  0.08476  0  0.989422  0
H  H44  1  0.58657365  0.59856666  0.74006257  1  -0.015971  0  0.09075  0.083579  0  0.985912  0
H  H45  1  0.40143566  0.41342343  0.75993806  1  -0.015925  0  0.090732  0.08354  0  0.985891  0
H  H46  1  0.41342609  0.40143075  0.25993776  1  -0.015995  0  0.090749  0.083615  0  0.985909  0
H  H47  1  0.59856729  0.58657219  0.24006240  1  -0.015981  0  0.09074  0.083614  0  0.98591  0
H  H48  1  0.71214305  0.47129109  0.73893239  1  0.045167  0  0.094298  0.097258  0  0.999938  0
H  H49  1  0.52871530  0.28785806  0.76106693  1  0.045152  0  0.094299  0.097255  0  0.999931  0
H  H50  1  0.28785883  0.52870867  0.26106618  1  0.045193  0  0.094302  0.097271  0  0.99996  0
H  H51  1  0.47128980  0.71213885  0.23893331  1  0.045219  0  0.094312  0.097284  0  0.999983  0
C  C52  1  0.90665743  0.12230680  0.60448623  1  1.60032  0  0.193461  0.600999  0  4.202482  0
C  C53  1  0.87769756  0.09334300  0.89551462  1  1.600262  0  0.193492  0.600972  0  4.202255  0
C  C54  1  0.09334231  0.87769807  0.39551316  1  1.600579  0  0.193601  0.601246  0  4.202043  0
C  C55  1  0.12230325  0.90665666  0.10448547  1  1.600266  0  0.193481  0.600994  0  4.202337  0
C  C56  1  0.02721996  0.23158148  0.65339213  1  0.23396  0  -0.060307  -0.223669  0  3.874674  0
C  C57  1  0.76842293  0.97278126  0.84660886  1  0.233536  0  -0.060302  -0.223665  0  3.874523  0
C  C58  1  0.97278192  0.76842362  0.34660693  1  0.233296  0  -0.060315  -0.223758  0  3.874504  0
C  C59  1  0.23157896  0.02721852  0.15339189  1  0.233496  0  -0.060293  -0.223659  0  3.874543  0
C  C60  1  0.14925807  0.13171797  0.75661862  1  0.408593  0  0.062202  0.073039  0  3.874865  0
C  C61  1  0.86828125  0.85073776  0.74338047  1  0.408874  0  0.062196  0.073003  0  3.874753  0
C  C62  1  0.85073738  0.86828324  0.24338058  1  0.408708  0  0.062208  0.072975  0  3.874805  0
C  C63  1  0.13171741  0.14926273  0.25661950  1  0.409088  0  0.062234  0.073022  0  3.874768  0
C  C64  1  0.25596691  0.06031063  0.78938039  1  0.031583  0  -0.104765  -0.172376  0  4.050754  0
C  C65  1  0.93968626  0.74402425  0.71061830  1  0.031404  0  -0.104762  -0.172447  0  4.050825  0
C  C66  1  0.74402318  0.93968786  0.21061861  1  0.031401  0  -0.104766  -0.172398  0  4.050809  0
C  C67  1  0.06031241  0.25597518  0.28938212  1  0.031397  0  -0.104803  -0.172502  0  4.050858  0
C  C68  1  0.36445249  0.02336968  0.74989147  1  -0.038269  0  -0.066462  -0.026317  0  4.002031  0
C  C69  1  0.97662739  0.63554095  0.75010720  1  -0.038236  0  -0.066495  -0.026237  0  4.002086  0
C  C70  1  0.63553974  0.97662692  0.25010810  1  -0.038243  0  -0.066512  -0.026272  0  4.002116  0
C  C71  1  0.02337235  0.36445966  0.24989234  1  -0.038179  0  -0.066512  -0.026301  0  4.002083  0
C  C72  1  0.36506031  0.05361749  0.67882546  1  -0.033776  0  -0.036169  -0.221665  0  3.960508  0
C  C73  1  0.94638020  0.63493729  0.82117425  1  -0.033713  0  -0.036179  -0.221687  0  3.960511  0
C  C74  1  0.63493621  0.94638170  0.32117474  1  -0.03378  0  -0.03619  -0.221676  0  3.960476  0
C  C75  1  0.05362061  0.36506449  0.17882604  1  -0.033738  0  -0.036149  -0.221554  0  3.960461  0
C  C76  1  0.25103448  0.12522653  0.64395091  1  1.22527  0  0.225515  0.430465  0  4.069773  0
C  C77  1  0.87477515  0.74896431  0.85604959  1  1.225225  0  0.225503  0.430429  0  4.069941  0
C  C78  1  0.74896527  0.87477835  0.35605065  1  1.225202  0  0.225563  0.430488  0  4.069865  0
C  C79  1  0.12522673  0.25103653  0.14395126  1  1.225212  0  0.225505  0.430344  0  4.069831  0
C  C80  1  0.48957684  0.01333413  0.64296392  1  1.597441  0  0.196986  0.590629  0  4.243161  0
C  C81  1  0.98666618  0.51042067  0.85703682  1  1.597489  0  0.196975  0.59061  0  4.243091  0
C  C82  1  0.51042075  0.98666519  0.35703747  1  1.597479  0  0.196979  0.590547  0  4.2432  0
C  C83  1  0.01333677  0.48958029  0.14296360  1  1.597474  0  0.197028  0.590613  0  4.243147  0
C  C84  1  0.57607782  0.65085677  0.58891970  1  0.994463  0  0.139877  0.087177  0  3.945596  0
C  C85  1  0.34914401  0.42392245  0.91107902  1  0.99413  0  0.139874  0.087172  0  3.945564  0
C  C86  1  0.42392084  0.34914266  0.41108072  1  0.994484  0  0.139882  0.087272  0  3.945486  0
C  C87  1  0.65085894  0.57607743  0.08892020  1  0.994441  0  0.139853  0.08714  0  3.945397  0
C  C88  1  0.71270446  0.48073475  0.55702343  1  0.262178  0  -0.003314  -0.11379  0  3.899489  0
C  C89  1  0.51926466  0.28729621  0.94297685  1  0.262263  0  -0.003283  -0.113732  0  3.899464  0
C  C90  1  0.28729206  0.51926444  0.44297568  1  0.262296  0  -0.003277  -0.113711  0  3.89931  0
C  C91  1  0.48073830  0.71270475  0.05702520  1  0.262369  0  -0.003275  -0.113748  0  3.899354  0
C  C92  1  0.74390861  0.59752563  0.52605524  1  0.393169  0  -0.010758  -0.049434  0  4.038698  0
C  C93  1  0.40247533  0.25609079  0.97394413  1  0.393172  0  -0.010755  -0.049484  0  4.038655  0
C  C94  1  0.25608898  0.40247367  0.47394398  1  0.393503  0  -0.010774  -0.049481  0  4.038705  0
C  C95  1  0.59752870  0.74391028  0.02605694  1  0.393218  0  -0.010803  -0.049562  0  4.038665  0
C  C96  1  0.54022983  0.42868165  0.64167567  1  0.346436  0  -0.047534  -0.058419  0  3.861898  0
C  C97  1  0.57131972  0.45976979  0.85832544  1  0.346438  0  -0.047499  -0.058356  0  3.861896  0
C  C98  1  0.45976884  0.57131671  0.35832411  1  0.346456  0  -0.047544  -0.058402  0  3.861887  0
C  C99  1  0.42868431  0.54022808  0.14167533  1  0.346442  0  -0.04757  -0.058471  0  3.862012  0
C  C100  1  0.59692297  0.48282848  0.72604890  1  0.026013  0  -0.163231  -0.162146  0  3.934187  0
C  C101  1  0.51717692  0.40307684  0.77395097  1  -0.001755  0  -0.163206  -0.162108  0  3.934158  0
C  C102  1  0.40307891  0.51717129  0.27395076  1  0.026015  0  -0.163231  -0.162214  0  3.934395  0
C  C103  1  0.48282817  0.59691901  0.22604917  1  -0.001804  0  -0.163253  -0.162257  0  3.934398  0
N  N104  1  0.14807880  0.16395675  0.68774618  1  -1.199286  0  -0.227781  -0.008915  0  3.672207  0
N  N105  1  0.83604549  0.85192022  0.81225354  1  -1.198622  0  -0.227788  -0.008852  0  3.672122  0
N  N106  1  0.85192094  0.83604812  0.31225321  1  -1.19887  0  -0.227718  -0.008743  0  3.672026  0
N  N107  1  0.16395639  0.14807955  0.18774666  1  -1.198788  0  -0.227765  -0.008799  0  3.672073  0
N  N108  1  0.60557276  0.51642112  0.59645905  1  -1.229954  0  -0.242617  0.041742  0  3.771631  0
N  N109  1  0.48358003  0.39442725  0.90354049  1  -1.229682  0  -0.242677  0.041704  0  3.771647  0
N  N110  1  0.39442483  0.48357819  0.40354018  1  -1.230061  0  -0.24263  0.041695  0  3.77149  0
N  N111  1  0.51642293  0.60557263  0.09646037  1  -1.230098  0  -0.242664  0.041733  0  3.771537  0
N  N112  1  0.65782002  0.70271620  0.54630102  1  -1.228229  0  -0.359608  -0.307394  0  3.559161  0
N  N113  1  0.29728453  0.34217952  0.95369866  1  -1.22818  0  -0.359577  -0.307352  0  3.559022  0
N  N114  1  0.34217757  0.29728311  0.45369929  1  -1.228263  0  -0.359575  -0.307396  0  3.559056  0
N  N115  1  0.70271949  0.65782048  0.04630176  1  -1.228273  0  -0.359521  -0.307301  0  3.559047  0
O  O116  1  0.80204818  0.17259401  0.56800095  1  -1.184086  0  -0.335592  -0.565973  0  2.161236  0
O  O117  1  0.82741090  0.19795311  0.93200139  1  -1.18377  0  -0.335632  -0.566035  0  2.161273  0
O  O118  1  0.19794942  0.82741063  0.43199931  1  -1.183984  0  -0.33568  -0.56611  0  2.161164  0
O  O119  1  0.17259098  0.80204773  0.06799946  1  -1.183726  0  -0.335596  -0.565995  0  2.1613  0
O  O120  1  0.91324541  0.98997310  0.60439229  1  -1.165661  0  -0.327089  -0.550994  0  2.174147  0
O  O121  1  0.01003178  0.08675414  0.89560892  1  -1.165689  0  -0.32708  -0.550927  0  2.173945  0
O  O122  1  0.08675540  0.01003189  0.39560667  1  -1.165708  0  -0.327132  -0.551077  0  2.173949  0
O  O123  1  0.98996903  0.91324765  0.10439137  1  -1.165671  0  -0.327103  -0.550975  0  2.173961  0
O  O124  1  0.23554408  0.16155588  0.58055933  1  -1.166591  0  -0.317272  -0.525867  0  2.317159  0
O  O125  1  0.83844598  0.76445728  0.91944151  1  -1.166601  0  -0.31727  -0.525864  0  2.31733  0
O  O126  1  0.76446210  0.83845182  0.41944255  1  -1.166621  0  -0.317305  -0.525895  0  2.317341  0
O  O127  1  0.16155697  0.23554367  0.08055945  1  -1.166566  0  -0.317286  -0.525832  0  2.317178  0
O  O128  1  0.47626085  0.00216154  0.57079426  1  -1.183718  0  -0.340713  -0.581389  0  2.411148  0
O  O129  1  0.99783920  0.52373852  0.92920615  1  -1.183747  0  -0.340706  -0.581395  0  2.411104  0
O  O130  1  0.52373997  0.99784131  0.42920776  1  -1.183736  0  -0.340739  -0.581391  0  2.41108  0
O  O131  1  0.00216269  0.47626125  0.07079405  1  -1.183758  0  -0.340762  -0.581441  0  2.411135  0
O  O132  1  0.60185857  0.98888818  0.68365460  1  -1.19233  0  -0.324137  -0.56912  0  2.176305  0
O  O133  1  0.01111222  0.39813817  0.81634646  1  -1.192374  0  -0.324125  -0.569089  0  2.176355  0
O  O134  1  0.39813688  0.01110557  0.31634717  1  -1.192347  0  -0.324109  -0.569046  0  2.176392  0
O  O135  1  0.98889181  0.60186290  0.18365406  1  -1.192373  0  -0.324129  -0.569084  0  2.176432  0
