# generated using pymatgen
data_CdH4C3SBrN3
_symmetry_space_group_name_H-M   'P 1'
_cell_length_a   7.79600497
_cell_length_b   10.72158677
_cell_length_c   17.80830000
_cell_angle_alpha   90.00000000
_cell_angle_beta   90.00000000
_cell_angle_gamma   90.00000000
_symmetry_Int_Tables_number   1
_chemical_formula_structural   CdH4C3SBrN3
_chemical_formula_sum   'Cd8 H32 C24 S8 Br8 N24'
_cell_volume   1488.51643887
_cell_formula_units_Z   8
loop_
 _symmetry_equiv_pos_site_id
 _symmetry_equiv_pos_as_xyz
  1  'x, y, z'
loop_
 _atom_site_type_symbol
 _atom_site_label
 _atom_site_symmetry_multiplicity
 _atom_site_fract_x
 _atom_site_fract_y
 _atom_site_fract_z
 _atom_site_occupancy
 _atom_site_hle17_bader_spin_density
 _atom_site_hle17_ddec_charge
 _atom_site_hle17_ddec_spin_density
 _atom_site_hle17_ddec_sum_bond_order
 _atom_site_hle17_magmom
 _atom_site_hse06_10hf_bader_spin_density
 _atom_site_hse06_10hf_ddec_charge
 _atom_site_hse06_10hf_ddec_spin_density
 _atom_site_hse06_10hf_ddec_sum_bond_order
 _atom_site_hse06_10hf_magmom
 _atom_site_hse06_bader_spin_density
 _atom_site_hse06_ddec_charge
 _atom_site_hse06_ddec_spin_density
 _atom_site_hse06_ddec_sum_bond_order
 _atom_site_hse06_magmom
 _atom_site_pbe_bader_charge
 _atom_site_pbe_bader_spin_density
 _atom_site_pbe_cm5_charge
 _atom_site_pbe_ddec_charge
 _atom_site_pbe_ddec_spin_density
 _atom_site_pbe_ddec_sum_bond_order
 _atom_site_pbe_magmom
Cd  Cd0  1  0.81450179  0.82125344  0.33166894  1  0  0.847711  0  2.011591  0  0  0.667006  0  2.489891  0  0  0.713935  0  2.451602  0  1.032325  0  0.575986  0.633991  0  2.51584  0
Cd  Cd1  1  0.68549341  0.67874561  0.83167006  1  0  0.847737  0  2.011607  0  0  0.667046  0  2.4899  0  0  0.713976  0  2.451608  0  1.032244  0  0.576003  0.63403  0  2.515854  0
Cd  Cd2  1  0.81450435  0.17874686  0.16832937  1  0  0.84772  0  2.011589  0  0  0.66702  0  2.489884  0  0  0.713951  0  2.451594  0  1.032289  0  0.575994  0.634006  0  2.515831  0
Cd  Cd3  1  0.68549212  0.32125375  0.66833162  1  0  0.847797  0  2.011549  0  0  0.667105  0  2.489848  0  0  0.714032  0  2.451557  0  1.032271  0  0.576021  0.634088  0  2.515805  0
Cd  Cd4  1  0.18549629  0.17874780  0.66832994  1  0  0.847751  0  2.011661  0  0  0.667064  0  2.48996  0  0  0.713992  0  2.451671  0  1.032244  0  0.576004  0.634052  0  2.515909  0
Cd  Cd5  1  0.31450211  0.32125189  0.16833050  1  0  0.847715  0  2.011568  0  0  0.667011  0  2.489861  0  0  0.713943  0  2.451569  0  1.032299  0  0.575996  0.633997  0  2.515809  0
Cd  Cd6  1  0.18549886  0.82125157  0.83167119  1  0  0.847744  0  2.011549  0  0  0.667046  0  2.489835  0  0  0.71398  0  2.451543  0  1.032275  0  0.576  0.634034  0  2.515783  0
Cd  Cd7  1  0.31450083  0.67874561  0.33167006  1  0  0.847701  0  2.011652  0  0  0.667001  0  2.489955  0  0  0.713933  0  2.451662  0  1.032308  0  0.575973  0.633994  0  2.51589  0
H  H8  1  0.41360415  0.13519361  0.32693126  1  0  0.112356  0  0.924755  0  0  0.121483  0  0.988819  0  0  0.124203  0  0.98553  0  0.187944  0  0.139104  0.11936  0  0.991389  0
H  H9  1  0.08639168  0.36480887  0.82693519  1  0  0.112356  0  0.924472  0  0  0.121431  0  0.988626  0  0  0.124159  0  0.985328  0  0.187934  0  0.139077  0.119307  0  0.991196  0
H  H10  1  0.41360158  0.86480856  0.17306649  1  0  0.112309  0  0.924867  0  0  0.121418  0  0.988968  0  0  0.124144  0  0.98567  0  0.187915  0  0.139083  0.119295  0  0.991538  0
H  H11  1  0.08639810  0.63519516  0.67306705  1  0  0.112361  0  0.924746  0  0  0.121474  0  0.988825  0  0  0.124207  0  0.98552  0  0.187957  0  0.139101  0.119351  0  0.991394  0
H  H12  1  0.58640932  0.86480296  0.67306593  1  0  0.112297  0  0.924929  0  0  0.121394  0  0.989009  0  0  0.124132  0  0.985693  0  0.187954  0  0.139097  0.119272  0  0.991574  0
H  H13  1  0.91359870  0.63519236  0.17306818  1  0  0.112326  0  0.924483  0  0  0.121395  0  0.988633  0  0  0.124162  0  0.985287  0  0.18803  0  0.139066  0.119272  0  0.991201  0
H  H14  1  0.58639906  0.13519827  0.82693126  1  0  0.11235  0  0.924455  0  0  0.121405  0  0.988618  0  0  0.124183  0  0.98526  0  0.187988  0  0.139061  0.119281  0  0.991186  0
H  H15  1  0.91359485  0.36480608  0.32693182  1  0  0.112241  0  0.925068  0  0  0.121346  0  0.989143  0  0  0.124083  0  0.985827  0  0.187896  0  0.139093  0.119225  0  0.991708  0
H  H16  1  0.32042181  0.04848350  0.45200047  1  0  0.115041  0  0.947839  0  0  0.134216  0  1.010794  0  0  0.13576  0  1.009717  0  0.123554  0  0.097008  0.132913  0  1.01178  0
H  H17  1  0.17958301  0.45152272  0.95199879  1  0  0.115037  0  0.947921  0  0  0.134216  0  1.010864  0  0  0.13576  0  1.009788  0  0.123504  0  0.096993  0.132914  0  1.011848  0
H  H18  1  0.32041026  0.95151867  0.04800009  1  0  0.115041  0  0.947978  0  0  0.134208  0  1.010925  0  0  0.13575  0  1.009846  0  0.123672  0  0.097007  0.132908  0  1.011905  0
H  H19  1  0.17957787  0.54848038  0.54799953  1  0  0.115008  0  0.947881  0  0  0.134184  0  1.010842  0  0  0.135728  0  1.009764  0  0.123571  0  0.096987  0.132881  0  1.011828  0
H  H20  1  0.67959423  0.95151494  0.54800234  1  0  0.114999  0  0.947955  0  0  0.13418  0  1.010893  0  0  0.135722  0  1.009817  0  0.12359  0  0.097013  0.132882  0  1.011872  0
H  H21  1  0.82041379  0.54847945  0.04800346  1  0  0.115016  0  0.947833  0  0  0.134181  0  1.010798  0  0  0.135725  0  1.009724  0  0.123563  0  0.09698  0.132882  0  1.01178  0
H  H22  1  0.67958653  0.04848350  0.95199598  1  0  0.115035  0  0.947886  0  0  0.134203  0  1.010838  0  0  0.135747  0  1.009764  0  0.123544  0  0.096997  0.132901  0  1.011822  0
H  H23  1  0.82041892  0.45151432  0.45200047  1  0  0.115001  0  0.9479  0  0  0.134177  0  1.010854  0  0  0.13572  0  1.009776  0  0.123568  0  0.09701  0.132877  0  1.011835  0
H  H24  1  0.14329134  0.94391998  0.44250995  1  0  0.099261  0  0.98058  0  0  0.113331  0  1.057911  0  0  0.114186  0  1.057639  0  0.094158  0  0.087967  0.112593  0  1.058177  0
H  H25  1  0.35671091  0.55608280  0.94250434  1  0  0.099306  0  0.980523  0  0  0.113376  0  1.057864  0  0  0.11423  0  1.057593  0  0.094072  0  0.088011  0.112635  0  1.058136  0
H  H26  1  0.14328236  0.05607939  0.05749342  1  0  0.099242  0  0.980446  0  0  0.113289  0  1.057804  0  0  0.114143  0  1.057532  0  0.094108  0  0.087962  0.112551  0  1.058071  0
H  H27  1  0.35670834  0.44392030  0.55749117  1  0  0.099212  0  0.980565  0  0  0.113288  0  1.057903  0  0  0.11414  0  1.057634  0  0.094132  0  0.087958  0.112549  0  1.05817  0
H  H28  1  0.85672213  0.05607845  0.55749229  1  0  0.099234  0  0.980389  0  0  0.113282  0  1.057761  0  0  0.114133  0  1.057491  0  0.094126  0  0.087967  0.112544  0  1.058028  0
H  H29  1  0.64328589  0.44391843  0.05749510  1  0  0.099241  0  0.980416  0  0  0.113305  0  1.057779  0  0  0.114159  0  1.057507  0  0.094074  0  0.087983  0.112568  0  1.058047  0
H  H30  1  0.85671444  0.94392185  0.94250490  1  0  0.099214  0  0.980537  0  0  0.113273  0  1.057896  0  0  0.114125  0  1.057626  0  0.094146  0  0.087969  0.112536  0  1.05816  0
H  H31  1  0.64328717  0.55607720  0.44250883  1  0  0.099237  0  0.980457  0  0  0.113294  0  1.057811  0  0  0.114147  0  1.057539  0  0.094176  0  0.087965  0.112558  0  1.058076  0
H  H32  1  0.10977802  0.09853392  0.47801643  1  0  0.105395  0  0.962784  0  0  0.121605  0  1.034756  0  0  0.122421  0  1.034519  0  0.095369  0  0.093541  0.120796  0  1.035181  0
H  H33  1  0.39022679  0.40147229  0.97801643  1  0  0.105338  0  0.96287  0  0  0.121568  0  1.034825  0  0  0.122388  0  1.034582  0  0.09537  0  0.093542  0.120762  0  1.035247  0
H  H34  1  0.10976904  0.90146731  0.02198413  1  0  0.105353  0  0.962808  0  0  0.121568  0  1.034779  0  0  0.122387  0  1.034538  0  0.095279  0  0.093526  0.120762  0  1.035203  0
H  H35  1  0.39022166  0.59853361  0.52198301  1  0  0.105364  0  0.962793  0  0  0.121586  0  1.03476  0  0  0.122404  0  1.034522  0  0.095343  0  0.093534  0.120781  0  1.035182  0
H  H36  1  0.89023417  0.90146358  0.52198638  1  0  0.105287  0  0.962805  0  0  0.121524  0  1.034769  0  0  0.122344  0  1.034526  0  0.095251  0  0.093517  0.12072  0  1.035192  0
H  H37  1  0.60977001  0.59853081  0.02198582  1  0  0.105346  0  0.962847  0  0  0.12157  0  1.034808  0  0  0.122388  0  1.03457  0  0.095335  0  0.093532  0.120765  0  1.035229  0
H  H38  1  0.89022775  0.09853392  0.97801306  1  0  0.105299  0  0.962891  0  0  0.121547  0  1.034837  0  0  0.122365  0  1.034595  0  0.095329  0  0.093522  0.12074  0  1.03526  0
H  H39  1  0.60977385  0.40146203  0.47801643  1  0  0.105323  0  0.962771  0  0  0.121542  0  1.034754  0  0  0.122359  0  1.034515  0  0.095331  0  0.093521  0.120738  0  1.035176  0
C  C40  1  0.99999167  0.10090671  0.32706884  1  0  0.304733  0  3.792691  0  0  0.266175  0  4.080928  0  0  0.285424  0  4.093778  0  0.811673  0  0.203892  0.25319  0  4.072181  0
C  C41  1  0.50000481  0.39909484  0.82706884  1  0  0.3047  0  3.792778  0  0  0.266168  0  4.080955  0  0  0.285415  0  4.093808  0  0.81164  0  0.20387  0.253186  0  4.072204  0
C  C42  1  0.99999167  0.89909453  0.17293228  1  0  0.304826  0  3.792684  0  0  0.266312  0  4.080835  0  0  0.285558  0  4.093693  0  0.811693  0  0.203938  0.253324  0  4.07209  0
C  C43  1  0.50000738  0.60090452  0.67293004  1  0  0.304688  0  3.792649  0  0  0.266124  0  4.080894  0  0  0.285371  0  4.093747  0  0.811674  0  0.203893  0.253141  0  4.072145  0
C  C44  1  0.00001026  0.89909173  0.67293622  1  0  0.304639  0  3.792917  0  0  0.266223  0  4.080978  0  0  0.285471  0  4.09383  0  0.811871  0  0.203975  0.253236  0  4.072231  0
C  C45  1  0.49998685  0.60090452  0.17293453  1  0  0.30465  0  3.792802  0  0  0.266145  0  4.080983  0  0  0.285391  0  4.093832  0  0.811688  0  0.203883  0.253159  0  4.072238  0
C  C46  1  0.00001283  0.10090857  0.82706435  1  0  0.30468  0  3.792811  0  0  0.266224  0  4.08092  0  0  0.285472  0  4.093768  0  0.811739  0  0.203937  0.253241  0  4.072173  0
C  C47  1  0.49999455  0.39909484  0.32706828  1  0  0.304671  0  3.793134  0  0  0.26617  0  4.081269  0  0  0.285418  0  4.094125  0  0.811694  0  0.203919  0.253183  0  4.072524  0
C  C48  1  0.27699187  0.13367145  0.31511599  1  0  0.176721  0  3.639986  0  0  0.108507  0  3.912965  0  0  0.123717  0  3.923748  0  0.998286  0  0.156557  0.098635  0  3.905586  0
C  C49  1  0.22301807  0.36633477  0.81511655  1  0  0.176797  0  3.640357  0  0  0.108612  0  3.913346  0  0  0.123814  0  3.924132  0  0.99844  0  0.156626  0.098745  0  3.905961  0
C  C50  1  0.27700213  0.86633259  0.18488289  1  0  0.176797  0  3.639615  0  0  0.108578  0  3.91261  0  0  0.123784  0  3.92339  0  0.998095  0  0.156529  0.098704  0  3.905231  0
C  C51  1  0.22300781  0.63366833  0.68488233  1  0  0.17675  0  3.639969  0  0  0.108539  0  3.912953  0  0  0.123738  0  3.923734  0  0.998273  0  0.156558  0.098669  0  3.905573  0
C  C52  1  0.72299210  0.86632606  0.68488233  1  0  0.176787  0  3.639141  0  0  0.10864  0  3.912098  0  0  0.123837  0  3.922871  0  0.998036  0  0.156535  0.098765  0  3.904723  0
C  C53  1  0.77697616  0.63366833  0.18488738  1  0  0.176834  0  3.640019  0  0  0.108671  0  3.913  0  0  0.123843  0  3.923766  0  0.998526  0  0.156674  0.098799  0  3.905619  0
C  C54  1  0.72302288  0.13367424  0.81511149  1  0  0.176825  0  3.64008  0  0  0.108657  0  3.91308  0  0  0.123819  0  3.923846  0  0.998567  0  0.15673  0.098791  0  3.905694  0
C  C55  1  0.77701592  0.36632637  0.31511823  1  0  0.176983  0  3.638888  0  0  0.108789  0  3.911875  0  0  0.123988  0  3.922647  0  0.998144  0  0.156534  0.098912  0  3.904502  0
C  C56  1  0.18400450  0.04151904  0.43861570  1  0  -0.169615  0  3.639836  0  0  -0.274141  0  3.884588  0  0  -0.270696  0  3.893094  0  0.206846  0  -0.142654  -0.275998  0  3.87871  0
C  C57  1  0.31599903  0.45848251  0.93861682  1  0  -0.169533  0  3.639723  0  0  -0.274108  0  3.884538  0  0  -0.270663  0  3.893043  0  0.206934  0  -0.142652  -0.275967  0  3.878659  0
C  C58  1  0.18399809  0.95847846  0.06138430  1  0  -0.169467  0  3.639944  0  0  -0.273984  0  3.884766  0  0  -0.270536  0  3.893273  0  0.207243  0  -0.142592  -0.275849  0  3.878886  0
C  C59  1  0.31599646  0.54152059  0.56138261  1  0  -0.169531  0  3.639756  0  0  -0.274085  0  3.88453  0  0  -0.270642  0  3.893036  0  0.206839  0  -0.142626  -0.275944  0  3.878651  0
C  C60  1  0.81600384  0.95847566  0.56138598  1  0  -0.169404  0  3.639893  0  0  -0.273917  0  3.884725  0  0  -0.270471  0  3.893235  0  0.207538  0  -0.142567  -0.275781  0  3.878844  0
C  C61  1  0.68399520  0.54151873  0.06138598  1  0  -0.169465  0  3.639622  0  0  -0.274005  0  3.884488  0  0  -0.270563  0  3.892995  0  0.206779  0  -0.142568  -0.275869  0  3.878611  0
C  C62  1  0.81600128  0.04152277  0.93861346  1  0  -0.169403  0  3.639975  0  0  -0.273953  0  3.884764  0  0  -0.27051  0  3.893273  0  0.206729  0  -0.142557  -0.275813  0  3.878883  0
C  C63  1  0.68400546  0.45847505  0.43861346  1  0  -0.169462  0  3.639976  0  0  -0.273983  0  3.884799  0  0  -0.270535  0  3.893311  0  0.20743  0  -0.142586  -0.275846  0  3.878915  0
S  S64  1  0.80484684  0.05615960  0.36240180  1  0  -0.457798  0  2.052288  0  0  -0.421929  0  2.396525  0  0  -0.440926  0  2.389022  0  -0.24791  0  -0.224021  -0.408295  0  2.401394  0
S  S65  1  0.69515348  0.44383915  0.86240068  1  0  -0.457809  0  2.052301  0  0  -0.421935  0  2.396521  0  0  -0.440933  0  2.389016  0  -0.24811  0  -0.224042  -0.408302  0  2.40139  0
S  S66  1  0.80484171  0.94383791  0.13760213  1  0  -0.457792  0  2.052222  0  0  -0.421923  0  2.39641  0  0  -0.440917  0  2.388905  0  -0.248128  0  -0.224015  -0.40829  0  2.401279  0
S  S67  1  0.69515476  0.55615928  0.63759595  1  0  -0.457809  0  2.052127  0  0  -0.421938  0  2.396366  0  0  -0.440936  0  2.388862  0  -0.247933  0  -0.224031  -0.408304  0  2.401236  0
S  S68  1  0.19516021  0.94383697  0.63760269  1  0  -0.457865  0  2.05218  0  0  -0.422035  0  2.39633  0  0  -0.441031  0  2.388828  0  -0.248166  0  -0.224074  -0.408401  0  2.401198  0
S  S69  1  0.30483947  0.55615928  0.13760269  1  0  -0.457833  0  2.05224  0  0  -0.421964  0  2.396434  0  0  -0.440958  0  2.388936  0  -0.24817  0  -0.224053  -0.408331  0  2.401305  0
S  S70  1  0.19516021  0.05616240  0.86239731  1  0  -0.457838  0  2.052243  0  0  -0.421985  0  2.396405  0  0  -0.440982  0  2.388909  0  -0.247918  0  -0.224054  -0.408353  0  2.401273  0
S  S71  1  0.30484845  0.44384009  0.36240180  1  0  -0.457834  0  2.052323  0  0  -0.421988  0  2.396517  0  0  -0.440983  0  2.389016  0  -0.247898  0  -0.224067  -0.408355  0  2.401387  0
Br  Br72  1  0.02370701  0.69453619  0.42310496  1  0  -0.482169  0  1.068098  0  0  -0.405903  0  1.380142  0  0  -0.426276  0  1.355909  0  -0.559961  0  -0.240475  -0.391507  0  1.396831  0
Br  Br73  1  0.47628754  0.80547312  0.92310552  1  0  -0.482178  0  1.06809  0  0  -0.405913  0  1.380136  0  0  -0.42628  0  1.355887  0  -0.559933  0  -0.240472  -0.391512  0  1.396819  0
Br  Br74  1  0.02370958  0.30547064  0.07689336  1  0  -0.482193  0  1.068086  0  0  -0.405913  0  1.380117  0  0  -0.426284  0  1.355877  0  -0.559928  0  -0.240475  -0.391514  0  1.396802  0
Br  Br75  1  0.47628112  0.19454117  0.57689504  1  0  -0.482207  0  1.068121  0  0  -0.405949  0  1.380169  0  0  -0.426307  0  1.355903  0  -0.559901  0  -0.240474  -0.39155  0  1.396856  0
Br  Br76  1  0.97627824  0.30544266  0.57689224  1  0  -0.482186  0  1.068116  0  0  -0.405924  0  1.380169  0  0  -0.426278  0  1.355897  0  -0.559907  0  -0.240455  -0.39152  0  1.396846  0
Br  Br77  1  0.52370798  0.19453557  0.07689504  1  0  -0.482166  0  1.068092  0  0  -0.405901  0  1.380139  0  0  -0.426267  0  1.355891  0  -0.559954  0  -0.240472  -0.391499  0  1.396817  0
Br  Br78  1  0.97627952  0.69453339  0.92310440  1  0  -0.482185  0  1.068101  0  0  -0.40593  0  1.380171  0  0  -0.426285  0  1.355902  0  -0.559903  0  -0.240479  -0.391529  0  1.396854  0
Br  Br79  1  0.52370798  0.80546380  0.42310552  1  0  -0.482167  0  1.068065  0  0  -0.405906  0  1.38011  0  0  -0.426272  0  1.355869  0  -0.559952  0  -0.240473  -0.391509  0  1.396796  0
N  N80  1  0.02971779  0.15472990  0.26038027  1  0  -0.323519  0  3.170784  0  0  -0.262234  0  3.452287  0  0  -0.280628  0  3.471663  0  -0.74733  0  -0.259589  -0.249684  0  3.438777  0
N  N81  1  0.47027933  0.34526979  0.76037803  1  0  -0.323605  0  3.170684  0  0  -0.262311  0  3.452166  0  0  -0.280704  0  3.471544  0  -0.747789  0  -0.259601  -0.249765  0  3.438669  0
N  N82  1  0.02971779  0.84526854  0.23962141  1  0  -0.323487  0  3.170668  0  0  -0.262197  0  3.45212  0  0  -0.280594  0  3.471513  0  -0.747684  0  -0.259596  -0.249648  0  3.438616  0
N  N83  1  0.47028446  0.65472865  0.73961917  1  0  -0.323485  0  3.170831  0  0  -0.262202  0  3.452338  0  0  -0.280595  0  3.471716  0  -0.747107  0  -0.259603  -0.249654  0  3.438831  0
N  N84  1  0.97028543  0.84526854  0.73962310  1  0  -0.323394  0  3.170858  0  0  -0.262131  0  3.452278  0  0  -0.28053  0  3.47167  0  -0.747797  0  -0.259579  -0.249581  0  3.438769  0
N  N85  1  0.52971362  0.65473238  0.23962310  1  0  -0.323471  0  3.170979  0  0  -0.262177  0  3.452408  0  0  -0.28058  0  3.471811  0  -0.747777  0  -0.259556  -0.249626  0  3.438897  0
N  N86  1  0.97028543  0.15473549  0.76037522  1  0  -0.323459  0  3.17079  0  0  -0.262194  0  3.452227  0  0  -0.280593  0  3.471621  0  -0.74747  0  -0.259611  -0.249644  0  3.438718  0
N  N87  1  0.52971490  0.34527352  0.26038027  1  0  -0.323365  0  3.170801  0  0  -0.262083  0  3.452249  0  0  -0.280473  0  3.471627  0  -0.747148  0  -0.259555  -0.249532  0  3.438737  0
N  N88  1  0.15672001  0.08813434  0.36274490  1  0  -0.073362  0  3.505382  0  0  0.028745  0  3.726864  0  0  0.011656  0  3.74907  0  -1.231184  0  -0.231178  0.039927  0  3.71151  0
N  N89  1  0.34327582  0.41186534  0.86274153  1  0  -0.073366  0  3.50574  0  0  0.028746  0  3.727195  0  0  0.011656  0  3.749404  0  -1.231238  0  -0.231181  0.039924  0  3.711841  0
N  N90  1  0.15671616  0.91186876  0.13725398  1  0  -0.073457  0  3.505423  0  0  0.028652  0  3.726855  0  0  0.011557  0  3.74907  0  -1.231419  0  -0.231164  0.039837  0  3.7115  0
N  N91  1  0.34327967  0.58813403  0.63725510  1  0  -0.073215  0  3.505466  0  0  0.028903  0  3.726935  0  0  0.011814  0  3.749146  0  -1.231196  0  -0.23111  0.040082  0  3.71158  0
N  N92  1  0.84329474  0.91186782  0.63725117  1  0  -0.073237  0  3.505166  0  0  0.02877  0  3.726645  0  0  0.011676  0  3.74886  0  -1.231607  0  -0.231217  0.039953  0  3.711292  0
N  N93  1  0.65671585  0.58813403  0.13725903  1  0  -0.07331  0  3.505581  0  0  0.028777  0  3.727043  0  0  0.011687  0  3.749261  0  -1.230982  0  -0.231231  0.039958  0  3.711692  0
N  N94  1  0.84328448  0.08813807  0.86274209  1  0  -0.07345  0  3.505727  0  0  0.028629  0  3.727197  0  0  0.011537  0  3.749415  0  -1.230907  0  -0.231311  0.039806  0  3.711847  0
N  N95  1  0.65671328  0.41187001  0.36274827  1  0  -0.073414  0  3.505193  0  0  0.028673  0  3.726657  0  0  0.011577  0  3.748875  0  -1.231725  0  -0.231192  0.039858  0  3.711303  0
N  N96  1  0.20282568  0.17466724  0.25300731  1  0  -0.254754  0  3.209742  0  0  -0.196874  0  3.503605  0  0  -0.212797  0  3.522273  0  -0.763454  0  -0.256152  -0.185939  0  3.490523  0
N  N97  1  0.29716887  0.32533337  0.75300787  1  0  -0.254777  0  3.209797  0  0  -0.196909  0  3.503653  0  0  -0.212834  0  3.522325  0  -0.763492  0  -0.256177  -0.185975  0  3.490569  0
N  N98  1  0.20282696  0.82533213  0.24699494  1  0  -0.254873  0  3.209486  0  0  -0.196997  0  3.503355  0  0  -0.21292  0  3.522022  0  -0.76348  0  -0.256184  -0.186062  0  3.490277  0
N  N99  1  0.29717657  0.67466693  0.74699382  1  0  -0.254907  0  3.20965  0  0  -0.197017  0  3.503504  0  0  -0.212944  0  3.522179  0  -0.763546  0  -0.256193  -0.186082  0  3.490422  0
N  N100  1  0.79717625  0.82532933  0.74699719  1  0  -0.254917  0  3.20933  0  0  -0.19705  0  3.503208  0  0  -0.212975  0  3.521877  0  -0.763507  0  -0.256206  -0.186115  0  3.490129  0
N  N101  1  0.70282408  0.67466879  0.24699438  1  0  -0.254907  0  3.209867  0  0  -0.197022  0  3.503727  0  0  -0.212947  0  3.522403  0  -0.763759  0  -0.25623  -0.186086  0  3.490647  0
N  N102  1  0.79717368  0.17467284  0.75300450  1  0  -0.254846  0  3.209849  0  0  -0.196955  0  3.503719  0  0  -0.212882  0  3.522403  0  -0.763715  0  -0.256223  -0.186021  0  3.490641  0
N  N103  1  0.70282151  0.32532871  0.25300169  1  0  -0.254901  0  3.209112  0  0  -0.197021  0  3.502988  0  0  -0.212946  0  3.521661  0  -0.763428  0  -0.256148  -0.186085  0  3.489909  0
