# generated using pymatgen
data_AgH9C4INO
_symmetry_space_group_name_H-M   'P 1'
_cell_length_a   4.41770137
_cell_length_b   9.05076625
_cell_length_c   9.31504146
_cell_angle_alpha   95.70140455
_cell_angle_beta   103.89586376
_cell_angle_gamma   89.98030194
_symmetry_Int_Tables_number   1
_chemical_formula_structural   AgH9C4INO
_chemical_formula_sum   'Ag2 H18 C8 I2 N2 O2'
_cell_volume   359.65342848
_cell_formula_units_Z   2
loop_
 _symmetry_equiv_pos_site_id
 _symmetry_equiv_pos_as_xyz
  1  'x, y, z'
loop_
 _atom_site_type_symbol
 _atom_site_label
 _atom_site_symmetry_multiplicity
 _atom_site_fract_x
 _atom_site_fract_y
 _atom_site_fract_z
 _atom_site_occupancy
 _atom_site_pbe_bader_spin_density
 _atom_site_pbe_cm5_charge
 _atom_site_pbe_ddec_charge
 _atom_site_pbe_ddec_spin_density
 _atom_site_pbe_ddec_sum_bond_order
 _atom_site_pbe_magmom
Ag  Ag0  1  0.75711845  0.11662387  0.47782919  1  0  0.224764  0.175195  0  2.362441  0
Ag  Ag1  1  0.27878665  0.88479620  0.52287745  1  0  0.225231  0.175985  0  2.363353  0
H  H2  1  0.36893447  0.05609116  0.13238558  1  0  0.093605  0.082986  0  1.008852  0
H  H3  1  0.24417855  0.94324660  0.86989120  1  0  0.093286  0.08272  0  1.007527  0
H  H4  1  0.09796416  0.10496733  0.24015402  1  0  0.084638  0.06256  0  1.041716  0
H  H5  1  0.86301523  0.89586713  0.76246715  1  0  0.085449  0.063352  0  1.038723  0
H  H6  1  0.86890585  0.15965812  0.97956962  1  0  0.094387  0.078119  0  0.992095  0
H  H7  1  0.90158796  0.83792167  0.02294094  1  0  0.094528  0.078322  0  0.992457  0
H  H8  1  0.20661455  0.26785537  0.98052677  1  0  0.085361  0.056554  0  1.032418  0
H  H9  1  0.23618460  0.72901986  0.01861368  1  0  0.086466  0.058269  0  1.033008  0
H  H10  1  0.29806675  0.49850380  0.13165681  1  0  0.095219  0.064942  0  1.006125  0
H  H11  1  0.16962476  0.49992383  0.86538261  1  0  0.093863  0.06382  0  1.007467  0
H  H12  1  0.02432583  0.55552709  0.23883985  1  0  0.089003  0.076571  0  1.022144  0
H  H13  1  0.78600486  0.44496700  0.75865216  1  0  0.088614  0.076563  0  1.023283  0
H  H14  1  0.19758459  0.35662157  0.40453569  1  0  0.084879  0.066435  0  1.043783  0
H  H15  1  0.79178478  0.64642858  0.59579517  1  0  0.08433  0.065884  0  1.043948  0
H  H16  1  0.52814409  0.46405965  0.39607319  1  0  0.098794  0.088621  0  0.992852  0
H  H17  1  0.12879412  0.53795032  0.60131351  1  0  0.099434  0.089061  0  0.991573  0
H  H18  1  0.64786642  0.28118169  0.22423232  1  0  0.280775  0.222942  0  1.021502  0
H  H19  1  0.42670969  0.71842841  0.77556171  1  0  0.281049  0.223143  0  1.020587  0
C  C20  1  0.25065612  0.15057912  0.17654119  1  0  -0.092034  -0.074972  0  3.921083  0
C  C21  1  0.08012029  0.84930584  0.82505303  1  0  -0.091156  -0.075376  0  3.920963  0
C  C22  1  0.05840564  0.23106407  0.05107061  1  0  -0.080598  -0.004931  0  3.898923  0
C  C23  1  0.01605646  0.76722200  0.94973213  1  0  -0.081819  -0.007036  0  3.901319  0
C  C24  1  0.14776447  0.45990337  0.20038982  1  0  -0.082993  -0.006916  0  3.892418  0
C  C25  1  0.94971136  0.53992682  0.79783753  1  0  -0.082362  -0.006275  0  3.893653  0
C  C26  1  0.34346876  0.38636348  0.33056790  1  0  -0.09008  -0.076729  0  3.917544  0
C  C27  1  0.01285222  0.61507313  0.66850142  1  0  -0.089931  -0.076462  0  3.9157  0
I  I28  1  0.34157584  0.18478430  0.67375697  1  0  -0.15508  -0.306955  0  2.038387  0
I  I29  1  0.66597436  0.81632252  0.32711020  1  0  -0.155487  -0.307877  0  2.037754  0
N  N30  1  0.48831588  0.24945316  0.28092849  1  0  -0.497508  -0.283706  0  3.452869  0
N  N31  1  0.21013499  0.75112895  0.71935730  1  0  -0.499143  -0.284818  0  3.454471  0
O  O32  1  0.91273220  0.35795346  0.10907014  1  0  -0.233065  -0.220378  0  2.445289  0
O  O33  1  0.80963669  0.64127390  0.89081608  1  0  -0.232419  -0.219616  0  2.444948  0
