# generated using pymatgen
data_TiH26C34(NO2)2
_symmetry_space_group_name_H-M   'P 1'
_cell_length_a   8.12628828
_cell_length_b   11.46919800
_cell_length_c   15.42240170
_cell_angle_alpha   111.14507857
_cell_angle_beta   89.99985179
_cell_angle_gamma   90.00021603
_symmetry_Int_Tables_number   1
_chemical_formula_structural   TiH26C34(NO2)2
_chemical_formula_sum   'Ti2 H52 C68 N4 O8'
_cell_volume   1340.61877923
_cell_formula_units_Z   2
loop_
 _symmetry_equiv_pos_site_id
 _symmetry_equiv_pos_as_xyz
  1  'x, y, z'
loop_
 _atom_site_type_symbol
 _atom_site_label
 _atom_site_symmetry_multiplicity
 _atom_site_fract_x
 _atom_site_fract_y
 _atom_site_fract_z
 _atom_site_occupancy
 _atom_site_hle17_bader_spin_density
 _atom_site_hle17_ddec_charge
 _atom_site_hle17_ddec_spin_density
 _atom_site_hle17_ddec_sum_bond_order
 _atom_site_hle17_magmom
 _atom_site_hse06_10hf_bader_spin_density
 _atom_site_hse06_10hf_ddec_charge
 _atom_site_hse06_10hf_ddec_spin_density
 _atom_site_hse06_10hf_ddec_sum_bond_order
 _atom_site_hse06_10hf_magmom
 _atom_site_hse06_bader_spin_density
 _atom_site_hse06_ddec_charge
 _atom_site_hse06_ddec_spin_density
 _atom_site_hse06_ddec_sum_bond_order
 _atom_site_hse06_magmom
 _atom_site_pbe_bader_spin_density
 _atom_site_pbe_cm5_charge
 _atom_site_pbe_ddec_charge
 _atom_site_pbe_ddec_spin_density
 _atom_site_pbe_ddec_sum_bond_order
 _atom_site_pbe_magmom
Ti  Ti0  1  0.49999469  0.49999707  0.99999825  1  0  1.842722  0  2.461384  0  0  1.858784  0  2.81284  0  0  2.062683  0  2.591573  0  0  1.463127  1.781937  0  2.839879  0
Ti  Ti1  1  0.00000257  0.49999798  0.50000075  1  0  1.842839  0  2.461102  0  0  1.858847  0  2.81269  0  0  2.062768  0  2.591383  0  0  1.463051  1.782  0  2.839614  0
H  H2  1  0.72935876  0.21319412  0.75756414  1  0  0.093685  0  0.963004  0  0  0.10384  0  1.026886  0  0  0.106525  0  1.025551  0  0  0.093641  0.102011  0  1.027605  0
H  H3  1  0.22935715  0.78680520  0.74243698  1  0  0.093657  0  0.963005  0  0  0.103817  0  1.026883  0  0  0.106499  0  1.025554  0  0  0.093637  0.101992  0  1.0276  0
H  H4  1  0.27063429  0.78681327  0.24243842  1  0  0.093726  0  0.96303  0  0  0.103868  0  1.026916  0  0  0.106542  0  1.025592  0  0  0.09367  0.102043  0  1.027629  0
H  H5  1  0.77063590  0.21319002  0.25755909  1  0  0.093686  0  0.963007  0  0  0.103825  0  1.026905  0  0  0.106509  0  1.025572  0  0  0.093642  0.101998  0  1.027624  0
H  H6  1  0.84540226  0.20872679  0.60523390  1  0  0.097506  0  0.956516  0  0  0.11029  0  1.015375  0  0  0.113032  0  1.014149  0  0  0.096224  0.108365  0  1.016134  0
H  H7  1  0.34539500  0.79127655  0.89476877  1  0  0.097542  0  0.956511  0  0  0.110304  0  1.015402  0  0  0.113046  0  1.014164  0  0  0.096233  0.108376  0  1.016172  0
H  H8  1  0.15459817  0.79128435  0.39477160  1  0  0.097532  0  0.956553  0  0  0.110255  0  1.01549  0  0  0.112999  0  1.014252  0  0  0.096204  0.10833  0  1.01626  0
H  H9  1  0.65459805  0.20871868  0.10522666  1  0  0.097507  0  0.956586  0  0  0.110294  0  1.015448  0  0  0.11304  0  1.014208  0  0  0.096211  0.108363  0  1.016218  0
H  H10  1  0.76485465  0.60493961  0.69024768  1  0  0.101656  0  0.971972  0  0  0.111431  0  1.034287  0  0  0.11377  0  1.034218  0  0  0.098545  0.109722  0  1.034586  0
H  H11  1  0.26484939  0.39506073  0.80975431  1  0  0.101642  0  0.97196  0  0  0.111413  0  1.034287  0  0  0.11375  0  1.034218  0  0  0.09852  0.109699  0  1.034584  0
H  H12  1  0.23514086  0.39507153  0.30975977  1  0  0.101588  0  0.971895  0  0  0.111311  0  1.034285  0  0  0.113649  0  1.034216  0  0  0.098465  0.109598  0  1.034582  0
H  H13  1  0.73514120  0.60493356  0.19024281  1  0  0.101639  0  0.971958  0  0  0.111378  0  1.034307  0  0  0.113715  0  1.034238  0  0  0.098482  0.109665  0  1.034604  0
H  H14  1  0.64008393  0.60689496  0.83802870  1  0  0.101797  0  0.970266  0  0  0.111724  0  1.032941  0  0  0.114397  0  1.032031  0  0  0.100238  0.109732  0  1.033851  0
H  H15  1  0.14008799  0.39310415  0.66196989  1  0  0.101807  0  0.970261  0  0  0.111738  0  1.032927  0  0  0.114409  0  1.032019  0  0  0.100224  0.109747  0  1.033838  0
H  H16  1  0.35990667  0.39311057  0.16197531  1  0  0.101782  0  0.970227  0  0  0.111621  0  1.033007  0  0  0.114295  0  1.032104  0  0  0.100221  0.109628  0  1.033915  0
H  H17  1  0.85990630  0.60689387  0.33802499  1  0  0.101865  0  0.970267  0  0  0.111734  0  1.033004  0  0  0.114408  0  1.032099  0  0  0.100246  0.109745  0  1.033918  0
H  H18  1  0.87065117  0.52066971  0.95201174  1  0  0.085351  0  0.947848  0  0  0.093216  0  1.011215  0  0  0.095854  0  1.009347  0  0  0.122434  0.091152  0  1.012984  0
H  H19  1  0.37066609  0.47933180  0.54798717  1  0  0.085263  0  0.947894  0  0  0.093126  0  1.011262  0  0  0.095763  0  1.009396  0  0  0.122403  0.091061  0  1.013033  0
H  H20  1  0.12934066  0.47933299  0.04798438  1  0  0.08534  0  0.947788  0  0  0.093179  0  1.011201  0  0  0.095815  0  1.009333  0  0  0.122403  0.091112  0  1.012971  0
H  H21  1  0.62935034  0.52066531  0.45201394  1  0  0.085332  0  0.947758  0  0  0.093164  0  1.011181  0  0  0.095806  0  1.009314  0  0  0.12238  0.091098  0  1.012951  0
H  H22  1  0.09529997  0.67759370  0.98823780  1  0  0.121081  0  0.972817  0  0  0.130366  0  1.033249  0  0  0.134578  0  1.031444  0  0  0.111394  0.127481  0  1.034334  0
H  H23  1  0.59530460  0.32239972  0.51176451  1  0  0.121148  0  0.97287  0  0  0.130488  0  1.033213  0  0  0.134712  0  1.031412  0  0  0.111434  0.1276  0  1.034298  0
H  H24  1  0.90470169  0.32239968  0.01176362  1  0  0.121114  0  0.972919  0  0  0.130412  0  1.033316  0  0  0.134628  0  1.031513  0  0  0.111387  0.127525  0  1.034398  0
H  H25  1  0.40470199  0.67758711  0.48823516  1  0  0.121029  0  0.972785  0  0  0.130366  0  1.033167  0  0  0.134579  0  1.03136  0  0  0.111395  0.127478  0  1.03425  0
H  H26  1  0.28037719  0.80216681  0.07650439  1  0  0.108362  0  0.966101  0  0  0.114928  0  1.034441  0  0  0.119487  0  1.0303  0  0  0.104432  0.111663  0  1.037372  0
H  H27  1  0.78037791  0.19783746  0.42349791  1  0  0.10847  0  0.965976  0  0  0.114979  0  1.034407  0  0  0.119526  0  1.030286  0  0  0.104484  0.111713  0  1.037342  0
H  H28  1  0.71962324  0.19783405  0.92349902  1  0  0.108327  0  0.966095  0  0  0.114901  0  1.034436  0  0  0.119471  0  1.030284  0  0  0.104437  0.111634  0  1.037367  0
H  H29  1  0.21961883  0.80216524  0.57649756  1  0  0.108451  0  0.966059  0  0  0.114918  0  1.034517  0  0  0.119484  0  1.03037  0  0  0.104465  0.111654  0  1.037451  0
H  H30  1  0.48536046  0.97254832  0.10675205  1  0  0.079621  0  0.974533  0  0  0.090723  0  1.036208  0  0  0.09297  0  1.036143  0  0  0.095182  0.089161  0  1.036253  0
H  H31  1  0.98535918  0.02745827  0.39324735  1  0  0.079667  0  0.974496  0  0  0.090759  0  1.036168  0  0  0.093005  0  1.036104  0  0  0.095216  0.089195  0  1.036218  0
H  H32  1  0.51463998  0.02745440  0.89324926  1  0  0.079636  0  0.974496  0  0  0.090733  0  1.036171  0  0  0.09298  0  1.036105  0  0  0.095193  0.089168  0  1.036221  0
H  H33  1  0.01464125  0.97254722  0.60674757  1  0  0.079642  0  0.97445  0  0  0.090747  0  1.036125  0  0  0.092995  0  1.036057  0  0  0.095193  0.089182  0  1.036174  0
H  H34  1  0.09388691  0.24339654  0.16099089  1  0  0.093933  0  0.959341  0  0  0.104214  0  1.021551  0  0  0.106605  0  1.021955  0  0  0.101151  0.102508  0  1.021325  0
H  H35  1  0.59389103  0.75660356  0.33900926  1  0  0.093961  0  0.959358  0  0  0.104237  0  1.02156  0  0  0.106628  0  1.021967  0  0  0.101159  0.102531  0  1.021337  0
H  H36  1  0.90610860  0.75660152  0.83901372  1  0  0.093916  0  0.959316  0  0  0.104214  0  1.021507  0  0  0.106605  0  1.021913  0  0  0.101129  0.10251  0  1.021287  0
H  H37  1  0.40612171  0.24339355  0.66098991  1  0  0.093947  0  0.959273  0  0  0.104246  0  1.02147  0  0  0.106637  0  1.021874  0  0  0.101163  0.102539  0  1.021246  0
H  H38  1  0.89014675  0.07368994  0.12533062  1  0  0.084652  0  0.978112  0  0  0.096424  0  1.041709  0  0  0.098903  0  1.040914  0  0  0.098866  0.094656  0  1.042299  0
H  H39  1  0.39014770  0.92630899  0.37467724  1  0  0.084622  0  0.97801  0  0  0.096443  0  1.041565  0  0  0.098925  0  1.040767  0  0  0.09885  0.094668  0  1.042159  0
H  H40  1  0.10985122  0.92630907  0.87467813  1  0  0.08462  0  0.97797  0  0  0.096442  0  1.041523  0  0  0.098923  0  1.040726  0  0  0.098855  0.094669  0  1.042117  0
H  H41  1  0.60985766  0.07368533  0.62532832  1  0  0.084621  0  0.978088  0  0  0.096411  0  1.041674  0  0  0.098892  0  1.040877  0  0  0.09887  0.094641  0  1.042265  0
H  H42  1  0.75526942  0.94341247  0.17237343  1  0  0.103243  0  0.95726  0  0  0.11474  0  1.016209  0  0  0.117937  0  1.015629  0  0  0.106944  0.112494  0  1.016665  0
H  H43  1  0.25527457  0.05658893  0.32762620  1  0  0.103235  0  0.957266  0  0  0.114727  0  1.016217  0  0  0.117922  0  1.015639  0  0  0.106932  0.112483  0  1.016666  0
H  H44  1  0.24472732  0.05658651  0.82762623  1  0  0.103254  0  0.957237  0  0  0.114746  0  1.016187  0  0  0.117943  0  1.015607  0  0  0.106944  0.112499  0  1.016648  0
H  H45  1  0.74472833  0.94340911  0.67237257  1  0  0.103224  0  0.957338  0  0  0.114707  0  1.016303  0  0  0.117901  0  1.015725  0  0  0.106931  0.112471  0  1.016726  0
H  H46  1  0.54472155  0.77500934  0.12618174  1  0  0.08558  0  0.950357  0  0  0.093068  0  1.016104  0  0  0.096173  0  1.013269  0  0  0.12079  0.090614  0  1.018757  0
H  H47  1  0.04472859  0.22499157  0.37381804  1  0  0.085614  0  0.950345  0  0  0.093078  0  1.016125  0  0  0.096185  0  1.013288  0  0  0.120796  0.090627  0  1.018778  0
H  H48  1  0.45527520  0.22499056  0.87381752  1  0  0.085617  0  0.950328  0  0  0.093061  0  1.01613  0  0  0.096167  0  1.013295  0  0  0.12077  0.09061  0  1.01878  0
H  H49  1  0.95527676  0.77500928  0.62618277  1  0  0.085606  0  0.950334  0  0  0.093062  0  1.016113  0  0  0.096167  0  1.013278  0  0  0.120783  0.090611  0  1.018769  0
H  H50  1  0.39447667  0.19351560  0.15236961  1  0  0.085886  0  0.973954  0  0  0.097661  0  1.035124  0  0  0.100434  0  1.033808  0  0  0.098096  0.095689  0  1.03603  0
H  H51  1  0.89447979  0.80648983  0.34762377  1  0  0.085878  0  0.974013  0  0  0.09769  0  1.035136  0  0  0.100437  0  1.033848  0  0  0.098087  0.095719  0  1.036044  0
H  H52  1  0.60551638  0.80648617  0.84762886  1  0  0.085982  0  0.973826  0  0  0.097691  0  1.035067  0  0  0.100462  0  1.033755  0  0  0.098098  0.09572  0  1.035974  0
H  H53  1  0.10552926  0.19351472  0.65236766  1  0  0.085943  0  0.973943  0  0  0.097721  0  1.035116  0  0  0.100488  0  1.033804  0  0  0.09813  0.095745  0  1.03602  0
C  C54  1  0.67526190  0.40988096  0.80700236  1  0  0.340491  0  3.881929  0  0  0.338435  0  4.140866  0  0  0.351426  0  4.160546  0  0  0.065539  0.329823  0  4.129242  0
C  C55  1  0.17526932  0.59011824  0.69299684  1  0  0.340365  0  3.882529  0  0  0.338361  0  4.141334  0  0  0.351355  0  4.161023  0  0  0.065498  0.329733  0  4.129733  0
C  C56  1  0.32472992  0.59012737  0.19300109  1  0  0.340155  0  3.882238  0  0  0.338125  0  4.141103  0  0  0.351117  0  4.160795  0  0  0.065428  0.329513  0  4.129475  0
C  C57  1  0.82473235  0.40987605  0.30699703  1  0  0.340448  0  3.882084  0  0  0.338471  0  4.14088  0  0  0.351465  0  4.160561  0  0  0.065578  0.329843  0  4.129278  0
C  C58  1  0.73616164  0.29808986  0.74130806  1  0  -0.177242  0  3.769152  0  0  -0.195317  0  4.018063  0  0  -0.199284  0  4.03749  0  0  -0.113301  -0.192219  0  4.003699  0
C  C59  1  0.23615950  0.70190760  0.75868866  1  0  -0.177148  0  3.769248  0  0  -0.195234  0  4.018129  0  0  -0.199205  0  4.03756  0  0  -0.113336  -0.192138  0  4.003781  0
C  C60  1  0.26383264  0.70191846  0.25869475  1  0  -0.177183  0  3.769082  0  0  -0.195249  0  4.01799  0  0  -0.19921  0  4.037413  0  0  -0.113261  -0.192152  0  4.003633  0
C  C61  1  0.76383848  0.29808482  0.24130537  1  0  -0.177175  0  3.769179  0  0  -0.195263  0  4.018083  0  0  -0.199231  0  4.037509  0  0  -0.113316  -0.19217  0  4.003735  0
C  C62  1  0.80174160  0.29589468  0.65733403  1  0  -0.193376  0  3.769887  0  0  -0.213274  0  4.023059  0  0  -0.21813  0  4.0421  0  0  -0.116684  -0.209533  0  4.009063  0
C  C63  1  0.30173413  0.70410948  0.84266568  1  0  -0.193452  0  3.769903  0  0  -0.213335  0  4.023114  0  0  -0.218183  0  4.042154  0  0  -0.116689  -0.209599  0  4.009109  0
C  C64  1  0.19825638  0.70411739  0.34267042  1  0  -0.193453  0  3.769924  0  0  -0.213343  0  4.02312  0  0  -0.218192  0  4.042155  0  0  -0.116759  -0.20961  0  4.009125  0
C  C65  1  0.69826384  0.29588668  0.15732870  1  0  -0.193464  0  3.770004  0  0  -0.213377  0  4.023178  0  0  -0.218228  0  4.042221  0  0  -0.116724  -0.209641  0  4.009167  0
C  C66  1  0.81377080  0.40643547  0.63757694  1  0  0.343479  0  3.889948  0  0  0.340969  0  4.15322  0  0  0.354728  0  4.173144  0  0  0.066178  0.331596  0  4.142066  0
C  C67  1  0.31377126  0.59356779  0.86242511  1  0  0.343501  0  3.889659  0  0  0.340944  0  4.153026  0  0  0.354705  0  4.172944  0  0  0.066269  0.331592  0  4.141843  0
C  C68  1  0.18623086  0.59357659  0.36242687  1  0  0.343431  0  3.88971  0  0  0.340951  0  4.152948  0  0  0.354711  0  4.172868  0  0  0.06619  0.331587  0  4.141782  0
C  C69  1  0.68623163  0.40643119  0.13757326  1  0  0.343502  0  3.889687  0  0  0.340995  0  4.152952  0  0  0.354752  0  4.172874  0  0  0.066269  0.331645  0  4.141763  0
C  C70  1  0.75551802  0.51878230  0.70437452  1  0  -0.176563  0  3.75113  0  0  -0.197243  0  4.002426  0  0  -0.202529  0  4.023918  0  0  -0.110918  -0.193627  0  3.987788  0
C  C71  1  0.25551452  0.48121894  0.79562253  1  0  -0.176438  0  3.75093  0  0  -0.1971  0  4.002232  0  0  -0.202384  0  4.023726  0  0  -0.110874  -0.193484  0  3.98758  0
C  C72  1  0.24447995  0.48122790  0.29562943  1  0  -0.176443  0  3.750908  0  0  -0.197074  0  4.002171  0  0  -0.202362  0  4.02367  0  0  -0.110755  -0.193458  0  3.987522  0
C  C73  1  0.74448100  0.51877815  0.20437210  1  0  -0.176487  0  3.751166  0  0  -0.197133  0  4.002448  0  0  -0.202418  0  4.023944  0  0  -0.110819  -0.19352  0  3.987797  0
C  C74  1  0.68681364  0.52024483  0.78712871  1  0  -0.176993  0  3.770369  0  0  -0.197594  0  4.022578  0  0  -0.202466  0  4.044445  0  0  -0.108048  -0.194213  0  4.007576  0
C  C75  1  0.18681791  0.47975344  0.71286569  1  0  -0.177097  0  3.770517  0  0  -0.197712  0  4.022697  0  0  -0.202588  0  4.044568  0  0  -0.108092  -0.194329  0  4.0077  0
C  C76  1  0.31317695  0.47976162  0.21287230  1  0  -0.176866  0  3.77037  0  0  -0.197409  0  4.022556  0  0  -0.202289  0  4.044438  0  0  -0.108122  -0.194027  0  4.007547  0
C  C77  1  0.81318129  0.52024272  0.28712803  1  0  -0.177093  0  3.770554  0  0  -0.197682  0  4.022743  0  0  -0.20256  0  4.044615  0  0  -0.108132  -0.194304  0  4.007751  0
C  C78  1  0.85070491  0.61589046  0.00017948  1  0  0.148444  0  3.695595  0  0  0.122812  0  3.952407  0  0  0.133569  0  3.972062  0  0  0.053337  0.115546  0  3.942908  0
C  C79  1  0.35071589  0.38411022  0.49982047  1  0  0.148571  0  3.695464  0  0  0.122987  0  3.952274  0  0  0.133742  0  3.971938  0  0  0.053442  0.115717  0  3.942775  0
C  C80  1  0.14929060  0.38410850  0.99981694  1  0  0.14851  0  3.695367  0  0  0.12291  0  3.952181  0  0  0.133667  0  3.971839  0  0  0.053413  0.115642  0  3.942681  0
C  C81  1  0.64929439  0.61588596  0.50018234  1  0  0.148483  0  3.695582  0  0  0.122867  0  3.952391  0  0  0.133618  0  3.972053  0  0  0.053389  0.1156  0  3.94289  0
C  C82  1  0.97559237  0.70433561  0.02119037  1  0  -0.154119  0  3.658612  0  0  -0.167373  0  3.89584  0  0  -0.174842  0  3.91163  0  0  -0.076298  -0.162446  0  3.884669  0
C  C83  1  0.47559928  0.29566350  0.47881224  1  0  -0.15424  0  3.65862  0  0  -0.167517  0  3.895758  0  0  -0.175007  0  3.911558  0  0  -0.076355  -0.162588  0  3.884586  0
C  C84  1  0.02440437  0.29566057  0.97880985  1  0  -0.154154  0  3.65867  0  0  -0.167409  0  3.89583  0  0  -0.174886  0  3.911622  0  0  -0.076307  -0.16248  0  3.884655  0
C  C85  1  0.52440607  0.70432801  0.52118997  1  0  -0.153956  0  3.658482  0  0  -0.167209  0  3.895653  0  0  -0.17468  0  3.911445  0  0  -0.076235  -0.162278  0  3.884477  0
C  C86  1  0.94461408  0.82726983  0.08179283  1  0  0.118451  0  3.749051  0  0  0.129282  0  3.974136  0  0  0.136811  0  3.993717  0  0  0.018899  0.124533  0  3.960397  0
C  C87  1  0.44461694  0.17273108  0.41820965  1  0  0.11848  0  3.748831  0  0  0.129291  0  3.973911  0  0  0.136823  0  3.993488  0  0  0.018913  0.124543  0  3.960169  0
C  C88  1  0.05538389  0.17273008  0.91820839  1  0  0.118494  0  3.748978  0  0  0.129332  0  3.974028  0  0  0.136861  0  3.993607  0  0  0.018939  0.124581  0  3.960288  0
C  C89  1  0.55538350  0.82726324  0.58179136  1  0  0.118478  0  3.74876  0  0  0.129257  0  3.973973  0  0  0.136785  0  3.993563  0  0  0.018864  0.124511  0  3.960234  0
C  C90  1  0.23928607  0.89880932  0.09526922  1  0  -0.113603  0  3.722035  0  0  -0.132661  0  3.968614  0  0  -0.134174  0  3.987991  0  0  -0.088354  -0.131383  0  3.955311  0
C  C91  1  0.73928760  0.10119485  0.40473377  1  0  -0.113783  0  3.721942  0  0  -0.132838  0  3.968537  0  0  -0.134344  0  3.987917  0  0  -0.08845  -0.131563  0  3.955239  0
C  C92  1  0.76071436  0.10119247  0.90473509  1  0  -0.113575  0  3.721934  0  0  -0.132639  0  3.968497  0  0  -0.134161  0  3.98787  0  0  -0.088344  -0.131364  0  3.95519  0
C  C93  1  0.26071407  0.89880505  0.59526355  1  0  -0.113623  0  3.72199  0  0  -0.132573  0  3.968572  0  0  -0.134092  0  3.987945  0  0  -0.088372  -0.131295  0  3.955271  0
C  C94  1  0.35446926  0.99485004  0.11278869  1  0  -0.081935  0  3.797783  0  0  -0.092302  0  4.04374  0  0  -0.095399  0  4.06647  0  0  -0.097361  -0.090185  0  4.028142  0
C  C95  1  0.85446912  0.00515439  0.38721162  1  0  -0.081901  0  3.797849  0  0  -0.092244  0  4.043799  0  0  -0.095337  0  4.066515  0  0  -0.097332  -0.090129  0  4.028203  0
C  C96  1  0.64552995  0.00515269  0.88721587  1  0  -0.081957  0  3.797769  0  0  -0.092315  0  4.043714  0  0  -0.095412  0  4.066445  0  0  -0.097415  -0.090197  0  4.028118  0
C  C97  1  0.14553254  0.99484831  0.61278321  1  0  -0.08202  0  3.797812  0  0  -0.092384  0  4.043733  0  0  -0.095482  0  4.066463  0  0  -0.097407  -0.09027  0  4.028136  0
C  C98  1  0.30346571  0.11905943  0.13756428  1  0  -0.065762  0  3.75995  0  0  -0.080553  0  4.004829  0  0  -0.081769  0  4.026099  0  0  -0.090547  -0.079519  0  3.990182  0
C  C99  1  0.80346915  0.88094581  0.36243436  1  0  -0.065809  0  3.760195  0  0  -0.080636  0  4.005069  0  0  -0.08183  0  4.026348  0  0  -0.090612  -0.0796  0  3.990423  0
C  C100  1  0.69653226  0.88094236  0.86243873  1  0  -0.065919  0  3.759953  0  0  -0.080652  0  4.004839  0  0  -0.081867  0  4.026108  0  0  -0.090556  -0.079619  0  3.990196  0
C  C101  1  0.19654113  0.11905689  0.63756176  1  0  -0.065851  0  3.760061  0  0  -0.080645  0  4.004949  0  0  -0.081856  0  4.026222  0  0  -0.09059  -0.079602  0  3.990292  0
C  C102  1  0.13569053  0.14721935  0.14311072  1  0  -0.066884  0  3.769135  0  0  -0.079301  0  4.017928  0  0  -0.082176  0  4.040627  0  0  -0.09122  -0.077325  0  4.002367  0
C  C103  1  0.63569507  0.85277991  0.35688915  1  0  -0.06689  0  3.769209  0  0  -0.079302  0  4.018018  0  0  -0.082175  0  4.040711  0  0  -0.091183  -0.077327  0  4.002453  0
C  C104  1  0.86430745  0.85278058  0.85689439  1  0  -0.066853  0  3.769279  0  0  -0.079301  0  4.018095  0  0  -0.082178  0  4.040796  0  0  -0.091211  -0.077327  0  4.002538  0
C  C105  1  0.36431644  0.14721720  0.64311002  1  0  -0.066896  0  3.769077  0  0  -0.079342  0  4.017897  0  0  -0.082215  0  4.040592  0  0  -0.091247  -0.077365  0  4.002329  0
C  C106  1  0.02051842  0.05142876  0.12471192  1  0  -0.105429  0  3.737039  0  0  -0.125918  0  3.980996  0  0  -0.127973  0  4.003222  0  0  -0.087667  -0.124325  0  3.965829  0
C  C107  1  0.52051970  0.94856837  0.37529078  1  0  -0.105319  0  3.736979  0  0  -0.125858  0  3.980893  0  0  -0.127915  0  4.003121  0  0  -0.087565  -0.124257  0  3.965715  0
C  C108  1  0.97948078  0.94856837  0.87529309  1  0  -0.105286  0  3.736949  0  0  -0.125801  0  3.980892  0  0  -0.127857  0  4.00312  0  0  -0.087534  -0.124203  0  3.965719  0
C  C109  1  0.47948566  0.05142781  0.62471203  1  0  -0.105324  0  3.736845  0  0  -0.125801  0  3.980836  0  0  -0.127855  0  4.003058  0  0  -0.08761  -0.124209  0  3.965669  0
C  C110  1  0.06995667  0.92640736  0.10175906  1  0  0.030458  0  3.787851  0  0  0.048153  0  4.015593  0  0  0.045306  0  4.040265  0  0  -0.012022  0.049957  0  3.998859  0
C  C111  1  0.56995685  0.07359082  0.39824385  1  0  0.030383  0  3.787962  0  0  0.048135  0  4.015622  0  0  0.04529  0  4.04029  0  0  -0.012109  0.04994  0  3.998879  0
C  C112  1  0.93004499  0.07358976  0.89824530  1  0  0.030386  0  3.787899  0  0  0.04808  0  4.015643  0  0  0.045234  0  4.040317  0  0  -0.012112  0.049894  0  3.998889  0
C  C113  1  0.43004235  0.92640536  0.60175572  1  0  0.030396  0  3.787769  0  0  0.04804  0  4.01561  0  0  0.045192  0  4.040283  0  0  -0.012038  0.049839  0  3.998882  0
C  C114  1  0.78627608  0.85218902  0.12106392  1  0  -0.168697  0  3.718074  0  0  -0.183413  0  3.958813  0  0  -0.191419  0  3.977162  0  0  -0.083523  -0.178146  0  3.946066  0
C  C115  1  0.28628023  0.14781151  0.37893544  1  0  -0.168665  0  3.717847  0  0  -0.183364  0  3.95857  0  0  -0.191369  0  3.976915  0  0  -0.08347  -0.178094  0  3.945824  0
C  C116  1  0.21372435  0.14781183  0.87893690  1  0  -0.168718  0  3.717989  0  0  -0.183427  0  3.958697  0  0  -0.191432  0  3.977045  0  0  -0.08353  -0.178163  0  3.945955  0
C  C117  1  0.71372144  0.85218466  0.62106413  1  0  -0.168717  0  3.718057  0  0  -0.183392  0  3.958765  0  0  -0.191396  0  3.977113  0  0  -0.083473  -0.178117  0  3.946023  0
C  C118  1  0.66797342  0.75899731  0.09646807  1  0  0.136227  0  3.721218  0  0  0.110045  0  3.980136  0  0  0.120041  0  4.000544  0  0  0.046019  0.103157  0  3.970549  0
C  C119  1  0.16797918  0.24100108  0.40353153  1  0  0.136141  0  3.721096  0  0  0.109984  0  3.980045  0  0  0.119982  0  4.000449  0  0  0.045943  0.103093  0  3.970461  0
C  C120  1  0.33202702  0.24100073  0.90353070  1  0  0.136182  0  3.721247  0  0  0.11004  0  3.980168  0  0  0.120038  0  4.000569  0  0  0.046016  0.103152  0  3.970581  0
C  C121  1  0.83202618  0.75899696  0.59646919  1  0  0.13622  0  3.721235  0  0  0.110071  0  3.980133  0  0  0.120071  0  4.000536  0  0  0.046007  0.103179  0  3.970553  0
N  N122  1  0.69789097  0.64227394  0.03607244  1  0  -0.4044  0  3.323165  0  0  -0.36714  0  3.605303  0  0  -0.405384  0  3.631595  0  0  -0.384878  -0.350938  0  3.589393  0
N  N123  1  0.19790075  0.35772639  0.46392503  1  0  -0.404378  0  3.323049  0  0  -0.36721  0  3.605273  0  0  -0.405459  0  3.631561  0  0  -0.38489  -0.350998  0  3.58934  0
N  N124  1  0.30210823  0.35772597  0.96392488  1  0  -0.404451  0  3.323188  0  0  -0.367243  0  3.605358  0  0  -0.40549  0  3.631646  0  0  -0.384906  -0.351041  0  3.589448  0
N  N125  1  0.80210707  0.64227259  0.53607464  1  0  -0.404525  0  3.323257  0  0  -0.367256  0  3.605391  0  0  -0.405506  0  3.631684  0  0  -0.38489  -0.351044  0  3.58946  0
O  O126  1  0.61082146  0.41029961  0.88709337  1  0  -0.694551  0  2.170354  0  0  -0.674649  0  2.457562  0  0  -0.728622  0  2.452367  0  0  -0.435183  -0.6487  0  2.454549  0
O  O127  1  0.11083789  0.58970411  0.61290843  1  0  -0.69451  0  2.170463  0  0  -0.674669  0  2.457782  0  0  -0.728607  0  2.452493  0  0  -0.435149  -0.648713  0  2.454758  0
O  O128  1  0.38917159  0.58970685  0.11291024  1  0  -0.694472  0  2.170415  0  0  -0.674569  0  2.457604  0  0  -0.728504  0  2.452318  0  0  -0.43515  -0.648619  0  2.454593  0
O  O129  1  0.88917239  0.41029298  0.38708619  1  0  -0.694619  0  2.170376  0  0  -0.674701  0  2.457529  0  0  -0.72866  0  2.452286  0  0  -0.435176  -0.648734  0  2.45448  0
O  O130  1  0.87666810  0.40269977  0.55625589  1  0  -0.701679  0  2.14308  0  0  -0.684896  0  2.429714  0  0  -0.739666  0  2.425138  0  0  -0.433416  -0.658192  0  2.42633  0
O  O131  1  0.37666818  0.59730084  0.94374861  1  0  -0.70172  0  2.143062  0  0  -0.684935  0  2.42971  0  0  -0.739697  0  2.425117  0  0  -0.433491  -0.658244  0  2.426351  0
O  O132  1  0.12333234  0.59730950  0.44374782  1  0  -0.701685  0  2.142957  0  0  -0.684904  0  2.429573  0  0  -0.739675  0  2.424992  0  0  -0.433389  -0.658203  0  2.426192  0
O  O133  1  0.62333103  0.40269906  0.05625001  1  0  -0.701677  0  2.142882  0  0  -0.684918  0  2.42955  0  0  -0.739684  0  2.424968  0  0  -0.433486  -0.658227  0  2.426188  0
