# generated using pymatgen
data_ZnH12C12S2(NO)4
_symmetry_space_group_name_H-M   'P 1'
_cell_length_a   7.34235074
_cell_length_b   9.44410608
_cell_length_c   11.88718900
_cell_angle_alpha   78.04320390
_cell_angle_beta   77.66306343
_cell_angle_gamma   85.09989286
_symmetry_Int_Tables_number   1
_chemical_formula_structural   ZnH12C12S2(NO)4
_chemical_formula_sum   'Zn2 H24 C24 S4 N8 O8'
_cell_volume   787.04522536
_cell_formula_units_Z   2
loop_
 _symmetry_equiv_pos_site_id
 _symmetry_equiv_pos_as_xyz
  1  'x, y, z'
loop_
 _atom_site_type_symbol
 _atom_site_label
 _atom_site_symmetry_multiplicity
 _atom_site_fract_x
 _atom_site_fract_y
 _atom_site_fract_z
 _atom_site_occupancy
 _atom_site_hle17_bader_spin_density
 _atom_site_hle17_ddec_charge
 _atom_site_hle17_ddec_spin_density
 _atom_site_hle17_ddec_sum_bond_order
 _atom_site_hle17_magmom
 _atom_site_hse06_10hf_bader_spin_density
 _atom_site_hse06_10hf_ddec_charge
 _atom_site_hse06_10hf_ddec_spin_density
 _atom_site_hse06_10hf_ddec_sum_bond_order
 _atom_site_hse06_10hf_magmom
 _atom_site_hse06_bader_spin_density
 _atom_site_hse06_ddec_charge
 _atom_site_hse06_ddec_spin_density
 _atom_site_hse06_ddec_sum_bond_order
 _atom_site_hse06_magmom
 _atom_site_pbe_bader_spin_density
 _atom_site_pbe_cm5_charge
 _atom_site_pbe_ddec_charge
 _atom_site_pbe_ddec_spin_density
 _atom_site_pbe_ddec_sum_bond_order
 _atom_site_pbe_magmom
Zn  Zn0  1  0.26037958  0.79824862  0.52049444  1  0  1.168632  0  1.842057  0  0  0.994605  0  2.327067  0  0  1.037524  0  2.268318  0  0  0.731069  0.964885  0  2.367096  0
Zn  Zn1  1  0.73946676  0.20138797  0.47950773  1  0  1.168676  0  1.841602  0  0  0.994858  0  2.326498  0  0  1.037731  0  2.267785  0  0  0.731377  0.965153  0  2.366512  0
H  H2  1  0.16179531  0.00643980  0.05361265  1  0  0.111747  0  0.965327  0  0  0.118831  0  1.03024  0  0  0.122183  0  1.029196  0  0  0.104042  0.115069  0  1.033752  0
H  H3  1  0.83828392  0.99353412  0.94637379  1  0  0.111753  0  0.965539  0  0  0.118924  0  1.030367  0  0  0.12228  0  1.02932  0  0  0.104173  0.115155  0  1.033874  0
H  H4  1  0.50205337  0.98149666  0.70191988  1  0  0.113771  0  0.974099  0  0  0.121846  0  1.035987  0  0  0.12469  0  1.033579  0  0  0.127513  0.120249  0  1.037774  0
H  H5  1  0.49803649  0.01837515  0.29799372  1  0  0.113654  0  0.974275  0  0  0.121832  0  1.036049  0  0  0.124591  0  1.033748  0  0  0.127425  0.120266  0  1.037781  0
H  H6  1  0.37687056  0.99522653  0.91002065  1  0  0.106951  0  0.974397  0  0  0.114799  0  1.038538  0  0  0.117842  0  1.038033  0  0  0.102632  0.112656  0  1.039372  0
H  H7  1  0.62318564  0.00474417  0.08985975  1  0  0.107109  0  0.974519  0  0  0.114878  0  1.038734  0  0  0.117902  0  1.03828  0  0  0.102653  0.112746  0  1.039539  0
H  H8  1  0.03824343  0.01351735  0.26338629  1  0  0.113392  0  0.959558  0  0  0.121647  0  1.021601  0  0  0.124337  0  1.019412  0  0  0.127817  0.119822  0  1.022918  0
H  H9  1  0.96180672  0.98640285  0.73660033  1  0  0.113798  0  0.959378  0  0  0.12195  0  1.021545  0  0  0.12463  0  1.019367  0  0  0.127972  0.120146  0  1.022864  0
H  H10  1  0.12620751  0.57156091  0.36687490  1  0  0.139425  0  0.917722  0  0  0.150102  0  0.97105  0  0  0.153767  0  0.967529  0  0  0.138968  0.147049  0  0.974474  0
H  H11  1  0.87374961  0.42830765  0.63302165  1  0  0.139318  0  0.918265  0  0  0.150171  0  0.971363  0  0  0.15384  0  0.967835  0  0  0.138994  0.147115  0  0.974789  0
H  H12  1  0.28227414  0.53506373  0.97546481  1  0  0.1104  0  0.981703  0  0  0.11727  0  1.048945  0  0  0.120867  0  1.047424  0  0  0.098414  0.114438  0  1.050451  0
H  H13  1  0.71777273  0.46488677  0.02451108  1  0  0.110467  0  0.981876  0  0  0.117422  0  1.04899  0  0  0.121019  0  1.047469  0  0  0.098442  0.114584  0  1.050507  0
H  H14  1  0.25459600  0.54135622  0.15862854  1  0  0.105579  0  0.984482  0  0  0.112321  0  1.051238  0  0  0.115204  0  1.050982  0  0  0.101841  0.109366  0  1.052883  0
H  H15  1  0.74546800  0.45860708  0.84127576  1  0  0.105636  0  0.984687  0  0  0.112334  0  1.05145  0  0  0.115218  0  1.051183  0  0  0.101652  0.109437  0  1.053043  0
H  H16  1  0.41797339  0.54085738  0.76451604  1  0  0.101717  0  0.974013  0  0  0.105926  0  1.044346  0  0  0.109316  0  1.041613  0  0  0.115683  0.103767  0  1.046311  0
H  H17  1  0.58211111  0.45901031  0.23548475  1  0  0.101538  0  0.97394  0  0  0.105583  0  1.044424  0  0  0.108991  0  1.041623  0  0  0.115495  0.103419  0  1.046401  0
H  H18  1  0.14521360  0.07889731  0.53956469  1  0  0.420816  0  0.886322  0  0  0.388166  0  0.952412  0  0  0.399547  0  0.936038  0  0  0.285876  0.380153  0  0.963901  0
H  H19  1  0.85481363  0.92093388  0.46038875  1  0  0.420719  0  0.886344  0  0  0.387919  0  0.952709  0  0  0.399297  0  0.936341  0  0  0.285768  0.379897  0  0.964214  0
H  H20  1  0.36374684  0.43302632  0.49310529  1  0  0.418963  0  0.84722  0  0  0.391444  0  0.923825  0  0  0.400572  0  0.910378  0  0  0.296277  0.385027  0  0.932876  0
H  H21  1  0.63728502  0.56861577  0.50738079  1  0  0.419672  0  0.846828  0  0  0.391923  0  0.923618  0  0  0.401067  0  0.910128  0  0  0.296506  0.38549  0  0.933086  0
H  H22  1  0.23704439  0.45395362  0.61086598  1  0  0.391121  0  0.890422  0  0  0.361859  0  0.972869  0  0  0.369757  0  0.961385  0  0  0.282144  0.356256  0  0.981024  0
H  H23  1  0.76247499  0.54643571  0.38946979  1  0  0.391003  0  0.891418  0  0  0.362009  0  0.972838  0  0  0.36991  0  0.961353  0  0  0.282085  0.35641  0  0.98099  0
H  H24  1  0.35239305  0.09090496  0.46523291  1  0  0.421515  0  0.881811  0  0  0.389385  0  0.947819  0  0  0.400678  0  0.931564  0  0  0.287263  0.38149  0  0.959086  0
H  H25  1  0.64758003  0.90892183  0.53472362  1  0  0.421771  0  0.881565  0  0  0.38931  0  0.947974  0  0  0.400602  0  0.931723  0  0  0.287321  0.381413  0  0.959246  0
C  C26  1  0.15964378  0.90543639  0.11769693  1  0  -0.130827  0  3.723501  0  0  -0.149316  0  3.975779  0  0  -0.155215  0  3.99466  0  0  -0.075735  -0.145322  0  3.964233  0
C  C27  1  0.84041087  0.09451037  0.88225510  1  0  -0.130336  0  3.723545  0  0  -0.149094  0  3.975609  0  0  -0.154991  0  3.994505  0  0  -0.075788  -0.145088  0  3.964053  0
C  C28  1  0.45387983  0.88688889  0.76745225  1  0  0.020048  0  3.604382  0  0  -0.024304  0  3.868022  0  0  -0.017026  0  3.880506  0  0  0.04022  -0.029622  0  3.860675  0
C  C29  1  0.54624577  0.11299209  0.23246554  1  0  0.020113  0  3.605435  0  0  -0.024251  0  3.868934  0  0  -0.016904  0  3.881433  0  0  0.040335  -0.029596  0  3.86156  0
C  C30  1  0.38147579  0.89085423  0.88391559  1  0  -0.127602  0  3.720497  0  0  -0.146369  0  3.973416  0  0  -0.152109  0  3.992563  0  0  -0.077715  -0.142742  0  3.961462  0
C  C31  1  0.61860525  0.10908287  0.11600042  1  0  -0.127692  0  3.721517  0  0  -0.146479  0  3.974282  0  0  -0.152219  0  3.99341  0  0  -0.077957  -0.142844  0  3.962329  0
C  C32  1  0.08842023  0.91348097  0.23340229  1  0  0.022776  0  3.619907  0  0  -0.021305  0  3.884945  0  0  -0.013789  0  3.897804  0  0  0.044373  -0.026134  0  3.876228  0
C  C33  1  0.91159675  0.08643699  0.76653571  1  0  0.021557  0  3.620678  0  0  -0.022375  0  3.885569  0  0  -0.014846  0  3.898374  0  0  0.043926  -0.027248  0  3.876906  0
C  C34  1  0.13769357  0.66080413  0.29149495  1  0  0.029576  0  3.57528  0  0  -0.011212  0  3.83437  0  0  -0.00376  0  3.845881  0  0  0.050035  -0.016549  0  3.827543  0
C  C35  1  0.86230850  0.33909188  0.70840573  1  0  0.029756  0  3.574519  0  0  -0.011277  0  3.833749  0  0  -0.003835  0  3.845269  0  0  0.049989  -0.016612  0  3.826939  0
C  C36  1  0.33287636  0.63682743  0.92008221  1  0  -0.120334  0  3.70694  0  0  -0.139452  0  3.959779  0  0  -0.144411  0  3.977687  0  0  -0.07436  -0.135925  0  3.947935  0
C  C37  1  0.66717942  0.36311729  0.07988014  1  0  -0.120762  0  3.706942  0  0  -0.140418  0  3.960276  0  0  -0.145388  0  3.978193  0  0  -0.07471  -0.136875  0  3.948405  0
C  C38  1  0.21036754  0.64904501  0.17640726  1  0  -0.117353  0  3.70106  0  0  -0.138672  0  3.955818  0  0  -0.144046  0  3.974204  0  0  -0.073529  -0.134402  0  3.943092  0
C  C39  1  0.78965925  0.35089846  0.82350496  1  0  -0.117996  0  3.700916  0  0  -0.139293  0  3.955593  0  0  -0.144668  0  3.973988  0  0  -0.073596  -0.135081  0  3.942827  0
C  C40  1  0.40745651  0.63675124  0.80313437  1  0  0.021101  0  3.617542  0  0  -0.021319  0  3.882489  0  0  -0.014403  0  3.89466  0  0  0.03917  -0.026053  0  3.874898  0
C  C41  1  0.59265023  0.36314069  0.19684440  1  0  0.021943  0  3.617044  0  0  -0.019847  0  3.88128  0  0  -0.01291  0  3.893449  0  0  0.039711  -0.024572  0  3.873683  0
C  C42  1  0.31440503  0.76579942  0.96372842  1  0  0.082879  0  3.754864  0  0  0.087974  0  3.995191  0  0  0.092226  0  4.014013  0  0  0.004897  0.085388  0  3.981648  0
C  C43  1  0.68562848  0.23417036  0.03621294  1  0  0.082756  0  3.755522  0  0  0.087982  0  3.995497  0  0  0.092228  0  4.014328  0  0  0.005061  0.08539  0  3.981943  0
C  C44  1  0.22766747  0.77252738  0.08601474  1  0  0.086881  0  3.748855  0  0  0.09409  0  3.987247  0  0  0.099101  0  4.005575  0  0  0.009357  0.091244  0  3.973739  0
C  C45  1  0.77240238  0.22743737  0.91392394  1  0  0.086749  0  3.74948  0  0  0.094322  0  3.987241  0  0  0.099338  0  4.005575  0  0  0.009274  0.091485  0  3.973724  0
C  C46  1  0.55952471  0.75229026  0.29884947  1  0  0.300188  0  4.062113  0  0  0.28388  0  4.351296  0  0  0.30631  0  4.366258  0  0  0.150952  0.26874  0  4.340948  0
C  C47  1  0.44037413  0.24767440  0.70109390  1  0  0.30092  0  4.062988  0  0  0.284567  0  4.352088  0  0  0.306985  0  4.367067  0  0  0.151051  0.269436  0  4.34172  0
C  C48  1  0.98902016  0.72196933  0.76239914  1  0  0.316587  0  4.050799  0  0  0.300234  0  4.343241  0  0  0.323265  0  4.357739  0  0  0.149814  0.284881  0  4.332892  0
C  C49  1  0.01084227  0.27809306  0.23773622  1  0  0.316354  0  4.053503  0  0  0.299951  0  4.345961  0  0  0.322974  0  4.36048  0  0  0.150062  0.284605  0  4.3356  0
S  S50  1  0.71213157  0.71639479  0.18797877  1  0  -0.332004  0  2.080699  0  0  -0.303033  0  2.373289  0  0  -0.321452  0  2.374207  0  0  -0.138552  -0.289496  0  2.373056  0
S  S51  1  0.28783468  0.28356942  0.81194139  1  0  -0.332185  0  2.081685  0  0  -0.3032  0  2.374247  0  0  -0.321615  0  2.375156  0  0  -0.138504  -0.289653  0  2.374009  0
S  S52  1  0.85131686  0.70694592  0.88904533  1  0  -0.34892  0  2.083209  0  0  -0.326249  0  2.38336  0  0  -0.345066  0  2.384198  0  0  -0.154274  -0.312909  0  2.383686  0
S  S53  1  0.14860265  0.29293839  0.11115512  1  0  -0.349118  0  2.0844  0  0  -0.326446  0  2.384495  0  0  -0.34526  0  2.385336  0  0  -0.154571  -0.313125  0  2.384842  0
N  N54  1  0.44894377  0.77976718  0.38090467  1  0  -0.589384  0  3.041787  0  0  -0.52119  0  3.340263  0  0  -0.543412  0  3.340449  0  0  -0.414053  -0.506063  0  3.339805  0
N  N55  1  0.55092668  0.22016121  0.61904587  1  0  -0.589518  0  3.041069  0  0  -0.521467  0  3.339839  0  0  -0.543661  0  3.339961  0  0  -0.413961  -0.50635  0  3.339391  0
N  N56  1  0.46326211  0.76135700  0.72765095  1  0  0.270569  0  3.716849  0  0  0.321353  0  3.978226  0  0  0.32036  0  4.00016  0  0  -0.116599  0.321623  0  3.963157  0
N  N57  1  0.53684486  0.23851385  0.27229441  1  0  0.269772  0  3.717952  0  0  0.320549  0  3.979248  0  0  0.319554  0  4.00118  0  0  -0.117018  0.320819  0  3.964184  0
N  N58  1  0.08257069  0.79286745  0.31854634  1  0  0.265165  0  3.710703  0  0  0.313442  0  3.975292  0  0  0.311834  0  3.996943  0  0  -0.120346  0.31377  0  3.960835  0
N  N59  1  0.91740002  0.20701877  0.68138928  1  0  0.26572  0  3.711758  0  0  0.313992  0  3.976352  0  0  0.312413  0  3.998006  0  0  -0.120577  0.314295  0  3.961899  0
N  N60  1  0.09264336  0.73577807  0.66960888  1  0  -0.584833  0  2.998312  0  0  -0.516477  0  3.296423  0  0  -0.539198  0  3.296171  0  0  -0.415035  -0.50074  0  3.296538  0
N  N61  1  0.90716188  0.26447700  0.33049676  1  0  -0.584425  0  2.999233  0  0  -0.516036  0  3.297254  0  0  -0.53875  0  3.297019  0  0  -0.415099  -0.500311  0  3.297369  0
O  O62  1  0.26204228  0.01943403  0.51634591  1  0  -0.858418  0  1.918044  0  0  -0.794362  0  2.136734  0  0  -0.816691  0  2.099363  0  0  -0.587569  -0.778578  0  2.162403  0
O  O63  1  0.73793840  0.98038912  0.48359266  1  0  -0.858412  0  1.91826  0  0  -0.794022  0  2.137815  0  0  -0.816354  0  2.100442  0  0  -0.587429  -0.778226  0  2.163487  0
O  O64  1  0.02854160  0.80400928  0.43078375  1  0  -0.558278  0  1.869599  0  0  -0.500783  0  2.112356  0  0  -0.523835  0  2.105838  0  0  -0.229441  -0.484235  0  2.116343  0
O  O65  1  0.97133507  0.19583235  0.56917766  1  0  -0.558377  0  1.86971  0  0  -0.501041  0  2.112532  0  0  -0.524115  0  2.106022  0  0  -0.229131  -0.484453  0  2.116467  0
O  O66  1  0.51942032  0.76113572  0.61371784  1  0  -0.562139  0  1.804095  0  0  -0.506851  0  2.03328  0  0  -0.531168  0  2.029466  0  0  -0.227037  -0.489777  0  2.035359  0
O  O67  1  0.48072208  0.23870847  0.38622868  1  0  -0.561256  0  1.803585  0  0  -0.506689  0  2.033328  0  0  -0.53094  0  2.029426  0  0  -0.227064  -0.489639  0  2.035418  0
O  O68  1  0.27294524  0.50129210  0.52858454  1  0  -0.809629  0  1.810517  0  0  -0.767646  0  2.00415  0  0  -0.783196  0  1.975133  0  0  -0.583587  -0.756713  0  2.024185  0
O  O69  1  0.72626966  0.49936051  0.47179389  1  0  -0.810752  0  1.809876  0  0  -0.769181  0  2.001788  0  0  -0.784717  0  1.972856  0  0  -0.584392  -0.758201  0  2.02212  0
