# generated using pymatgen
data_Zn4H16C30O13
_symmetry_space_group_name_H-M   'P 1'
_cell_length_a   17.37273172
_cell_length_b   18.13388439
_cell_length_c   18.59008440
_cell_angle_alpha   90.30167340
_cell_angle_beta   90.01245496
_cell_angle_gamma   90.01045024
_symmetry_Int_Tables_number   1
_chemical_formula_structural   Zn4H16C30O13
_chemical_formula_sum   'Zn16 H64 C120 O52'
_cell_volume   5856.44784274
_cell_formula_units_Z   4
loop_
 _symmetry_equiv_pos_site_id
 _symmetry_equiv_pos_as_xyz
  1  'x, y, z'
loop_
 _atom_site_type_symbol
 _atom_site_label
 _atom_site_symmetry_multiplicity
 _atom_site_fract_x
 _atom_site_fract_y
 _atom_site_fract_z
 _atom_site_occupancy
 _atom_site_pbe_bader_charge
 _atom_site_pbe_bader_spin_density
 _atom_site_pbe_cm5_charge
 _atom_site_pbe_ddec_charge
 _atom_site_pbe_ddec_spin_density
 _atom_site_pbe_ddec_sum_bond_order
 _atom_site_pbe_magmom
Zn  Zn0  1  0.17234416  0.94091705  0.31891387  1  1.317717  0  0.672258  0.965201  0  2.377281  0
Zn  Zn1  1  0.30064171  0.61615611  0.81705315  1  1.314622  0  0.669946  0.963547  0  2.379367  0
Zn  Zn2  1  0.17254411  0.11608436  0.31729759  1  1.31568  0  0.67054  0.964551  0  2.377324  0
Zn  Zn3  1  0.30098734  0.44098611  0.81905520  1  1.315225  0  0.671716  0.964357  0  2.378218  0
Zn  Zn4  1  0.30607258  0.02675579  0.40249161  1  1.311879  0  0.669398  0.955075  0  2.390746  0
Zn  Zn5  1  0.30592767  0.02969779  0.23289255  1  1.315016  0  0.67066  0.962295  0  2.387142  0
Zn  Zn6  1  0.16718400  0.52690237  0.90248159  1  1.310034  0  0.670248  0.955767  0  2.388915  0
Zn  Zn7  1  0.16732398  0.52944400  0.73287346  1  1.31488  0  0.670394  0.961703  0  2.387467  0
Zn  Zn8  1  0.82755209  0.88450831  0.68286550  1  1.318386  0  0.670682  0.964074  0  2.377201  0
Zn  Zn9  1  0.69908985  0.55966806  0.18101499  1  1.315014  0  0.671757  0.964006  0  2.378534  0
Zn  Zn10  1  0.82780153  0.05969786  0.68111481  1  1.317025  0  0.672233  0.964889  0  2.376296  0
Zn  Zn11  1  0.69944872  0.38444675  0.18300508  1  1.315067  0  0.669912  0.963322  0  2.37911  0
Zn  Zn12  1  0.69405410  0.97378465  0.59752773  1  1.311188  0  0.66929  0.954839  0  2.389385  0
Zn  Zn13  1  0.69418120  0.97114920  0.76710498  1  1.313826  0  0.670564  0.961624  0  2.388515  0
Zn  Zn14  1  0.83271649  0.47395981  0.09743097  1  1.310421  0  0.670072  0.955116  0  2.390446  0
Zn  Zn15  1  0.83280616  0.47114696  0.26706639  1  1.313722  0  0.670641  0.962161  0  2.387335  0
H  H16  1  0.68694269  0.97109769  0.41907651  1  0.108114  0  0.100997  0.10578  0  1.032302  0
H  H17  1  0.13073648  0.78338451  0.47807242  1  0.109306  0  0.109942  0.11543  0  0.989395  0
H  H18  1  0.34648253  0.86604622  0.55816136  1  0.114583  0  0.106522  0.111807  0  1.011318  0
H  H19  1  0.34439377  0.77204356  0.65615525  1  0.076861  0  0.107438  0.111969  0  0.996926  0
H  H20  1  0.12912649  0.68840646  0.57569377  1  0.091602  0  0.109006  0.113914  0  0.992304  0
H  H21  1  0.93423247  0.14051301  0.28120236  1  0.089766  0  0.107042  0.111853  0  0.992771  0
H  H22  1  0.79112725  0.13902867  0.27815492  1  0.081  0  0.100738  0.101074  0  1.017049  0
H  H23  1  0.79220851  0.91603212  0.35764035  1  0.072226  0  0.09984  0.100189  0  1.02233  0
H  H24  1  0.92995396  0.46610302  0.91642574  1  0.099954  0  0.109064  0.115913  0  0.987411  0
H  H25  1  0.32467418  0.78832125  0.96322806  1  0.127446  0  0.108397  0.113573  0  0.993497  0
H  H26  1  0.14451403  0.67331169  0.07466572  1  0.085193  0  0.107284  0.111488  0  1.008956  0
H  H27  1  0.14679146  0.76920455  0.17214072  1  0.121482  0  0.111187  0.118148  0  0.987834  0
H  H28  1  0.32679746  0.88444126  0.06089351  1  0.087601  0  0.109943  0.115835  0  0.991575  0
H  H29  1  0.53793567  0.41383795  0.84609297  1  0.105696  0  0.108398  0.113831  0  0.990423  0
H  H30  1  0.92937527  0.58973105  0.71943998  1  0.096563  0  0.107751  0.111871  0  0.989558  0
H  H31  1  0.78612018  0.59228528  0.72119257  1  0.05346  0  0.105112  0.106117  0  0.995243  0
H  H32  1  0.54398466  0.97430287  0.42069901  1  0.09721  0  0.108964  0.116039  0  0.987584  0
H  H33  1  0.14715139  0.28628956  0.46484921  1  0.106406  0  0.108961  0.114728  0  0.99317  0
H  H34  1  0.32776064  0.17192275  0.57632097  1  0.106534  0  0.106795  0.1099  0  1.009562  0
H  H35  1  0.32528062  0.26799299  0.67367222  1  0.107404  0  0.111338  0.118548  0  0.988028  0
H  H36  1  0.14506398  0.38272164  0.56222240  1  0.112814  0  0.110542  0.116675  0  0.991746  0
H  H37  1  0.93532245  0.91685071  0.35695881  1  0.10005  0  0.10779  0.113342  0  0.991063  0
H  H38  1  0.54347868  0.08184893  0.21494742  1  0.078617  0  0.107361  0.111561  0  0.991777  0
H  H39  1  0.68677123  0.08339083  0.21520320  1  0.077488  0  0.104593  0.105624  0  0.996699  0
H  H40  1  0.78731907  0.46292422  0.91525942  1  0.0873  0  0.099835  0.101695  0  1.029505  0
H  H41  1  0.34141428  0.28208327  0.97700235  1  0.088254  0  0.109719  0.11514  0  0.990376  0
H  H42  1  0.12948994  0.36943327  0.06111407  1  0.094843  0  0.106646  0.112702  0  1.010483  0
H  H43  1  0.13173502  0.27565542  0.15931178  1  0.09601  0  0.106603  0.11129  0  0.999772  0
H  H44  1  0.34319768  0.18747143  0.07494235  1  0.104809  0  0.108797  0.114009  0  0.993461  0
H  H45  1  0.53928992  0.64463825  0.79438248  1  0.097163  0  0.107059  0.111494  0  0.993216  0
H  H46  1  0.68264825  0.64382789  0.79289420  1  0.084302  0  0.10036  0.101082  0  1.013703  0
H  H47  1  0.68123149  0.41288952  0.84677700  1  0.063514  0  0.102427  0.104072  0  1.004561  0
H  H48  1  0.31268609  0.02886282  0.58144479  1  0.08597  0  0.100939  0.105601  0  1.031598  0
H  H49  1  0.85183501  0.71298869  0.53626360  1  0.096843  0  0.109074  0.115085  0  0.992929  0
H  H50  1  0.67391044  0.82948049  0.42315636  1  0.09812  0  0.106889  0.110298  0  1.010748  0
H  H51  1  0.67629030  0.73352634  0.32570535  1  0.108407  0  0.111379  0.118433  0  0.987671  0
H  H52  1  0.85377852  0.61663033  0.43882926  1  0.110128  0  0.110348  0.116031  0  0.991397  0
H  H53  1  0.06487192  0.08408334  0.64566671  1  0.089012  0  0.107994  0.113174  0  0.99134  0
H  H54  1  0.07008188  0.53551771  0.08359367  1  0.094827  0  0.109176  0.115929  0  0.987345  0
H  H55  1  0.65744245  0.71778177  0.02228893  1  0.086349  0  0.109979  0.115141  0  0.989833  0
H  H56  1  0.87070023  0.63204652  0.93959623  1  0.10879  0  0.106968  0.113556  0  1.009564  0
H  H57  1  0.86844537  0.72586796  0.84141262  1  0.099951  0  0.106831  0.111759  0  0.999209  0
H  H58  1  0.65565792  0.81249796  0.92439761  1  0.087869  0  0.108784  0.113918  0  0.992764  0
H  H59  1  0.46065381  0.35719327  0.21038787  1  0.073854  0  0.107217  0.112585  0  0.992109  0
H  H60  1  0.07059471  0.41045244  0.27971021  1  0.098925  0  0.107672  0.111868  0  0.989656  0
H  H61  1  0.21374046  0.40803638  0.27807362  1  0.046464  0  0.104806  0.105194  0  0.99672  0
H  H62  1  0.45565152  0.02557602  0.57920239  1  0.096605  0  0.108881  0.116192  0  0.987573  0
H  H63  1  0.87069599  0.21574906  0.52063897  1  0.111027  0  0.110259  0.115272  0  0.9905  0
H  H64  1  0.65337315  0.13510764  0.44235119  1  0.110767  0  0.106421  0.111964  0  1.009585  0
H  H65  1  0.65536408  0.22924958  0.34447384  1  0.07987  0  0.107683  0.112557  0  0.995851  0
H  H66  1  0.87225189  0.31083329  0.42313086  1  0.082401  0  0.109042  0.113485  0  0.992497  0
H  H67  1  0.06583890  0.85949412  0.71880000  1  0.091455  0  0.107085  0.112136  0  0.992378  0
H  H68  1  0.20897459  0.86080209  0.72167755  1  0.077608  0  0.10045  0.100994  0  1.017519  0
H  H69  1  0.20802610  0.08471646  0.64471251  1  0.096209  0  0.099789  0.10136  0  1.019473  0
H  H70  1  0.45709700  0.91866340  0.78526931  1  0.087454  0  0.107504  0.112125  0  0.991763  0
H  H71  1  0.31377341  0.91699552  0.78553230  1  0.026205  0  0.104778  0.106256  0  0.995627  0
H  H72  1  0.21261486  0.53851095  0.08466160  1  0.088824  0  0.099804  0.100912  0  1.029937  0
H  H73  1  0.67656117  0.21178530  0.03740942  1  0.080482  0  0.108279  0.113946  0  0.993084  0
H  H74  1  0.85256418  0.32974827  0.92317528  1  0.085009  0  0.107103  0.110719  0  1.011252  0
H  H75  1  0.85007665  0.23395554  0.82562251  1  0.106697  0  0.11144  0.118097  0  0.987194  0
H  H76  1  0.67434234  0.11567798  0.93974723  1  0.104526  0  0.109888  0.115958  0  0.991578  0
H  H77  1  0.46225481  0.58547867  0.14917122  1  0.111686  0  0.108534  0.113754  0  0.991529  0
H  H78  1  0.31907524  0.58650805  0.14823781  1  0.069903  0  0.102506  0.104125  0  1.005168  0
H  H79  1  0.31740192  0.35804853  0.21134588  1  0.054357  0  0.101236  0.101483  0  1.012396  0
C  C80  1  0.23515861  0.66857973  0.67983859  1  1.552875  0  0.227919  0.604486  0  4.170593  0
C  C81  1  0.65565505  0.99489376  0.37398709  1  -0.062722  0  -0.087359  -0.131897  0  3.970148  0
C  C82  1  0.23654154  0.72486625  0.62155408  1  -0.001219  0  -0.013602  -0.034313  0  3.973526  0
C  C83  1  0.23866925  0.83015581  0.51261769  1  -0.034923  0  -0.010977  -0.028473  0  3.960257  0
C  C84  1  0.23926144  0.88718416  0.45501817  1  1.556523  0  0.230288  0.605888  0  4.163694  0
C  C85  1  0.17726018  0.78017891  0.51722812  1  -0.058672  0  -0.077298  -0.088274  0  3.965185  0
C  C86  1  0.29919774  0.82699058  0.56239459  1  0.007505  0  -0.077996  -0.08525  0  3.961622  0
C  C87  1  0.29801851  0.77472476  0.61680404  1  -0.069939  0  -0.08007  -0.09428  0  3.972343  0
C  C88  1  0.17629329  0.72765928  0.57137227  1  -0.002772  0  -0.079046  -0.089803  0  3.969287  0
C  C89  1  0.90259672  0.09131511  0.29702544  1  -0.044091  0  -0.081597  -0.083599  0  3.980336  0
C  C90  1  0.82263084  0.09013063  0.29514605  1  -0.044094  0  -0.088779  -0.131536  0  3.979581  0
C  C91  1  0.82320523  0.96537794  0.34086331  1  0.016083  0  -0.08859  -0.12938  0  3.971469  0
C  C92  1  0.23840719  0.88947255  0.18036960  1  1.524382  0  0.230005  0.60627  0  4.164142  0
C  C93  1  0.89805598  0.49208801  0.87285775  1  -0.027249  0  -0.080004  -0.085452  0  3.971029  0
C  C94  1  0.23703940  0.83222249  0.12213105  1  -0.007208  0  -0.011795  -0.029189  0  3.959893  0
C  C95  1  0.23460418  0.72520942  0.01338328  1  -0.012091  0  -0.01464  -0.035318  0  3.970981  0
C  C96  1  0.23366115  0.66788429  0.95530597  1  1.527793  0  0.228254  0.602838  0  4.16839  0
C  C97  1  0.28602212  0.78473400  0.00922454  1  -0.073619  0  -0.08052  -0.091464  0  3.970615  0
C  C98  1  0.18431614  0.71958764  0.07214257  1  0.000791  0  -0.080609  -0.092705  0  3.970002  0
C  C99  1  0.18552764  0.77281079  0.12623251  1  -0.056996  0  -0.077784  -0.088443  0  3.960295  0
C  C100  1  0.28723650  0.83794557  0.06331284  1  -0.006347  0  -0.078722  -0.090316  0  3.966812  0
C  C101  1  0.57016323  0.46405184  0.83502726  1  -0.024076  0  -0.080515  -0.082002  0  3.979706  0
C  C102  1  0.89759688  0.56286183  0.76253069  1  0.001539  0  -0.08157  -0.086628  0  3.982393  0
C  C103  1  0.81759932  0.56391046  0.76361291  1  -0.078628  0  -0.086815  -0.130346  0  3.981149  0
C  C104  1  0.23397630  0.38848214  0.68131390  1  1.558321  0  0.229579  0.604892  0  4.164644  0
C  C105  1  0.57566969  0.99689468  0.37524604  1  -0.04907  0  -0.081015  -0.085412  0  3.969697  0
C  C106  1  0.23494494  0.33076917  0.62352627  1  -0.048193  0  -0.011727  -0.027445  0  3.958844  0
C  C107  1  0.23733108  0.22344464  0.51507350  1  -0.056213  0  -0.014582  -0.035078  0  3.968565  0
C  C108  1  0.23875158  0.16632818  0.45680062  1  1.556747  0  0.229272  0.605217  0  4.163887  0
C  C109  1  0.18578188  0.28282659  0.51085550  1  -0.017164  0  -0.080417  -0.092167  0  3.971259  0
C  C110  1  0.28767202  0.21801592  0.57384892  1  -0.029617  0  -0.0801  -0.092176  0  3.972569  0
C  C111  1  0.28644177  0.27137861  0.62782063  1  -0.003485  0  -0.077895  -0.090307  0  3.960827  0
C  C112  1  0.18459998  0.33621285  0.56477402  1  -0.019802  0  -0.078597  -0.090544  0  3.968153  0
C  C113  1  0.90320012  0.96554134  0.34057602  1  -0.058627  0  -0.081469  -0.083616  0  3.978272  0
C  C114  1  0.57551521  0.05853207  0.25980254  1  -0.041911  0  -0.082737  -0.086677  0  3.985752  0
C  C115  1  0.65553266  0.05909696  0.26013543  1  -0.036655  0  -0.087517  -0.132577  0  3.982045  0
C  C116  1  0.23885280  0.16964387  0.18086969  1  1.548758  0  0.227658  0.603555  0  4.17075  0
C  C117  1  0.81805563  0.49045889  0.87194224  1  -0.087045  0  -0.087224  -0.130015  0  3.976186  0
C  C118  1  0.23770135  0.22620206  0.12279863  1  -0.063565  0  -0.014503  -0.035669  0  3.972345  0
C  C119  1  0.23535703  0.33114332  0.01347682  1  -0.039199  0  -0.011899  -0.031254  0  3.960079  0
C  C120  1  0.23461308  0.38782102  0.95553468  1  1.554049  0  0.228991  0.604009  0  4.165017  0
C  C121  1  0.29577083  0.27997781  0.01710736  1  -0.006791  0  -0.078361  -0.088786  0  3.968961  0
C  C122  1  0.17599735  0.32944235  0.06454704  1  -0.010208  0  -0.077537  -0.083251  0  3.956404  0
C  C123  1  0.17729617  0.27734262  0.11911638  1  -0.051106  0  -0.08031  -0.093163  0  3.967366  0
C  C124  1  0.29685087  0.22766783  0.07142655  1  0.017727  0  -0.080495  -0.092002  0  3.973919  0
C  C125  1  0.57094171  0.59399997  0.80509320  1  -0.095522  0  -0.0812  -0.082245  0  3.979899  0
C  C126  1  0.65095827  0.59319322  0.80393521  1  0.036483  0  -0.088814  -0.132831  0  3.977628  0
C  C127  1  0.65016795  0.46384229  0.83549372  1  -0.083854  0  -0.089246  -0.132847  0  3.97661  0
C  C128  1  0.53495203  0.02815144  0.31778434  1  0.016085  0  -0.021721  -0.046745  0  3.992522  0
C  C129  1  0.02928336  0.02900214  0.31902494  1  1.491338  0  0.226276  0.605399  0  4.170025  0
C  C130  1  0.44929030  0.02884783  0.31808079  1  1.493151  0  0.225755  0.603999  0  4.17321  0
C  C131  1  0.69683078  0.02681278  0.31691735  1  0.062065  0  0.000738  0.076964  0  3.995205  0
C  C132  1  0.94357710  0.02872236  0.31907273  1  0.029654  0  -0.020877  -0.04654  0  3.986342  0
C  C133  1  0.78167075  0.02737372  0.31746751  1  -0.115975  0  -0.000265  0.077059  0  3.992156  0
C  C134  1  0.93843637  0.52777093  0.81776152  1  0.021282  0  -0.02045  -0.046427  0  3.987922  0
C  C135  1  0.44409360  0.52934581  0.81929023  1  1.549482  0  0.226751  0.60632  0  4.169219  0
C  C136  1  0.02409552  0.52865023  0.81794980  1  1.550663  0  0.226131  0.60475  0  4.175613  0
C  C137  1  0.77665638  0.52726225  0.81802506  1  -0.039058  0  -0.000253  0.07455  0  3.996644  0
C  C138  1  0.52984414  0.52921501  0.81993823  1  -0.004032  0  -0.021914  -0.048613  0  3.98616  0
C  C139  1  0.69180580  0.52813517  0.81913377  1  -0.046234  0  0.001118  0.080165  0  3.992079  0
C  C140  1  0.76625458  0.61201616  0.31881938  1  1.560714  0  0.229115  0.60425  0  4.166055  0
C  C141  1  0.34419937  0.00514648  0.62643815  1  -0.049016  0  -0.087508  -0.131655  0  3.971378  0
C  C142  1  0.76525485  0.66963728  0.37670091  1  -0.064152  0  -0.012327  -0.029744  0  3.960575  0
C  C143  1  0.76299075  0.77690686  0.48522079  1  -0.007867  0  -0.013611  -0.031687  0  3.965987  0
C  C144  1  0.76175445  0.83411189  0.54340892  1  1.552545  0  0.228531  0.602886  0  4.166406  0
C  C145  1  0.81373178  0.71691729  0.48990568  1  -0.071054  0  -0.080434  -0.093799  0  3.972587  0
C  C146  1  0.71335897  0.78291785  0.42598755  1  -0.021436  0  -0.08081  -0.095307  0  3.973398  0
C  C147  1  0.71452533  0.72960189  0.37196485  1  0.004671  0  -0.077371  -0.087918  0  3.958257  0
C  C148  1  0.81483943  0.66356731  0.43594529  1  0.002974  0  -0.078114  -0.088268  0  3.968263  0
C  C149  1  0.09697170  0.03513720  0.66136944  1  -0.047548  0  -0.081129  -0.082058  0  3.977889  0
C  C150  1  0.76085545  0.83112836  0.81923035  1  1.534455  0  0.226658  0.601795  0  4.171191  0
C  C151  1  0.10196541  0.50913674  0.12694333  1  -0.027946  0  -0.081065  -0.087157  0  3.972788  0
C  C152  1  0.76184053  0.77450822  0.87723722  1  -0.06348  0  -0.014026  -0.03476  0  3.973211  0
C  C153  1  0.76415203  0.66957287  0.98650095  1  -0.040153  0  -0.011785  -0.030764  0  3.960607  0
C  C154  1  0.76504279  0.61300130  0.04453321  1  1.561671  0  0.228848  0.60356  0  4.166871  0
C  C155  1  0.70334384  0.72026632  0.98247163  1  -0.018255  0  -0.078306  -0.088036  0  3.967623  0
C  C156  1  0.82388364  0.67169128  0.93582614  1  -0.02535  0  -0.078036  -0.085186  0  3.959734  0
C  C157  1  0.82259288  0.72379438  0.88127455  1  -0.020787  0  -0.080223  -0.092833  0  3.969312  0
C  C158  1  0.70228223  0.77260504  0.92817242  1  0.01025  0  -0.08038  -0.092792  0  3.973784  0
C  C159  1  0.42909267  0.40731941  0.19748649  1  -0.056477  0  -0.08102  -0.082536  0  3.981547  0
C  C160  1  0.10236452  0.43762544  0.23679511  1  0.001568  0  -0.082068  -0.088018  0  3.983483  0
C  C161  1  0.18235172  0.43663371  0.23575015  1  -0.07171  0  -0.085823  -0.128443  0  3.98031  0
C  C162  1  0.76530477  0.33181518  0.31998245  1  1.548251  0  0.228087  0.604149  0  4.169596  0
C  C163  1  0.42418411  0.00311930  0.62484884  1  -0.042277  0  -0.080608  -0.085638  0  3.97006  0
C  C164  1  0.76402946  0.27541482  0.37817578  1  0.004017  0  -0.013932  -0.034228  0  3.972202  0
C  C165  1  0.76197598  0.16997438  0.48698644  1  -0.058513  0  -0.011373  -0.027894  0  3.957995  0
C  C166  1  0.76128480  0.11302398  0.54466308  1  1.56385  0  0.229853  0.604518  0  4.1652  0
C  C167  1  0.82382643  0.21940788  0.48187440  1  -0.038852  0  -0.077723  -0.088846  0  3.966426  0
C  C168  1  0.70100610  0.17373376  0.43772044  1  -0.037523  0  -0.077439  -0.084915  0  3.96038  0
C  C169  1  0.70213930  0.22607146  0.38338326  1  -0.004045  0  -0.080158  -0.095308  0  3.972224  0
C  C170  1  0.82475534  0.27199940  0.42780412  1  -0.014061  0  -0.078786  -0.088678  0  3.969691  0
C  C171  1  0.09749775  0.90883346  0.70348616  1  -0.038668  0  -0.081189  -0.083144  0  3.979551  0
C  C172  1  0.17747224  0.90991507  0.70525179  1  -0.041529  0  -0.088479  -0.131712  0  3.978619  0
C  C173  1  0.17696598  0.03521416  0.66092486  1  -0.07297  0  -0.088538  -0.131199  0  3.971967  0
C  C174  1  0.42484345  0.94179288  0.74046103  1  -0.047383  0  -0.082531  -0.087696  0  3.985318  0
C  C175  1  0.34482546  0.94117421  0.74042977  1  0.017287  0  -0.087653  -0.132441  0  3.981533  0
C  C176  1  0.76085724  0.11190224  0.81906654  1  1.540008  0  0.229793  0.605312  0  4.165553  0
C  C177  1  0.18195538  0.51068033  0.12784140  1  -0.056217  0  -0.086736  -0.128474  0  3.975808  0
C  C178  1  0.76197578  0.16938661  0.87708618  1  -0.000112  0  -0.012167  -0.030718  0  3.962151  0
C  C179  1  0.76457562  0.27633422  0.98588491  1  -0.042986  0  -0.014123  -0.035413  0  3.972446  0
C  C180  1  0.76583525  0.33344096  0.04415319  1  1.523882  0  0.228538  0.602885  0  4.166114  0
C  C181  1  0.71423468  0.21604299  0.99078197  1  -0.023981  0  -0.080365  -0.091466  0  3.972949  0
C  C182  1  0.81360651  0.28284809  0.92628970  1  0.003316  0  -0.08048  -0.0923  0  3.968345  0
C  C183  1  0.81228794  0.22966451  0.87215359  1  -0.031651  0  -0.077939  -0.087356  0  3.958155  0
C  C184  1  0.71295525  0.16285345  0.93668296  1  -0.016649  0  -0.078812  -0.090447  0  3.968913  0
C  C185  1  0.43000683  0.53582898  0.16230507  1  0.045952  0  -0.080958  -0.081436  0  3.982164  0
C  C186  1  0.35001072  0.53605402  0.16165092  1  -0.062944  0  -0.088642  -0.132631  0  3.976638  0
C  C187  1  0.34907263  0.40819431  0.19835740  1  0.084507  0  -0.088334  -0.132277  0  3.977543  0
C  C188  1  0.46514699  0.97204161  0.68224702  1  -0.000613  0  -0.021914  -0.046356  0  3.991372  0
C  C189  1  0.97084919  0.97146999  0.68204479  1  1.495413  0  0.225975  0.605744  0  4.16862  0
C  C190  1  0.55081677  0.97148038  0.68176587  1  1.489137  0  0.224764  0.602846  0  4.173233  0
C  C191  1  0.30329997  0.97334996  0.68373523  1  0.073749  0  0.001004  0.076251  0  3.995589  0
C  C192  1  0.05656526  0.97171935  0.68216476  1  0.030822  0  -0.021876  -0.048476  0  3.986969  0
C  C193  1  0.21844853  0.97286814  0.68348275  1  -0.058326  0  -0.000223  0.078054  0  3.990855  0
C  C194  1  0.06153660  0.47306323  0.18177766  1  0.023987  0  -0.01975  -0.045033  0  3.987668  0
C  C195  1  0.55601240  0.47125151  0.18096432  1  1.561246  0  0.22677  0.605988  0  4.170297  0
C  C196  1  0.97589184  0.47219218  0.18158294  1  1.549603  0  0.225914  0.605036  0  4.174489  0
C  C197  1  0.22337702  0.47352069  0.18153550  1  -0.068879  0  -0.00018  0.074464  0  3.994895  0
C  C198  1  0.47025723  0.47137801  0.18015440  1  -0.103046  0  -0.021691  -0.049844  0  3.989144  0
C  C199  1  0.30822587  0.47255312  0.18049863  1  -0.082418  0  -5.5e-05  0.079448  0  3.990605  0
O  O200  1  0.28857026  0.93902260  0.46156889  1  -1.178544  0  -0.313023  -0.546572  0  2.362593  0
O  O201  1  0.18656059  0.61624304  0.67295637  1  -1.172262  0  -0.314879  -0.546058  0  2.34491  0
O  O202  1  0.19050485  0.87969274  0.40413011  1  -1.163277  0  -0.313882  -0.545736  0  2.336283  0
O  O203  1  0.28253685  0.67745133  0.73175157  1  -1.175744  0  -0.316092  -0.548648  0  2.335253  0
O  O204  1  0.06282199  0.96644039  0.32320117  1  -1.169393  0  -0.317003  -0.549548  0  2.339053  0
O  O205  1  0.18683876  0.61411884  0.96330459  1  -1.167664  0  -0.313473  -0.548395  0  2.351757  0
O  O206  1  0.28726090  0.94159085  0.17354984  1  -1.164573  0  -0.314709  -0.547038  0  2.339779  0
O  O207  1  0.27973734  0.67722429  0.90272470  1  -1.173444  0  -0.313737  -0.545285  0  2.342208  0
O  O208  1  0.19071064  0.88135775  0.23193341  1  -1.167622  0  -0.313361  -0.545895  0  2.338365  0
O  O209  1  0.41062091  0.59210690  0.81645983  1  -1.162485  0  -0.31864  -0.552165  0  2.335696  0
O  O210  1  0.28619245  0.11304658  0.46447335  1  -1.188769  0  -0.313994  -0.549156  0  2.348983  0
O  O211  1  0.18530359  0.44071086  0.67423920  1  -1.182423  0  -0.314001  -0.545822  0  2.338829  0
O  O212  1  0.19256996  0.17555156  0.40425645  1  -1.17778  0  -0.314402  -0.54695  0  2.340964  0
O  O213  1  0.28189685  0.38064999  0.73274563  1  -1.178676  0  -0.31314  -0.545332  0  2.339145  0
O  O214  1  0.06266526  0.09170910  0.31460358  1  -1.172211  0  -0.318761  -0.552236  0  2.335624  0
O  O215  1  0.18508476  0.43946446  0.96169883  1  -1.169328  0  -0.311238  -0.543014  0  2.366672  0
O  O216  1  0.28717960  0.11711961  0.17366873  1  -1.174968  0  -0.315547  -0.546701  0  2.344914  0
O  O217  1  0.28353026  0.38030818  0.90477163  1  -1.171437  0  -0.314213  -0.546278  0  2.336939  0
O  O218  1  0.19154586  0.17834463  0.23283605  1  -1.166803  0  -0.315823  -0.547539  0  2.333477  0
O  O219  1  0.41057962  0.46663989  0.82144155  1  -1.172709  0  -0.317554  -0.550467  0  2.340985  0
O  O220  1  0.23897041  0.02851778  0.31786378  1  -1.235598  0  -0.572643  -1.028005  0  2.538921  0
O  O221  1  0.41606490  0.02317597  0.37918165  1  -1.171443  0  -0.318035  -0.549347  0  2.334346  0
O  O222  1  0.41571397  0.03505881  0.25723216  1  -1.168874  0  -0.317561  -0.55018  0  2.335708  0
O  O223  1  0.23435489  0.52853768  0.81783807  1  -1.236421  0  -0.572587  -1.028302  0  2.539607  0
O  O224  1  0.05729711  0.52211765  0.87897346  1  -1.170482  0  -0.317099  -0.546951  0  2.333372  0
O  O225  1  0.05758015  0.53598188  0.75721417  1  -1.171507  0  -0.317659  -0.550342  0  2.335014  0
O  O226  1  0.71460196  0.88760479  0.53555710  1  -1.185564  0  -0.314113  -0.549124  0  2.350829  0
O  O227  1  0.81481907  0.55969436  0.32594116  1  -1.181836  0  -0.314176  -0.545867  0  2.338851  0
O  O228  1  0.80780828  0.82479111  0.59603244  1  -1.179708  0  -0.313657  -0.545296  0  2.340976  0
O  O229  1  0.71849462  0.61999803  0.26728423  1  -1.175682  0  -0.312643  -0.544441  0  2.339933  0
O  O230  1  0.93744365  0.90874313  0.68603844  1  -1.171213  0  -0.318032  -0.5514  0  2.334691  0
O  O231  1  0.81480196  0.56156168  0.03848419  1  -1.158932  0  -0.311373  -0.543117  0  2.367282  0
O  O232  1  0.71265298  0.88376018  0.82643644  1  -1.164744  0  -0.31515  -0.546031  0  2.343162  0
O  O233  1  0.71605939  0.62042248  0.09525137  1  -1.17622  0  -0.313977  -0.545544  0  2.33773  0
O  O234  1  0.80819980  0.82235663  0.76732460  1  -1.171209  0  -0.315827  -0.546978  0  2.335835  0
O  O235  1  0.58951709  0.53393381  0.17823521  1  -1.174089  0  -0.317527  -0.549967  0  2.340149  0
O  O236  1  0.71149139  0.06156643  0.53847585  1  -1.180569  0  -0.312462  -0.545717  0  2.36243  0
O  O237  1  0.81389646  0.38415902  0.32686146  1  -1.178615  0  -0.31503  -0.546124  0  2.343123  0
O  O238  1  0.81041605  0.12023123  0.59527127  1  -1.161484  0  -0.314006  -0.545482  0  2.336682  0
O  O239  1  0.71782063  0.32301104  0.26814279  1  -1.173714  0  -0.316207  -0.548523  0  2.335766  0
O  O240  1  0.93732671  0.03406215  0.67809940  1  -1.171265  0  -0.317102  -0.549991  0  2.339443  0
O  O241  1  0.81255862  0.38727019  0.03608748  1  -1.174008  0  -0.313378  -0.54744  0  2.351472  0
O  O242  1  0.71257167  0.05935896  0.82634733  1  -1.166413  0  -0.314506  -0.545994  0  2.339355  0
O  O243  1  0.72014760  0.32383423  0.09699094  1  -1.172189  0  -0.314013  -0.545482  0  2.341147  0
O  O244  1  0.80823316  0.12018074  0.76727611  1  -1.168712  0  -0.31321  -0.545202  0  2.338683  0
O  O245  1  0.58946617  0.40851095  0.18445158  1  -1.176072  0  -0.318643  -0.551899  0  2.336222  0
O  O246  1  0.76116837  0.97210375  0.68216545  1  -1.236689  0  -0.572548  -1.027696  0  2.538713  0
O  O247  1  0.58396905  0.97703794  0.62060984  1  -1.169107  0  -0.317051  -0.548285  0  2.331825  0
O  O248  1  0.58446795  0.96552635  0.74259741  1  -1.17002  0  -0.317355  -0.549628  0  2.337078  0
O  O249  1  0.76569928  0.47210308  0.18216592  1  -1.236877  0  -0.572298  -1.027908  0  2.53961  0
O  O250  1  0.94267299  0.47886214  0.12058276  1  -1.169493  0  -0.316972  -0.546964  0  2.332678  0
O  O251  1  0.94244461  0.46471384  0.24231389  1  -1.17133  0  -0.317673  -0.550673  0  2.334331  0
