# generated using pymatgen
data_Cu5H39C36N9O17
_symmetry_space_group_name_H-M   'P 1'
_cell_length_a   15.83547729
_cell_length_b   17.54542300
_cell_length_c   17.54711953
_cell_angle_alpha   77.44465303
_cell_angle_beta   80.52991177
_cell_angle_gamma   80.52987721
_symmetry_Int_Tables_number   1
_chemical_formula_structural   Cu5H39C36N9O17
_chemical_formula_sum   'Cu10 H78 C72 N18 O34'
_cell_volume   4651.68526756
_cell_formula_units_Z   2
loop_
 _symmetry_equiv_pos_site_id
 _symmetry_equiv_pos_as_xyz
  1  'x, y, z'
loop_
 _atom_site_type_symbol
 _atom_site_label
 _atom_site_symmetry_multiplicity
 _atom_site_fract_x
 _atom_site_fract_y
 _atom_site_fract_z
 _atom_site_occupancy
 _atom_site_pbe_bader_charge
 _atom_site_pbe_bader_spin_density
 _atom_site_pbe_cm5_charge
 _atom_site_pbe_ddec_charge
 _atom_site_pbe_ddec_spin_density
 _atom_site_pbe_ddec_sum_bond_order
 _atom_site_pbe_magmom
Cu  Cu0  1  0.86150382  0.75923988  0.75864416  1  0.927528  0.377511  0.680172  0.639997  0.461265  2.296197  0.37
Cu  Cu1  1  0.13859075  0.24128410  0.24072017  1  0.92549  0.374057  0.67897  0.63842  0.456883  2.294569  0.367
Cu  Cu2  1  0.75403090  0.61349299  0.76624275  1  1.070309  -0.402253  0.771863  0.81683  -0.522584  2.314773  -0.401
Cu  Cu3  1  0.24600363  0.23377936  0.38655362  1  1.072323  -0.401063  0.773095  0.818483  -0.521075  2.316215  -0.399
Cu  Cu4  1  0.24610104  0.38492871  0.23392243  1  1.048385  0.496368  0.7414  0.781549  0.638611  2.277504  0.495
Cu  Cu5  1  0.75395173  0.76610387  0.61503922  1  1.048407  0.499529  0.741067  0.781602  0.6426  2.276354  0.498
Cu  Cu6  1  0.54108481  0.53546748  0.53782769  1  1.085591  -0.529214  0.698404  0.793977  -0.679225  2.382456  -0.526
Cu  Cu7  1  0.45880822  0.46209283  0.46449372  1  1.097167  0.572538  0.700842  0.797886  0.72687  2.379637  0.57
Cu  Cu8  1  0.99901117  0.50076522  0.00063479  1  1.07323  -0.413646  0.801721  0.838526  -0.543924  2.282192  -0.412
Cu  Cu9  1  0.00103261  0.99942277  0.49924073  1  1.072868  -0.412073  0.801976  0.838947  -0.541864  2.282192  -0.41
H  H10  1  0.86928717  0.65913184  0.66156755  1  0.619309  -0.001109  0.306655  0.398097  -0.000247  0.886357  0.0
H  H11  1  0.13089303  0.33848658  0.34090330  1  0.620821  -0.001092  0.306361  0.39763  -0.000245  0.886766  0.0
H  H12  1  0.74767807  0.82554483  0.82911157  1  0.664693  -0.000165  0.284191  0.401634  0.000164  0.928347  0.0
H  H13  1  0.25211996  0.17055565  0.17424935  1  0.665861  -0.000168  0.283963  0.401607  0.000154  0.928333  0.0
H  H14  1  0.80773579  0.89262431  0.81467764  1  0.595459  0.000203  0.321526  0.398429  0.000458  0.878192  0.0
H  H15  1  0.19198732  0.18482555  0.10729096  1  0.588966  0.000229  0.321293  0.398192  0.00045  0.880151  0.0
H  H16  1  0.92170613  0.48048887  0.73739538  1  0.597559  3e-05  0.319495  0.40228  -1e-06  0.887381  0.0
H  H17  1  0.07831307  0.26263987  0.51958833  1  0.598856  2.9e-05  0.319757  0.402468  -2e-06  0.887101  0.0
H  H18  1  0.08009591  0.52005440  0.26441360  1  0.590886  -4.9e-05  0.319609  0.40317  -9e-06  0.886361  0.0
H  H19  1  0.91977534  0.73570642  0.47974466  1  0.590973  -4.9e-05  0.319625  0.403207  -9e-06  0.886424  0.0
H  H20  1  0.86917627  0.47423498  0.67242015  1  0.5813  3.1e-05  0.322489  0.402028  -8e-06  0.882586  0.0
H  H21  1  0.13080996  0.32765523  0.52581602  1  0.580072  3.1e-05  0.322677  0.402088  -8e-06  0.882549  0.0
H  H22  1  0.13731102  0.52536993  0.32614183  1  0.579991  -7.4e-05  0.321455  0.400726  -1.7e-05  0.884913  0.0
H  H23  1  0.86245797  0.67396407  0.47466942  1  0.580704  -7.5e-05  0.32184  0.401338  -1.7e-05  0.884167  0.0
H  H24  1  0.97715643  0.75481364  0.87997508  1  0.06653  0.000319  0.09942  0.142089  0.000199  1.008797  0.0
H  H25  1  0.02324860  0.11977632  0.24513879  1  0.067591  0.000306  0.099695  0.142371  0.000191  1.008446  0.0
H  H26  1  0.01314174  0.24868690  0.12566954  1  0.030563  0.000504  0.099603  0.138018  0.000291  1.011576  0.0
H  H27  1  0.98701079  0.87426817  0.75125775  1  0.022203  0.000516  0.099514  0.137756  0.000297  1.01179  0.0
H  H28  1  0.05895290  0.67094990  0.89387212  1  0.051613  -1e-05  0.106652  0.161251  -3.1e-05  0.980116  0.0
H  H29  1  0.94125260  0.10620040  0.32885077  1  0.054159  -1.5e-05  0.106254  0.160664  -3.3e-05  0.979769  0.0
H  H30  1  0.93558083  0.33478058  0.10744318  1  0.083225  -0.00012  0.109264  0.168431  -9.6e-05  0.975073  0.0
H  H31  1  0.06450670  0.89267472  0.66515338  1  0.082327  -0.00012  0.109135  0.167908  -9.7e-05  0.975265  0.0
H  H32  1  0.98161190  0.69198532  0.97478149  1  0.084145  -0.000132  0.110206  0.170836  -8.5e-05  0.976431  0.0
H  H33  1  0.01850163  0.02510859  0.30817752  1  0.081919  -0.00014  0.110037  0.170458  -8.8e-05  0.976616  0.0
H  H34  1  0.01274529  0.30861924  0.02866689  1  0.081003  7e-05  0.108061  0.167732  2.1e-05  0.981054  0.0
H  H35  1  0.98725158  0.97133536  0.69146245  1  0.083181  6.6e-05  0.107946  0.167372  1.8e-05  0.981004  0.0
H  H36  1  0.79617253  0.45754911  0.87710185  1  0.066985  0.000133  0.099632  0.150945  3.3e-05  1.024468  0.0
H  H37  1  0.20369235  0.12313838  0.54254594  1  0.065538  0.000128  0.099614  0.150919  3.1e-05  1.024206  0.0
H  H38  1  0.20525587  0.54108732  0.12277686  1  0.066992  0.000152  0.099868  0.150581  7.1e-05  1.02313  0.0
H  H39  1  0.79464604  0.87746435  0.45896568  1  0.067479  0.000154  0.099983  0.150743  7.3e-05  1.022917  0.0
H  H40  1  0.81029140  0.45330723  0.97664113  1  0.058273  0.000335  0.107429  0.167771  0.000141  0.97448  0.0
H  H41  1  0.18980924  0.02352003  0.54677231  1  0.055644  0.000338  0.107394  0.16761  0.000143  0.9742  0.0
H  H42  1  0.18735733  0.54732121  0.02380214  1  0.095175  -0.000194  0.107184  0.166906  -0.000115  0.977123  0.0
H  H43  1  0.81266780  0.97641729  0.45273723  1  0.094717  -0.000203  0.107141  0.166771  -0.000121  0.977188  0.0
H  H44  1  0.89974710  0.42058019  0.91081503  1  0.07465  0.000306  0.100142  0.156507  0.000158  1.013781  0.0
H  H45  1  0.10020046  0.08924276  0.57943507  1  0.073688  0.000305  0.10001  0.156428  0.000157  1.013857  0.0
H  H46  1  0.10051178  0.57991383  0.09205923  1  0.069716  -7.7e-05  0.101326  0.158061  -2.6e-05  1.009429  0.0
H  H47  1  0.89941244  0.90809200  0.42009948  1  0.070901  -8.2e-05  0.101109  0.157998  -2.9e-05  1.009804  0.0
H  H48  1  0.56350439  0.49798313  0.76041938  1  0.076571  0.000118  0.104297  0.158834  4.3e-05  0.974669  0.0
H  H49  1  0.43661074  0.23961033  0.50202077  1  0.075808  0.00016  0.104327  0.158902  8.7e-05  0.973939  0.0
H  H50  1  0.44240842  0.49779139  0.24339121  1  0.062122  -0.000256  0.104515  0.159317  -0.000111  0.971656  0.0
H  H51  1  0.55771069  0.75667014  0.50221945  1  0.098659  -0.000293  0.104314  0.159073  -0.000153  0.971616  0.0
H  H52  1  0.67595152  0.46733274  0.75548778  1  0.045406  9.9e-05  0.09335  0.134606  3.3e-05  1.024187  0.0
H  H53  1  0.32415284  0.24447738  0.53265394  1  0.045564  6.9e-05  0.093356  0.134648  2.8e-05  1.02403  0.0
H  H54  1  0.33050521  0.52740329  0.24144673  1  0.063124  -0.000144  0.093403  0.136329  -5.1e-05  1.027876  0.0
H  H55  1  0.66961972  0.75851150  0.47258108  1  0.069008  -0.000123  0.093222  0.13621  -5.1e-05  1.028024  0.0
H  H56  1  0.61641537  0.44928831  0.68358385  1  0.109572  0.000388  0.099929  0.159794  0.000214  1.021329  0.0
H  H57  1  0.38361582  0.31641451  0.55074516  1  0.108918  0.000237  0.099935  0.159735  0.000107  1.021467  0.0
H  H58  1  0.38351611  0.54886885  0.31629072  1  0.102675  -0.000383  0.09998  0.159742  -0.000198  1.022824  0.0
H  H59  1  0.61651420  0.68368279  0.45120384  1  0.105486  -0.000267  0.099738  0.159161  -0.000131  1.023115  0.0
H  H60  1  0.47503252  0.64456658  0.97933007  1  0.102326  4.2e-05  0.106669  0.112849  3.4e-05  0.996003  0.0
H  H61  1  0.52501592  0.02078164  0.35541181  1  0.102155  3.8e-05  0.106695  0.11312  3.2e-05  0.996237  0.0
H  H62  1  0.52096674  0.35214794  0.01348870  1  0.1073  -3.2e-05  0.105735  0.111522  -3.2e-05  0.997447  0.0
H  H63  1  0.47896521  0.98648699  0.64780205  1  0.108535  -3.2e-05  0.10564  0.111294  -3.2e-05  0.997746  0.0
H  H64  1  0.62197280  0.43374037  0.91627991  1  0.074741  -0.000108  0.102195  0.106396  -0.000166  1.005743  0.0
H  H65  1  0.37799880  0.08374310  0.56620986  1  0.074904  -0.000109  0.102098  0.106358  -0.000168  1.005649  0.0
H  H66  1  0.37454023  0.56286821  0.07707147  1  0.077511  0.000208  0.102814  0.107352  0.000233  1.005691  0.0
H  H67  1  0.62549283  0.92299760  0.43709563  1  0.078032  0.000211  0.10276  0.107152  0.000236  1.005602  0.0
H  H68  1  0.25080322  0.53278176  0.86343923  1  0.092929  -0.000317  0.104756  0.108588  -0.000292  1.002848  0.0
H  H69  1  0.74924607  0.13658135  0.46712155  1  0.094714  -0.000719  0.10482  0.108758  -0.000507  1.002413  0.0
H  H70  1  0.74886988  0.46671184  0.13842285  1  0.080721  -0.000721  0.104142  0.107748  -0.000509  1.001925  0.0
H  H71  1  0.25107481  0.86148108  0.53342100  1  0.087794  -0.000306  0.10414  0.10783  -0.000291  1.001805  0.0
H  H72  1  0.14065904  0.37335619  0.76632066  1  0.059592  -0.00018  0.097704  0.099553  -7.9e-05  1.012008  0.0
H  H73  1  0.85930898  0.23378801  0.62653254  1  0.059764  0.000209  0.098008  0.100084  0.000124  1.011987  0.0
H  H74  1  0.85786734  0.62647673  0.23599632  1  0.085342  0.000192  0.098905  0.100787  0.000118  1.009719  0.0
H  H75  1  0.14210943  0.76405927  0.37353090  1  0.084778  -0.000215  0.098843  0.100775  -9.8e-05  1.009387  0.0
H  H76  1  0.37455286  0.53513251  0.75398298  1  0.095492  -0.000304  0.109629  0.117132  -0.000241  0.991803  0.0
H  H77  1  0.62545171  0.24600075  0.46477581  1  0.09292  0.000237  0.109636  0.11718  0.000216  0.991805  0.0
H  H78  1  0.62533458  0.46322165  0.24813743  1  0.095221  0.00026  0.109002  0.11584  0.000241  0.994639  0.0
H  H79  1  0.37456449  0.75172052  0.53690784  1  0.094823  -0.000342  0.10896  0.115766  -0.000272  0.994653  0.0
H  H80  1  0.26274788  0.37903278  0.65386216  1  0.073247  9.2e-05  0.101486  0.105483  0.000136  1.007374  0.0
H  H81  1  0.73716190  0.34620428  0.62084690  1  0.074901  -0.000484  0.101524  0.105478  -0.000341  1.007601  0.0
H  H82  1  0.73551239  0.62037565  0.34830048  1  0.083109  -0.00051  0.100966  0.10438  -0.000361  1.008745  0.0
H  H83  1  0.26443199  0.65171902  0.37961590  1  0.083045  0.000116  0.101053  0.10451  0.000153  1.008604  0.0
H  H84  1  0.64989075  0.74550520  0.82014612  1  0.655166  -4.5e-05  0.283565  0.392863  4.8e-05  0.941879  0.0
H  H85  1  0.34991340  0.17986504  0.25435007  1  0.658301  -4.6e-05  0.283843  0.393695  4.5e-05  0.940546  0.0
H  H86  1  0.65203738  0.82112211  0.74698894  1  0.675619  3e-05  0.281473  0.389667  -5e-05  0.947708  0.0
H  H87  1  0.34772548  0.25295579  0.17873315  1  0.676107  2.8e-05  0.281777  0.390712  -5.1e-05  0.946541  0.0
C  C88  1  0.99113793  0.69372830  0.91097013  1  -0.012679  -0.000425  -0.225633  -0.474045  -0.000169  3.934385  0.0
C  C89  1  0.00909672  0.08894631  0.30625655  1  -0.012982  -0.000439  -0.225445  -0.473467  -0.000183  3.93412  0.0
C  C90  1  0.00276401  0.30917466  0.09205951  1  -0.025501  0.000273  -0.227012  -0.475823  0.000324  3.937923  0.0
C  C91  1  0.99731632  0.90795923  0.69079832  1  -0.019444  0.000281  -0.226364  -0.474113  0.00033  3.937726  0.0
C  C92  1  0.93314565  0.64406928  0.89229164  1  1.011328  0.000317  0.230173  0.413986  0.000156  3.978243  0.001
C  C93  1  0.06698814  0.10768463  0.35594173  1  1.012503  0.000296  0.230286  0.414477  0.000132  3.978114  0.001
C  C94  1  0.06273032  0.35765184  0.10968873  1  1.031693  0.001611  0.224593  0.403731  0.001861  4.000259  0.004
C  C95  1  0.93734849  0.89034623  0.64231745  1  1.033185  0.001622  0.224066  0.402984  0.00188  4.001153  0.004
C  C96  1  0.86700524  0.54450203  0.89401745  1  1.023868  0.001653  0.229768  0.413847  0.000378  3.958495  0.0
C  C97  1  0.13303165  0.10605474  0.45554893  1  0.993959  0.001577  0.229962  0.414734  0.000327  3.957009  0.0
C  C98  1  0.13148610  0.45598738  0.10697396  1  0.97635  0.000907  0.230006  0.414892  0.001025  3.955319  0.002
C  C99  1  0.86852289  0.89313566  0.54401405  1  0.981687  0.000941  0.230556  0.415678  0.001055  3.955174  0.002
C  C100  1  0.84151056  0.46410202  0.91522534  1  -0.01938  -0.000148  -0.235491  -0.490371  0.0001  3.941249  0.0
C  C101  1  0.15847968  0.08490797  0.53596137  1  0.013518  -0.000146  -0.235144  -0.49009  9.9e-05  3.940009  0.0
C  C102  1  0.15805806  0.53595107  0.08578157  1  -0.012723  -0.00034  -0.234126  -0.488047  -0.000213  3.935653  0.0
C  C103  1  0.84190844  0.91441531  0.46408167  1  -0.018614  -0.000343  -0.234016  -0.488153  -0.000217  3.935752  0.0
C  C104  1  0.63972006  0.56755296  0.66769845  1  0.985842  0.001286  0.223937  0.413653  0.000688  3.968529  0.0
C  C105  1  0.36034813  0.33230360  0.43247300  1  0.988368  0.000363  0.224031  0.413148  0.000116  3.968036  0.0
C  C106  1  0.36186499  0.42985322  0.33347464  1  1.011679  -0.00255  0.224295  0.414641  -0.001423  3.964563  -0.001
C  C107  1  0.63820183  0.66653587  0.57018709  1  1.008694  -0.001858  0.223608  0.414405  -0.000981  3.965291  -0.001
C  C108  1  0.62360500  0.49085990  0.71969939  1  -0.056766  0.000638  -0.237616  -0.470598  0.000498  3.937508  0.0
C  C109  1  0.37648125  0.28029893  0.50915203  1  -0.053832  0.000608  -0.237491  -0.470236  0.000452  3.936105  0.0
C  C110  1  0.37991820  0.50565253  0.28070320  1  -0.054138  -0.000545  -0.237902  -0.471188  -0.000488  3.936166  0.0
C  C111  1  0.62016286  0.71930269  0.49437590  1  -0.098705  -0.000554  -0.237552  -0.470734  -0.00045  3.936446  0.0
C  C112  1  0.61380071  0.59443782  0.88426916  1  1.538962  0.000121  0.208126  0.567808  -0.001036  4.200935  0.002
C  C113  1  0.38619220  0.11579570  0.40554551  1  1.537986  0.000111  0.208378  0.567794  -0.001039  4.200861  0.002
C  C114  1  0.38315408  0.40264710  0.11042700  1  1.536162  -0.000232  0.205442  0.567335  0.001087  4.209343  -0.002
C  C115  1  0.61679156  0.88957047  0.59731250  1  1.534589  -0.000238  0.2051  0.56679  0.001095  4.210105  -0.002
C  C116  1  0.55444572  0.54414847  0.94225243  1  -0.052084  -0.010339  -0.015959  -0.02464  -0.007198  3.961121  -0.008
C  C117  1  0.44557976  0.05781059  0.45581185  1  -0.050396  -0.010294  -0.015684  -0.024241  -0.007171  3.960657  -0.008
C  C118  1  0.44201047  0.45250104  0.05110293  1  -0.051896  0.011498  -0.015583  -0.020648  0.007896  3.955245  0.009
C  C119  1  0.55796740  0.94891342  0.54746699  1  -0.052458  0.011559  -0.015683  -0.020633  0.007935  3.95454  0.009
C  C120  1  0.48438949  0.58048837  0.98749649  1  -0.074758  -0.00077  -0.085072  -0.099077  -0.00058  3.981495  -0.001
C  C121  1  0.51565153  0.01258809  0.41947982  1  -0.075759  -0.000773  -0.085101  -0.099678  -0.000581  3.982479  -0.001
C  C122  1  0.51175643  0.41620789  0.00552807  1  -0.006565  0.000856  -0.085148  -0.10044  0.000643  3.983673  0.001
C  C123  1  0.48820223  0.99449010  0.58374449  1  -0.005818  0.000859  -0.085015  -0.100085  0.000646  3.983519  0.001
C  C124  1  0.56756146  0.46168557  0.95167858  1  -0.064909  0.001196  -0.087952  -0.101373  0.0007  3.987101  0.001
C  C125  1  0.43242395  0.04835790  0.53826925  1  -0.065133  0.00119  -0.08792  -0.10137  0.000694  3.98665  0.001
C  C126  1  0.42879870  0.53498714  0.04148319  1  0.003912  -0.001079  -0.087933  -0.102207  -0.000644  3.985126  -0.001
C  C127  1  0.57121435  0.95857056  0.46498349  1  0.001674  -0.001078  -0.087889  -0.101828  -0.000643  3.98479  -0.001
C  C128  1  0.11038938  0.45564015  0.88242034  1  1.56228  0.00135  0.19004  0.552615  0.000215  4.232848  0.003
C  C129  1  0.88963413  0.11765965  0.54429853  1  1.561443  0.001359  0.190102  0.552749  0.000219  4.232454  0.003
C  C130  1  0.88890998  0.54382838  0.12010388  1  1.530148  0.00139  0.192749  0.554421  0.000204  4.224372  0.003
C  C131  1  0.11108793  0.87992536  0.45621443  1  1.529058  0.001377  0.192987  0.555003  0.000198  4.224809  0.003
C  C132  1  0.18761588  0.45414088  0.82012031  1  -0.012227  -0.0077  -0.015768  -0.015536  -0.005379  3.958233  -0.006
C  C133  1  0.81238349  0.17994465  0.54576668  1  -0.007425  -0.007135  -0.015665  -0.015595  -0.005006  3.958308  -0.006
C  C134  1  0.81153223  0.54540322  0.18215119  1  -0.03934  -0.007497  -0.015512  -0.016737  -0.005254  3.959504  -0.006
C  C135  1  0.18843452  0.81783921  0.45465113  1  -0.039485  -0.007691  -0.015653  -0.017242  -0.005379  3.959705  -0.006
C  C136  1  0.25411149  0.49878729  0.81770318  1  -0.037758  0.000576  -0.084771  -0.097003  0.00031  3.977778  0.001
C  C137  1  0.74590769  0.18233622  0.50111100  1  -0.037285  -0.000966  -0.084749  -0.096925  -0.00078  3.978254  -0.001
C  C138  1  0.74529763  0.50053391  0.18434787  1  -0.036173  -0.001029  -0.08415  -0.095395  -0.000838  3.976961  -0.001
C  C139  1  0.25464349  0.81557605  0.49957067  1  -0.043045  0.000418  -0.084141  -0.09548  0.000197  3.976816  0.001
C  C140  1  0.19195812  0.40916676  0.76222502  1  -0.050338  -0.001233  -0.091062  -0.108004  -0.00083  4.0004  -0.001
C  C141  1  0.80801222  0.23785150  0.59073274  1  -0.052358  -3.4e-05  -0.091304  -0.108506  4.3e-05  4.000109  0.0
C  C142  1  0.80678260  0.59044241  0.24003451  1  -0.033839  -3e-05  -0.088638  -0.104344  2.9e-05  3.997482  0.0
C  C143  1  0.19318497  0.75997953  0.40958155  1  -0.034388  -0.001319  -0.088519  -0.10389  -0.000903  3.996618  -0.001
C  C144  1  0.39399085  0.46688263  0.62752409  1  1.557173  0.000235  0.214304  0.570731  0.000115  4.170498  0.0
C  C145  1  0.60589952  0.37246050  0.53302113  1  1.557321  -0.000138  0.214472  0.571197  -3.7e-05  4.171301  0.0
C  C146  1  0.60547779  0.53108457  0.37474932  1  1.560026  -0.000203  0.215445  0.57112  -0.000118  4.172157  0.0
C  C147  1  0.39442065  0.62516770  0.46892502  1  1.529093  0.00031  0.215544  0.570362  0.000192  4.171567  0.0
C  C148  1  0.32504170  0.45807737  0.69716127  1  -0.059163  9.5e-05  -0.011565  -0.013911  5.8e-05  3.949935  0.0
C  C149  1  0.67490887  0.30286889  0.54181626  1  -0.06402  0.00084  -0.01142  -0.0143  0.000557  3.951085  0.001
C  C150  1  0.67417516  0.54062298  0.30503634  1  -0.020334  0.000662  -0.012734  -0.016185  0.000451  3.954322  0.0
C  C151  1  0.32575258  0.69491108  0.45941876  1  0.01689  6e-05  -0.012267  -0.015251  2.2e-05  3.953993  0.0
C  C152  1  0.32285876  0.50014694  0.75703297  1  -0.018617  0.000601  -0.080773  -0.092531  0.000437  3.965554  0.001
C  C153  1  0.67713260  0.24297409  0.49976293  1  -0.022619  -0.000997  -0.08103  -0.092725  -0.000576  3.966184  -0.001
C  C154  1  0.67665464  0.49862190  0.24507216  1  -0.028203  -0.001083  -0.08111  -0.093166  -0.000623  3.969043  -0.001
C  C155  1  0.32326871  0.75483512  0.50147868  1  -0.035253  0.000793  -0.080914  -0.092892  0.000545  3.968421  0.001
C  C156  1  0.25970667  0.41178514  0.70059651  1  -0.004656  -0.00184  -0.088149  -0.100327  -0.001179  3.988376  -0.002
C  C157  1  0.74023823  0.29946998  0.58809087  1  -0.002865  0.000552  -0.088134  -0.100061  0.000333  3.988249  0.001
C  C158  1  0.73893998  0.58751151  0.30158910  1  -0.047354  0.000383  -0.086288  -0.098271  0.000205  3.986401  0.001
C  C159  1  0.26100662  0.69840382  0.41251405  1  -0.046702  -0.001923  -0.086684  -0.099048  -0.001228  3.986872  -0.002
N  N160  1  0.87789508  0.66728485  0.83933881  1  -0.779387  0.024625  -0.30217  -0.262261  0.016603  3.605444  0.021
N  N161  1  0.12224611  0.16063459  0.33272059  1  -0.782068  0.024019  -0.302068  -0.26201  0.016216  3.605801  0.02
N  N162  1  0.11864058  0.33351762  0.16200056  1  -0.785368  0.033518  -0.310832  -0.29129  0.021655  3.645131  0.027
N  N163  1  0.88143481  0.83802761  0.66643389  1  -0.785235  0.034065  -0.310349  -0.29143  0.022006  3.645558  0.028
N  N164  1  0.83620239  0.60457286  0.84043440  1  -0.74607  -0.053443  -0.286605  -0.251479  -0.036788  3.530237  -0.047
N  N165  1  0.16386076  0.15960758  0.39545280  1  -0.743802  -0.053774  -0.286897  -0.252044  -0.037021  3.530645  -0.048
N  N166  1  0.16212557  0.39578439  0.16037187  1  -0.752488  0.055843  -0.288385  -0.251507  0.038039  3.517283  0.049
N  N167  1  0.83790381  0.83970207  0.60419001  1  -0.752032  0.056061  -0.288186  -0.251302  0.038189  3.517501  0.05
N  N168  1  0.92807460  0.56772752  0.92661025  1  -1.199784  -0.062678  -0.381189  -0.424341  -0.042507  3.510011  -0.054
N  N169  1  0.07199625  0.07342654  0.43231443  1  -1.198756  -0.062574  -0.381388  -0.425238  -0.042432  3.510241  -0.054
N  N170  1  0.06923513  0.43362405  0.07505173  1  -1.198285  -0.046319  -0.378795  -0.414389  -0.032029  3.50584  -0.041
N  N171  1  0.93080149  0.92502593  0.56637423  1  -1.199165  -0.046093  -0.379063  -0.414463  -0.03187  3.505651  -0.04
N  N172  1  0.68612180  0.61889644  0.68255652  1  -0.745909  -0.054329  -0.294833  -0.275475  -0.037124  3.577445  -0.048
N  N173  1  0.31394537  0.31746269  0.38113244  1  -0.748627  -0.053155  -0.294505  -0.274827  -0.036342  3.576906  -0.047
N  N174  1  0.31482392  0.37929324  0.31840179  1  -0.778253  0.066437  -0.295008  -0.280804  0.045385  3.568841  0.059
N  N175  1  0.68526128  0.68162484  0.62072541  1  -0.778391  0.066913  -0.295053  -0.281003  0.045624  3.57025  0.059
N  N176  1  0.60946454  0.59562193  0.59773548  1  -1.189883  0.00852  -0.355653  -0.428179  0.005167  3.323257  0.006
N  N177  1  0.39059059  0.40229532  0.40438219  1  -1.192282  0.010202  -0.355675  -0.427361  0.006783  3.324547  0.009
O  O178  1  0.82306385  0.68894508  0.69208986  1  -1.078156  0.091806  -0.55635  -0.77551  0.058719  2.422672  0.085
O  O179  1  0.17711425  0.30791158  0.31113080  1  -1.079676  0.090613  -0.556138  -0.7752  0.058015  2.423004  0.084
O  O180  1  0.67683261  0.55446305  0.84592704  1  -1.105064  -0.098932  -0.323232  -0.545519  -0.063678  2.409019  -0.089
O  O181  1  0.32315887  0.15411959  0.44556579  1  -1.104899  -0.098681  -0.323445  -0.545678  -0.063514  2.40874  -0.089
O  O182  1  0.32478965  0.44256649  0.15281244  1  -1.109439  0.111629  -0.327722  -0.551328  0.071072  2.417537  0.101
O  O183  1  0.67525337  0.84727296  0.55740554  1  -1.109044  0.11218  -0.327458  -0.551256  0.071426  2.417841  0.102
O  O184  1  0.60035337  0.66789164  0.87597852  1  -1.148762  -0.000745  -0.315142  -0.544664  -0.00019  2.148692  -0.001
O  O185  1  0.39959037  0.12413696  0.33210305  1  -1.148405  -0.000748  -0.315319  -0.544841  -0.000189  2.148376  -0.001
O  O186  1  0.39329103  0.32934811  0.11598816  1  -1.15166  0.000573  -0.321441  -0.553014  4.4e-05  2.147155  0.001
O  O187  1  0.60653978  0.88393028  0.67062470  1  -1.150159  0.000605  -0.321199  -0.552581  6.1e-05  2.147045  0.001
O  O188  1  0.45722343  0.50098210  0.63279524  1  -1.106379  -0.087252  -0.305389  -0.510225  -0.056545  2.362729  -0.079
O  O189  1  0.54268379  0.36711230  0.49893370  1  -1.10423  0.089255  -0.305573  -0.510967  0.057275  2.362783  0.08
O  O190  1  0.54556107  0.49216876  0.37111081  1  -1.10476  0.089412  -0.306322  -0.509492  0.057228  2.366655  0.081
O  O191  1  0.45439675  0.62877743  0.50778608  1  -1.102551  -0.088036  -0.306222  -0.508439  -0.056936  2.367496  -0.079
O  O192  1  0.38198695  0.44174750  0.56764281  1  -1.114701  0.084947  -0.310877  -0.525328  0.054526  2.384349  0.077
O  O193  1  0.61783220  0.43237489  0.55814080  1  -1.113981  -0.082641  -0.310527  -0.524386  -0.053596  2.385323  -0.075
O  O194  1  0.61426602  0.56032871  0.43304039  1  -1.110578  -0.084388  -0.31024  -0.524246  -0.054801  2.387222  -0.076
O  O195  1  0.38557162  0.56688715  0.43968299  1  -1.110475  0.085534  -0.310116  -0.524305  0.05499  2.387069  0.077
O  O196  1  0.10297560  0.51133697  0.92257540  1  -1.090579  -0.097774  -0.324227  -0.538952  -0.063412  2.299213  -0.088
O  O197  1  0.89708300  0.07747884  0.48862113  1  -1.090144  -0.097435  -0.324086  -0.53898  -0.063206  2.299332  -0.088
O  O198  1  0.89527646  0.48921351  0.07876360  1  -1.079  -0.102182  -0.325358  -0.539967  -0.066023  2.296495  -0.092
O  O199  1  0.10475184  0.92127392  0.51081698  1  -1.078053  -0.101932  -0.325207  -0.540074  -0.065862  2.296085  -0.092
O  O200  1  0.05755208  0.40727238  0.89263058  1  -1.186268  -0.000292  -0.341121  -0.583569  -1e-05  2.110527  -0.001
O  O201  1  0.94244926  0.10746838  0.59266923  1  -1.18536  -4.2e-05  -0.341186  -0.583485  0.000148  2.110375  -0.001
O  O202  1  0.94286593  0.59094620  0.11103496  1  -1.169411  -2.7e-05  -0.337865  -0.578918  0.000164  2.111802  -0.001
O  O203  1  0.05713062  0.88900924  0.40912161  1  -1.168709  -0.000225  -0.337801  -0.578865  4.1e-05  2.112853  -0.001
O  O204  1  0.80538162  0.83748874  0.83917694  1  -1.215668  0.051837  -0.582661  -0.738195  0.033375  2.011202  0.044
O  O205  1  0.19440976  0.16046433  0.16244380  1  -1.21112  0.051013  -0.582313  -0.738196  0.032872  2.01318  0.043
O  O206  1  0.88295028  0.51135443  0.70091470  1  -1.165713  0.000273  -0.575044  -0.771842  0.000202  1.919851  0.0
O  O207  1  0.11724150  0.29898103  0.48875643  1  -1.165815  0.000287  -0.575385  -0.772088  0.000215  1.920137  0.0
O  O208  1  0.11818092  0.48818908  0.30100017  1  -1.15899  -0.00047  -0.577135  -0.771326  -0.000291  1.91338  0.0
O  O209  1  0.88173862  0.69914110  0.51173894  1  -1.159661  -0.000467  -0.577516  -0.772018  -0.00029  1.912838  0.0
O  O210  1  0.68491426  0.78696470  0.78881456  1  -1.325686  -0.001089  -0.583839  -0.815713  -0.000975  2.035123  -0.001
O  O211  1  0.31487028  0.21111353  0.21289091  1  -1.329489  -0.0011  -0.584404  -0.817579  -0.000976  2.033253  -0.001
