# generated using pymatgen
data_ZnH28C18S2N4(Cl2O5)2
_symmetry_space_group_name_H-M   'P 1'
_cell_length_a   8.30174035
_cell_length_b   9.02554701
_cell_length_c   9.85563038
_cell_angle_alpha   90.81259983
_cell_angle_beta   92.29124032
_cell_angle_gamma   106.74876283
_symmetry_Int_Tables_number   1
_chemical_formula_structural   ZnH28C18S2N4(Cl2O5)2
_chemical_formula_sum   'Zn1 H28 C18 S2 N4 Cl4 O10'
_cell_volume   706.31259592
_cell_formula_units_Z   1
loop_
 _symmetry_equiv_pos_site_id
 _symmetry_equiv_pos_as_xyz
  1  'x, y, z'
loop_
 _atom_site_type_symbol
 _atom_site_label
 _atom_site_symmetry_multiplicity
 _atom_site_fract_x
 _atom_site_fract_y
 _atom_site_fract_z
 _atom_site_occupancy
 _atom_site_hle17_bader_spin_density
 _atom_site_hle17_ddec_charge
 _atom_site_hle17_ddec_spin_density
 _atom_site_hle17_ddec_sum_bond_order
 _atom_site_hle17_magmom
 _atom_site_hse06_10hf_bader_spin_density
 _atom_site_hse06_10hf_ddec_charge
 _atom_site_hse06_10hf_ddec_spin_density
 _atom_site_hse06_10hf_ddec_sum_bond_order
 _atom_site_hse06_10hf_magmom
 _atom_site_hse06_bader_spin_density
 _atom_site_hse06_ddec_charge
 _atom_site_hse06_ddec_spin_density
 _atom_site_hse06_ddec_sum_bond_order
 _atom_site_hse06_magmom
 _atom_site_pbe_bader_spin_density
 _atom_site_pbe_cm5_charge
 _atom_site_pbe_ddec_charge
 _atom_site_pbe_ddec_spin_density
 _atom_site_pbe_ddec_sum_bond_order
 _atom_site_pbe_magmom
Zn  Zn0  1  0.50000040  0.50000034  0.50000021  1  0  1.191218  0  1.728707  0  0  1.038114  0  2.176978  0  0  1.084665  0  2.119259  0  0  0.694324  1.00512  0  2.216163  0
H  H1  1  0.40657008  0.78798762  0.42881249  1  0  0.05263  0  0.936142  0  0  0.062436  0  1.00382  0  0  0.064726  0  0.998025  0  0  0.1272  0.060545  0  1.008085  0
H  H2  1  0.59343075  0.21201307  0.57118995  1  0  0.052639  0  0.93612  0  0  0.062447  0  1.003807  0  0  0.064739  0  0.998011  0  0  0.127182  0.060556  0  1.008071  0
H  H3  1  0.03169002  0.78973258  0.67749264  1  0  0.100676  0  0.952815  0  0  0.117203  0  1.024239  0  0  0.118189  0  1.023421  0  0  0.099769  0.116325  0  1.024858  0
H  H4  1  0.96831115  0.21026925  0.32250779  1  0  0.100689  0  0.952829  0  0  0.117201  0  1.024277  0  0  0.118187  0  1.023457  0  0  0.099767  0.116323  0  1.024896  0
H  H5  1  0.92172639  0.69108595  0.52970003  1  0  0.109174  0  0.950992  0  0  0.128617  0  1.016025  0  0  0.129069  0  1.015954  0  0  0.102395  0.128093  0  1.016194  0
H  H6  1  0.07827478  0.30891588  0.47030040  1  0  0.109185  0  0.951026  0  0  0.128634  0  1.016044  0  0  0.129086  0  1.015976  0  0  0.10239  0.12811  0  1.016213  0
H  H7  1  0.05380883  0.60516294  0.62799819  1  0  0.10728  0  0.948716  0  0  0.125265  0  1.014428  0  0  0.126732  0  1.012982  0  0  0.102462  0.124087  0  1.015622  0
H  H8  1  0.94619078  0.39483774  0.37200320  1  0  0.107268  0  0.948721  0  0  0.125254  0  1.014435  0  0  0.12672  0  1.012986  0  0  0.102445  0.124076  0  1.015628  0
H  H9  1  0.31094553  0.98241972  0.40409564  1  0  0.114747  0  0.959316  0  0  0.131625  0  1.025903  0  0  0.133247  0  1.024559  0  0  0.109346  0.130378  0  1.026916  0
H  H10  1  0.68905333  0.01757864  0.59590368  1  0  0.114749  0  0.959297  0  0  0.131622  0  1.025893  0  0  0.133244  0  1.024548  0  0  0.10934  0.130374  0  1.026909  0
H  H11  1  0.08840403  0.94502069  0.40209546  1  0  0.09802  0  0.941626  0  0  0.117987  0  1.005847  0  0  0.118581  0  1.006445  0  0  0.102499  0.117397  0  1.005708  0
H  H12  1  0.91159445  0.05497650  0.59790282  1  0  0.09801  0  0.941659  0  0  0.117983  0  1.005872  0  0  0.118576  0  1.006469  0  0  0.102497  0.117392  0  1.005735  0
H  H13  1  0.21325511  0.02476763  0.55185847  1  0  0.099856  0  0.943084  0  0  0.119537  0  1.007764  0  0  0.12002  0  1.008377  0  0  0.102641  0.119342  0  1.006912  0
H  H14  1  0.78674760  0.97523534  0.44813897  1  0  0.099814  0  0.943145  0  0  0.119532  0  1.007773  0  0  0.120004  0  1.0084  0  0  0.102654  0.119359  0  1.006898  0
H  H15  1  0.79654839  0.59305156  0.29816619  1  0  0.046647  0  0.93619  0  0  0.054707  0  1.007993  0  0  0.057351  0  1.0022  0  0  0.120681  0.052492  0  1.01235  0
H  H16  1  0.20345323  0.40694795  0.70183221  1  0  0.046669  0  0.936172  0  0  0.054714  0  1.007986  0  0  0.05737  0  1.00218  0  0  0.120689  0.052498  0  1.012344  0
H  H17  1  0.68727622  0.91021450  0.05403535  1  0  0.106562  0  0.95143  0  0  0.123354  0  1.020411  0  0  0.123959  0  1.020397  0  0  0.101125  0.123083  0  1.019846  0
H  H18  1  0.31272143  0.08978385  0.94596393  1  0  0.106543  0  0.951478  0  0  0.123333  0  1.020455  0  0  0.123938  0  1.020439  0  0  0.10112  0.123063  0  1.01989  0
H  H19  1  0.79323868  0.02242782  0.19802418  1  0  0.098425  0  0.943462  0  0  0.121392  0  1.003825  0  0  0.121908  0  1.003692  0  0  0.101314  0.12106  0  1.003855  0
H  H20  1  0.20676055  0.97757169  0.80197516  1  0  0.098435  0  0.943478  0  0  0.1214  0  1.003836  0  0  0.121915  0  1.003704  0  0  0.101311  0.121068  0  1.003864  0
H  H21  1  0.59052343  0.88736100  0.21506813  1  0  0.119218  0  0.939787  0  0  0.136848  0  1.004143  0  0  0.138919  0  1.002117  0  0  0.10862  0.135317  0  1.005509  0
H  H22  1  0.40947582  0.11263853  0.78493324  1  0  0.119239  0  0.939729  0  0  0.136861  0  1.004089  0  0  0.138934  0  1.002062  0  0  0.108614  0.13533  0  1.005454  0
H  H23  1  0.91953461  0.78819365  0.01893250  1  0  0.114702  0  0.969546  0  0  0.130647  0  1.036256  0  0  0.13188  0  1.036108  0  0  0.096731  0.129663  0  1.036495  0
H  H24  1  0.08046377  0.21180702  0.98106683  1  0  0.114688  0  0.969571  0  0  0.130658  0  1.036256  0  0  0.131889  0  1.036114  0  0  0.096745  0.129674  0  1.036496  0
H  H25  1  0.04052163  0.90499521  0.15583855  1  0  0.121788  0  0.955133  0  0  0.141258  0  1.014973  0  0  0.143021  0  1.013959  0  0  0.10235  0.139856  0  1.015877  0
H  H26  1  0.95947795  0.09500545  0.84415980  1  0  0.121778  0  0.955137  0  0  0.141248  0  1.014985  0  0  0.143011  0  1.01397  0  0  0.102356  0.139846  0  1.01589  0
H  H27  1  0.99049305  0.69836486  0.16091469  1  0  0.08671  0  0.983281  0  0  0.098405  0  1.064933  0  0  0.099326  0  1.064325  0  0  0.089772  0.097578  0  1.065637  0
H  H28  1  0.00950772  0.30163580  0.83908268  1  0  0.086699  0  0.983276  0  0  0.098397  0  1.06493  0  0  0.099318  0  1.064321  0  0  0.08979  0.09757  0  1.065633  0
C  C29  1  0.55125283  0.61304855  0.89727749  1  0  -0.189188  0  3.619405  0  0  -0.184804  0  3.884913  0  0  -0.188018  0  3.901671  0  0  -0.025045  -0.183414  0  3.873967  0
C  C30  1  0.44874772  0.38694749  0.10272287  1  0  -0.18901  0  3.61963  0  0  -0.184517  0  3.884958  0  0  -0.187827  0  3.901841  0  0  -0.024969  -0.183174  0  3.874074  0
C  C31  1  0.64019622  0.50487394  0.92561436  1  0  0.088686  0  3.752068  0  0  0.080676  0  4.033372  0  0  0.08496  0  4.052309  0  0  0.011649  0.077692  0  4.020681  0
C  C32  1  0.35980313  0.49512210  0.07438597  1  0  0.08858  0  3.752171  0  0  0.080568  0  4.033424  0  0  0.084879  0  4.052386  0  0  0.011629  0.077597  0  4.020744  0
C  C33  1  0.41018206  0.60738908  0.97389178  1  0  0.075247  0  3.768959  0  0  0.067717  0  4.053391  0  0  0.071367  0  4.072663  0  0  0.009875  0.064977  0  4.040361  0
C  C34  1  0.58981571  0.39260580  0.02610748  1  0  0.075186  0  3.76929  0  0  0.06764  0  4.053687  0  0  0.071318  0  4.072982  0  0  0.009878  0.064912  0  4.040668  0
C  C35  1  0.30155922  0.71920474  0.48667618  1  0  0.413222  0  3.782423  0  0  0.332249  0  4.072582  0  0  0.361686  0  4.071646  0  0  0.17837  0.312652  0  4.072769  0
C  C36  1  0.69844475  0.28079827  0.51332637  1  0  0.413255  0  3.782557  0  0  0.332252  0  4.072759  0  0  0.361689  0  4.071826  0  0  0.178372  0.312656  0  4.072945  0
C  C37  1  0.03986761  0.71457084  0.59104957  1  0  -0.170416  0  3.643868  0  0  -0.274021  0  3.895617  0  0  -0.269888  0  3.904973  0  0  -0.14111  -0.276528  0  3.889474  0
C  C38  1  0.96013356  0.28543099  0.40895086  1  0  -0.170433  0  3.643915  0  0  -0.27403  0  3.895646  0  0  -0.269904  0  3.905013  0  0  -0.141103  -0.276539  0  3.889505  0
C  C39  1  0.19994321  0.94345876  0.46522426  1  0  -0.171678  0  3.646895  0  0  -0.272301  0  3.894733  0  0  -0.269328  0  3.905559  0  0  -0.132505  -0.27403  0  3.887233  0
C  C40  1  0.80005760  0.05654192  0.53477615  1  0  -0.17163  0  3.646892  0  0  -0.272274  0  3.894719  0  0  -0.269293  0  3.90555  0  0  -0.132524  -0.274021  0  3.887208  0
C  C41  1  0.72493056  0.67790465  0.28435049  1  0  0.384743  0  3.810344  0  0  0.307825  0  4.104329  0  0  0.335521  0  4.105833  0  0  0.168627  0.28971  0  4.101941  0
C  C42  1  0.27506986  0.32209486  0.71564889  1  0  0.384709  0  3.810314  0  0  0.307803  0  4.104292  0  0  0.33549  0  4.105795  0  0  0.168616  0.289688  0  4.101901  0
C  C43  1  0.70947684  0.90869192  0.16446396  1  0  -0.172966  0  3.631113  0  0  -0.275294  0  3.880472  0  0  -0.271525  0  3.889894  0  0  -0.13987  -0.277439  0  3.873594  0
C  C44  1  0.29052240  0.09130759  0.83553640  1  0  -0.17298  0  3.631126  0  0  -0.275289  0  3.880461  0  0  -0.271522  0  3.889885  0  0  -0.139846  -0.277435  0  3.873581  0
C  C45  1  0.94426463  0.79520986  0.12939043  1  0  -0.200636  0  3.650231  0  0  -0.301581  0  3.900712  0  0  -0.299402  0  3.911357  0  0  -0.148545  -0.302851  0  3.893718  0
C  C46  1  0.05573375  0.20479080  0.87060890  1  0  -0.200562  0  3.65023  0  0  -0.301536  0  3.900715  0  0  -0.299355  0  3.911356  0  0  -0.148551  -0.302807  0  3.893721  0
S  S47  1  0.63027802  0.75706981  0.76694441  1  0  1.304149  0  5.678323  0  0  1.210743  0  6.194853  0  0  1.25876  0  6.17254  0  0  0.506767  1.177852  0  6.209056  0
S  S48  1  0.36972086  0.24292856  0.23305694  1  0  1.304007  0  5.678463  0  0  1.210555  0  6.195014  0  0  1.258597  0  6.172708  0  0  0.506708  1.177678  0  6.209218  0
N  N49  1  0.18390168  0.78820590  0.51203607  1  0  -0.080625  0  3.515517  0  0  0.025033  0  3.746543  0  0  0.004689  0  3.772105  0  0  -0.280587  0.038323  0  3.729085  0
N  N50  1  0.81609949  0.21179594  0.48796538  1  0  -0.080663  0  3.515583  0  0  0.025011  0  3.746607  0  0  0.004669  0  3.772164  0  0  -0.280569  0.0383  0  3.729156  0
N  N51  1  0.78922692  0.78861918  0.19702763  1  0  -0.082218  0  3.510388  0  0  0.022236  0  3.745535  0  0  0.001667  0  3.772782  0  0  -0.280885  0.035956  0  3.726593  0
N  N52  1  0.21077230  0.21138033  0.80297171  1  0  -0.08226  0  3.510395  0  0  0.022194  0  3.745548  0  0  0.001624  0  3.772802  0  0  -0.280933  0.035915  0  3.726603  0
Cl  Cl53  1  0.81675987  0.50682878  0.83977509  1  0  -0.038002  0  1.536208  0  0  -0.025334  0  1.802246  0  0  -0.027092  0  1.795863  0  0  0.041589  -0.024107  0  1.80687  0
Cl  Cl54  1  0.18323744  0.49316842  0.16022519  1  0  -0.037993  0  1.536203  0  0  -0.02533  0  1.802228  0  0  -0.027085  0  1.795837  0  0  0.041587  -0.024103  0  1.80685  0
Cl  Cl55  1  0.29328917  0.73521502  0.95261469  1  0  -0.023687  0  1.486751  0  0  -0.006483  0  1.738128  0  0  -0.00825  0  1.732385  0  0  0.039171  -0.00522  0  1.741047  0
Cl  Cl56  1  0.70671054  0.26478219  0.04738566  1  0  -0.023681  0  1.486853  0  0  -0.00648  0  1.73824  0  0  -0.008246  0  1.732489  0  0  0.039173  -0.005216  0  1.741155  0
O  O57  1  0.64772489  0.66441397  0.64649651  1  0  -0.703124  0  2.14131  0  0  -0.641158  0  2.426518  0  0  -0.665525  0  2.412154  0  0  -0.340505  -0.623835  0  2.435348  0
O  O58  1  0.35227397  0.33558438  0.35350281  1  0  -0.703081  0  2.141386  0  0  -0.641117  0  2.426606  0  0  -0.665483  0  2.412236  0  0  -0.340499  -0.6238  0  2.435437  0
O  O59  1  0.50988830  0.84391818  0.74320604  1  0  -0.639968  0  1.996736  0  0  -0.597814  0  2.243976  0  0  -0.618603  0  2.2329  0  0  -0.339525  -0.583322  0  2.250755  0
O  O60  1  0.49011094  0.15608133  0.25679431  1  0  -0.639913  0  1.996765  0  0  -0.597753  0  2.244011  0  0  -0.618539  0  2.232927  0  0  -0.339502  -0.58326  0  2.250786  0
O  O61  1  0.79397281  0.84835575  0.82532915  1  0  -0.653038  0  1.972563  0  0  -0.607684  0  2.217941  0  0  -0.628855  0  2.206425  0  0  -0.337268  -0.59252  0  2.225324  0
O  O62  1  0.20602522  0.15164377  0.17467117  1  0  -0.653024  0  1.972539  0  0  -0.607678  0  2.217951  0  0  -0.628846  0  2.206425  0  0  -0.337263  -0.592505  0  2.225312  0
O  O63  1  0.29549348  0.58447098  0.52314252  1  0  -0.560613  0  2.151687  0  0  -0.49461  0  2.427742  0  0  -0.521752  0  2.418759  0  0  -0.302682  -0.476069  0  2.433186  0
O  O64  1  0.70450974  0.41552970  0.47685897  1  0  -0.56063  0  2.151758  0  0  -0.494609  0  2.427819  0  0  -0.521751  0  2.418836  0  0  -0.30265  -0.476069  0  2.433259  0
O  O65  1  0.59350699  0.66693283  0.34772795  1  0  -0.551914  0  2.131997  0  0  -0.493747  0  2.407773  0  0  -0.519682  0  2.399935  0  0  -0.301605  -0.475616  0  2.411424  0
O  O66  1  0.40649428  0.33306552  0.65227143  1  0  -0.551911  0  2.131998  0  0  -0.493733  0  2.40776  0  0  -0.519669  0  2.399929  0  0  -0.301599  -0.475601  0  2.411407  0
