# generated using pymatgen
data_CdH6(C5N6)2
_symmetry_space_group_name_H-M   'P 1'
_cell_length_a   9.13823809
_cell_length_b   9.13821050
_cell_length_c   15.76823736
_cell_angle_alpha   90.00080100
_cell_angle_beta   90.00031886
_cell_angle_gamma   90.00054151
_symmetry_Int_Tables_number   1
_chemical_formula_structural   CdH6(C5N6)2
_chemical_formula_sum   'Cd4 H24 C40 N48'
_cell_volume   1316.76045697
_cell_formula_units_Z   4
loop_
 _symmetry_equiv_pos_site_id
 _symmetry_equiv_pos_as_xyz
  1  'x, y, z'
loop_
 _atom_site_type_symbol
 _atom_site_label
 _atom_site_symmetry_multiplicity
 _atom_site_fract_x
 _atom_site_fract_y
 _atom_site_fract_z
 _atom_site_occupancy
 _atom_site_pbe_bader_spin_density
 _atom_site_pbe_cm5_charge
 _atom_site_pbe_ddec_charge
 _atom_site_pbe_ddec_spin_density
 _atom_site_pbe_ddec_sum_bond_order
 _atom_site_pbe_magmom
Cd  Cd0  1  0.25000134  0.24999844  0.25000209  1  0  0.785373  0.664209  0  2.339155  0
Cd  Cd1  1  0.24999827  0.24999353  0.75000027  1  0  0.78536  0.66426  0  2.339021  0
Cd  Cd2  1  0.74999527  0.75000079  0.75000057  1  0  0.785381  0.664234  0  2.338987  0
Cd  Cd3  1  0.75000381  0.75000132  0.25000175  1  0  0.785308  0.664083  0  2.339135  0
H  H4  1  0.65088142  0.15087369  0.52133260  1  0  0.10888  0.11249  0  1.071784  0
H  H5  1  0.34912190  0.65087879  0.02133025  1  0  0.108877  0.112493  0  1.071803  0
H  H6  1  0.15087784  0.84911908  0.02133073  1  0  0.108885  0.112521  0  1.071767  0
H  H7  1  0.15087691  0.65088118  0.47866894  1  0  0.108875  0.112505  0  1.071775  0
H  H8  1  0.84911751  0.34912242  0.52132928  1  0  0.108869  0.112484  0  1.071815  0
H  H9  1  0.84912424  0.15088233  0.97866622  1  0  0.108878  0.112461  0  1.071818  0
H  H10  1  0.65087580  0.34911605  0.97866670  1  0  0.108857  0.112489  0  1.071786  0
H  H11  1  0.34912066  0.84911896  0.47866625  1  0  0.108855  0.112481  0  1.071774  0
H  H12  1  0.44645494  0.28012029  0.44397285  1  0  0.119188  0.082945  0  1.017381  0
H  H13  1  0.21988054  0.44645432  0.94397387  1  0  0.119201  0.082973  0  1.017359  0
H  H14  1  0.28012224  0.05354398  0.94397301  1  0  0.119194  0.082963  0  1.017389  0
H  H15  1  0.28012114  0.44645540  0.55602509  1  0  0.119207  0.083006  0  1.017308  0
H  H16  1  0.05354522  0.21988236  0.44397260  1  0  0.119207  0.082999  0  1.017338  0
H  H17  1  0.05354474  0.28012470  0.05602524  1  0  0.119215  0.082968  0  1.017284  0
H  H18  1  0.44645389  0.21988391  0.05602119  1  0  0.119213  0.082974  0  1.017326  0
H  H19  1  0.21988557  0.05354667  0.55602277  1  0  0.119217  0.082974  0  1.01735  0
H  H20  1  0.55354385  0.71988002  0.55602410  1  0  0.119205  0.082993  0  1.017348  0
H  H21  1  0.78012154  0.55354490  0.05602561  1  0  0.119204  0.083009  0  1.017345  0
H  H22  1  0.71988531  0.94645196  0.05602330  1  0  0.119233  0.082979  0  1.017388  0
H  H23  1  0.71988422  0.55355039  0.44397376  1  0  0.119208  0.082935  0  1.017373  0
H  H24  1  0.94645357  0.78011796  0.55602498  1  0  0.119225  0.083026  0  1.017404  0
H  H25  1  0.94645406  0.71988109  0.94397298  1  0  0.119206  0.083009  0  1.01732  0
H  H26  1  0.55354600  0.78011750  0.94397513  1  0  0.119222  0.083013  0  1.017334  0
H  H27  1  0.78012198  0.94645364  0.44397228  1  0  0.119201  0.082958  0  1.017332  0
C  C28  1  0.52916925  0.02917271  0.30385484  1  0  0.253984  0.314807  0  4.000364  0
C  C29  1  0.47082907  0.52916476  0.80385432  1  0  0.254013  0.31492  0  4.000426  0
C  C30  1  0.02916724  0.97083011  0.80385794  1  0  0.253993  0.314835  0  4.000526  0
C  C31  1  0.02916464  0.52917450  0.69614341  1  0  0.253931  0.314899  0  4.000411  0
C  C32  1  0.97083525  0.47083238  0.30385544  1  0  0.254056  0.314979  0  4.000284  0
C  C33  1  0.97083483  0.02916802  0.19614726  1  0  0.253977  0.314931  0  4.000344  0
C  C34  1  0.52916535  0.47083118  0.19614453  1  0  0.254073  0.315014  0  4.000212  0
C  C35  1  0.47083502  0.97082870  0.69614528  1  0  0.254016  0.314923  0  4.000368  0
C  C36  1  0.61751348  0.11750519  0.45807804  1  0  -0.080299  -0.175078  0  3.954948  0
C  C37  1  0.38248278  0.61751391  0.95807089  1  0  -0.080341  -0.175152  0  3.955288  0
C  C38  1  0.11751173  0.88248905  0.95807788  1  0  -0.080299  -0.175096  0  3.954988  0
C  C39  1  0.11751614  0.61750873  0.54192122  1  0  -0.080264  -0.17504  0  3.954911  0
C  C40  1  0.88248266  0.38248611  0.45807320  1  0  -0.080287  -0.175118  0  3.95506  0
C  C41  1  0.88249582  0.11751565  0.04192542  1  0  -0.080362  -0.175178  0  3.955137  0
C  C42  1  0.61751273  0.38248641  0.04192162  1  0  -0.080274  -0.175076  0  3.954934  0
C  C43  1  0.38248641  0.88248747  0.54192209  1  0  -0.080287  -0.17511  0  3.954948  0
C  C44  1  0.50335702  0.18710092  0.41576459  1  0  0.069444  0.15012  0  3.900736  0
C  C45  1  0.31289860  0.50336053  0.91576248  1  0  0.069397  0.150052  0  3.900875  0
C  C46  1  0.18710097  0.99664141  0.91576237  1  0  0.069377  0.150031  0  3.900674  0
C  C47  1  0.18709814  0.50336031  0.58423568  1  0  0.069319  0.149949  0  3.900808  0
C  C48  1  0.99664308  0.31289593  0.41576336  1  0  0.069379  0.150092  0  3.900512  0
C  C49  1  0.99664199  0.18710253  0.08423372  1  0  0.069419  0.150218  0  3.900662  0
C  C50  1  0.50335931  0.31290164  0.08423407  1  0  0.069346  0.150069  0  3.900794  0
C  C51  1  0.31290262  0.99664348  0.58423281  1  0  0.069328  0.150045  0  3.900713  0
C  C52  1  0.49664615  0.81289174  0.58423363  1  0  0.069394  0.150029  0  3.90048  0
C  C53  1  0.68710895  0.49664417  0.08423511  1  0  0.06938  0.150031  0  3.900576  0
C  C54  1  0.81289892  0.00335343  0.08423141  1  0  0.069315  0.150065  0  3.900633  0
C  C55  1  0.81290065  0.49664657  0.41576317  1  0  0.069366  0.150109  0  3.900652  0
C  C56  1  0.00335024  0.68710767  0.58423550  1  0  0.069317  0.149916  0  3.900514  0
C  C57  1  0.00335243  0.81289450  0.91576323  1  0  0.069304  0.149937  0  3.900456  0
C  C58  1  0.49664277  0.68710634  0.91576352  1  0  0.06938  0.150058  0  3.90054  0
C  C59  1  0.68710055  0.00335574  0.41575970  1  0  0.069338  0.150003  0  3.900895  0
C  C60  1  0.47819196  0.97819536  0.22162430  1  0  0.203557  0.161684  0  4.073722  0
C  C61  1  0.52180106  0.47818904  0.72161926  1  0  0.203465  0.161389  0  4.07382  0
C  C62  1  0.97818666  0.02180643  0.72162195  1  0  0.203539  0.161595  0  4.073611  0
C  C63  1  0.97818362  0.47819078  0.77838031  1  0  0.203486  0.161388  0  4.073606  0
C  C64  1  0.02180970  0.52180625  0.22161791  1  0  0.203491  0.161437  0  4.073741  0
C  C65  1  0.02180776  0.97819607  0.27837817  1  0  0.203483  0.161306  0  4.073647  0
C  C66  1  0.47818351  0.52181019  0.27837832  1  0  0.203474  0.161396  0  4.073606  0
C  C67  1  0.52180684  0.02180606  0.77838279  1  0  0.203473  0.161418  0  4.073453  0
N  N68  1  0.45893541  0.14371382  0.33871198  1  0  -0.306502  -0.288855  0  3.380113  0
N  N69  1  0.35628932  0.45892222  0.83870937  1  0  -0.306521  -0.288856  0  3.379835  0
N  N70  1  0.14371135  0.04106260  0.83870543  1  0  -0.306483  -0.288844  0  3.379952  0
N  N71  1  0.14371467  0.45893439  0.66129160  1  0  -0.306461  -0.288882  0  3.379656  0
N  N72  1  0.04106921  0.35628848  0.33870519  1  0  -0.306516  -0.28899  0  3.379906  0
N  N73  1  0.04107611  0.14371846  0.16128881  1  0  -0.306523  -0.288952  0  3.379621  0
N  N74  1  0.45893557  0.35628393  0.16128971  1  0  -0.306512  -0.288948  0  3.379955  0
N  N75  1  0.35628977  0.04106256  0.66129279  1  0  -0.306464  -0.288899  0  3.37979  0
N  N76  1  0.54107323  0.85629197  0.66129132  1  0  -0.306497  -0.288804  0  3.379852  0
N  N77  1  0.64371276  0.54106935  0.16129202  1  0  -0.306518  -0.288918  0  3.379647  0
N  N78  1  0.85628853  0.95893991  0.16129025  1  0  -0.306442  -0.288898  0  3.379922  0
N  N79  1  0.85629726  0.54107468  0.33870852  1  0  -0.306545  -0.288889  0  3.379755  0
N  N80  1  0.95893067  0.64370856  0.66129176  1  0  -0.306409  -0.288742  0  3.380061  0
N  N81  1  0.95892925  0.85628733  0.83870370  1  0  -0.306467  -0.288795  0  3.379793  0
N  N82  1  0.54106323  0.64371310  0.83870344  1  0  -0.306526  -0.28893  0  3.379822  0
N  N83  1  0.64372543  0.95893995  0.33870543  1  0  -0.306547  -0.288911  0  3.379879  0
N  N84  1  0.46028257  0.85712641  0.10606997  1  0  -0.097279  -0.08165  0  3.224385  0
N  N85  1  0.64289816  0.46025254  0.60607381  1  0  -0.097258  -0.08169  0  3.224408  0
N  N86  1  0.85711252  0.03972592  0.60607246  1  0  -0.097324  -0.081775  0  3.224412  0
N  N87  1  0.85711261  0.46027672  0.89393512  1  0  -0.097403  -0.081983  0  3.224686  0
N  N88  1  0.03972893  0.64288335  0.10606525  1  0  -0.097256  -0.081748  0  3.224506  0
N  N89  1  0.03972476  0.85712461  0.39393977  1  0  -0.097286  -0.081741  0  3.224481  0
N  N90  1  0.46027527  0.64287677  0.39393894  1  0  -0.097282  -0.081661  0  3.224431  0
N  N91  1  0.64289756  0.03973385  0.89393307  1  0  -0.097274  -0.081797  0  3.224524  0
N  N92  1  0.53972279  0.14287062  0.89394411  1  0  -0.097215  -0.081695  0  3.224589  0
N  N93  1  0.35711267  0.53972371  0.39393836  1  0  -0.097365  -0.082009  0  3.224481  0
N  N94  1  0.14287970  0.96028315  0.39394035  1  0  -0.097286  -0.081735  0  3.22441  0
N  N95  1  0.14288181  0.53972360  0.10606373  1  0  -0.097304  -0.081749  0  3.224462  0
N  N96  1  0.96027424  0.35712572  0.89393614  1  0  -0.097233  -0.08161  0  3.2246  0
N  N97  1  0.96028498  0.14286805  0.60606670  1  0  -0.097257  -0.081706  0  3.224534  0
N  N98  1  0.53970820  0.35712792  0.60605611  1  0  -0.097259  -0.081746  0  3.224244  0
N  N99  1  0.35711984  0.96027741  0.10607085  1  0  -0.097355  -0.081841  0  3.224482  0
N  N100  1  0.53742036  0.86641174  0.17823609  1  0  -0.224156  -0.235444  0  3.418807  0
N  N101  1  0.63360715  0.53739648  0.67823817  1  0  -0.224106  -0.235296  0  3.418797  0
N  N102  1  0.86639582  0.96258367  0.67823583  1  0  -0.224164  -0.235326  0  3.418765  0
N  N103  1  0.86638903  0.53741353  0.82176759  1  0  -0.224143  -0.235171  0  3.418516  0
N  N104  1  0.96258984  0.63360449  0.17823203  1  0  -0.224199  -0.235329  0  3.418643  0
N  N105  1  0.96258507  0.86640125  0.32177153  1  0  -0.224128  -0.235228  0  3.418418  0
N  N106  1  0.53740682  0.63359765  0.32177053  1  0  -0.224087  -0.235252  0  3.418537  0
N  N107  1  0.63361203  0.96259415  0.82176576  1  0  -0.22418  -0.235294  0  3.418603  0
N  N108  1  0.46257296  0.13358639  0.82178052  1  0  -0.224226  -0.235356  0  3.418532  0
N  N109  1  0.36638836  0.46258305  0.32177020  1  0  -0.224169  -0.235144  0  3.418309  0
N  N110  1  0.13359969  0.03741993  0.32177191  1  0  -0.22414  -0.235217  0  3.418462  0
N  N111  1  0.13359116  0.46257584  0.17822619  1  0  -0.224138  -0.235319  0  3.418628  0
N  N112  1  0.03741114  0.36640568  0.82176936  1  0  -0.224158  -0.235396  0  3.418654  0
N  N113  1  0.03742576  0.13358922  0.67823240  1  0  -0.22423  -0.2355  0  3.418858  0
N  N114  1  0.46256024  0.36640814  0.67822135  1  0  -0.224202  -0.235344  0  3.418443  0
N  N115  1  0.36639661  0.03741711  0.17823880  1  0  -0.224149  -0.235371  0  3.418698  0
