# generated using pymatgen
data_NiH24C32(NO5)2
_symmetry_space_group_name_H-M   'P 1'
_cell_length_a   10.35004817
_cell_length_b   10.35003718
_cell_length_c   14.16841483
_cell_angle_alpha   87.94296877
_cell_angle_beta   87.94303406
_cell_angle_gamma   73.02995569
_symmetry_Int_Tables_number   1
_chemical_formula_structural   NiH24C32(NO5)2
_chemical_formula_sum   'Ni2 H48 C64 N4 O20'
_cell_volume   1450.23262007
_cell_formula_units_Z   2
loop_
 _symmetry_equiv_pos_site_id
 _symmetry_equiv_pos_as_xyz
  1  'x, y, z'
loop_
 _atom_site_type_symbol
 _atom_site_label
 _atom_site_symmetry_multiplicity
 _atom_site_fract_x
 _atom_site_fract_y
 _atom_site_fract_z
 _atom_site_occupancy
 _atom_site_pbe_bader_charge
 _atom_site_pbe_bader_spin_density
 _atom_site_pbe_cm5_charge
 _atom_site_pbe_ddec_charge
 _atom_site_pbe_ddec_spin_density
 _atom_site_pbe_ddec_sum_bond_order
 _atom_site_pbe_magmom
Ni  Ni0  1  0.00000050  0.50000118  0.00000145  1  1.185904  1.564773  0.650296  0.802878  1.778394  2.46645  1.552
Ni  Ni1  1  0.50000173  0.00000091  0.49999921  1  1.185848  1.564769  0.650315  0.802968  1.778394  2.466267  1.552
H  H2  1  0.41925031  0.21541860  0.17086481  1  0.084434  0.000382  0.107731  0.112863  0.000184  0.989061  0.0
H  H3  1  0.78458462  0.58074413  0.32913361  1  0.084544  0.000382  0.10769  0.112816  0.000184  0.989065  0.0
H  H4  1  0.58074401  0.78457894  0.82913406  1  0.084472  0.000382  0.107697  0.112828  0.000184  0.989063  0.0
H  H5  1  0.21541882  0.41925652  0.67086499  1  0.084542  0.000382  0.107718  0.112867  0.000184  0.989034  0.0
H  H6  1  0.60677386  0.00265604  0.17072779  1  0.074223  0.000263  0.107082  0.108939  0.00015  1.016411  0.0
H  H7  1  0.99734910  0.39322444  0.32926785  1  0.074165  0.000263  0.107085  0.10895  0.00015  1.016462  0.0
H  H8  1  0.39322454  0.99734323  0.82926743  1  0.074302  0.000263  0.107075  0.108934  0.00015  1.01649  0.0
H  H9  1  0.00265435  0.60677718  0.67073003  1  0.074176  0.000263  0.107073  0.108917  0.00015  1.01642  0.0
H  H10  1  0.35060027  0.80240696  0.04276607  1  0.100058  6e-06  0.1057  0.105424  -4.1e-05  1.033803  0.0
H  H11  1  0.19759177  0.64940100  0.45723275  1  0.100069  6e-06  0.105704  0.10542  -4.1e-05  1.033788  0.0
H  H12  1  0.64940219  0.19759114  0.95722556  1  0.099995  6e-06  0.105725  0.105472  -4.1e-05  1.033743  0.0
H  H13  1  0.80240860  0.35059955  0.54277087  1  0.099971  6e-06  0.105738  0.105435  -4.1e-05  1.033808  0.0
H  H14  1  0.99879768  0.13513188  0.14126816  1  0.075588  5.8e-05  0.101918  0.105249  2.3e-05  1.00952  0.0
H  H15  1  0.86486402  0.00120642  0.35872907  1  0.075435  5.8e-05  0.101929  0.105283  2.3e-05  1.009531  0.0
H  H16  1  0.00120582  0.86486498  0.85871924  1  0.075292  5.8e-05  0.101909  0.105319  2.3e-05  1.009469  0.0
H  H17  1  0.13513430  0.99879181  0.64127676  1  0.075361  5.8e-05  0.101936  0.105318  2.3e-05  1.009512  0.0
H  H18  1  0.21498443  0.88146602  0.91758006  1  0.08401  6.9e-05  0.104447  0.108682  3.5e-05  0.991991  0.0
H  H19  1  0.11853354  0.78501372  0.58241317  1  0.08406  6.9e-05  0.104396  0.108657  3.5e-05  0.992041  0.0
H  H20  1  0.78501806  0.11853211  0.08240663  1  0.084195  6.9e-05  0.104384  0.108661  3.5e-05  0.992135  0.0
H  H21  1  0.88146580  0.21498422  0.41759193  1  0.084136  6.9e-05  0.104378  0.108656  3.5e-05  0.992076  0.0
H  H22  1  0.28971207  0.47040296  0.04920665  1  0.178525  0.001724  0.120367  0.106065  0.000547  1.025448  0.001
H  H23  1  0.52960137  0.71029184  0.45079845  1  0.179088  0.001724  0.120373  0.106069  0.000547  1.025536  0.001
H  H24  1  0.71028726  0.52959497  0.95080057  1  0.179214  0.001724  0.120395  0.106105  0.000547  1.02547  0.001
H  H25  1  0.47040107  0.28971585  0.54920285  1  0.178409  0.001724  0.120395  0.106145  0.000547  1.025496  0.001
H  H26  1  0.40766745  0.56610660  0.16630671  1  0.118476  0.001046  0.112246  0.126187  0.000508  0.992977  0.0
H  H27  1  0.43389265  0.59233241  0.33370283  1  0.118503  0.001046  0.112224  0.126204  0.000508  0.99291  0.0
H  H28  1  0.59233185  0.43388745  0.83370272  1  0.118474  0.001046  0.112226  0.126208  0.000508  0.992939  0.0
H  H29  1  0.56611075  0.40766917  0.66630210  1  0.118439  0.001046  0.11225  0.126209  0.000508  0.992917  0.0
H  H30  1  0.02060464  0.84815351  0.23834970  1  0.104927  0.000887  0.104946  0.107773  0.000422  1.026076  0.0
H  H31  1  0.15184752  0.97939553  0.26165600  1  0.104688  0.000887  0.104904  0.107683  0.000422  1.026111  0.0
H  H32  1  0.97939574  0.15184704  0.76165391  1  0.104975  0.000887  0.104914  0.107681  0.000422  1.026072  0.0
H  H33  1  0.84815082  0.02060273  0.73834701  1  0.104853  0.000887  0.1049  0.107633  0.000422  1.026133  0.0
H  H34  1  0.91890642  0.73867514  0.12008492  1  0.156267  0.001723  0.11603  0.090113  0.000551  1.038832  0.001
H  H35  1  0.26132713  0.08109753  0.37991755  1  0.156221  0.001724  0.116004  0.090085  0.000552  1.038831  0.001
H  H36  1  0.08109599  0.26132578  0.87991723  1  0.15624  0.001724  0.116013  0.0901  0.000552  1.038839  0.001
H  H37  1  0.73867126  0.91890557  0.62008182  1  0.156263  0.001724  0.116027  0.090117  0.000552  1.038818  0.001
H  H38  1  0.68811411  0.79717864  0.22146472  1  0.667768  -4.7e-05  0.298544  0.360241  -5e-05  0.99244  0.0
H  H39  1  0.20282537  0.31188382  0.27853490  1  0.667809  -4.7e-05  0.298535  0.360269  -5e-05  0.992443  0.0
H  H40  1  0.31188324  0.20281993  0.77853547  1  0.668059  -4.7e-05  0.29854  0.360269  -5e-05  0.992406  0.0
H  H41  1  0.79717503  0.68811771  0.72146517  1  0.667764  -4.7e-05  0.298535  0.360247  -5e-05  0.992452  0.0
H  H42  1  0.82023924  0.55521263  0.14290874  1  0.626097  0.000425  0.298661  0.384825  0.000508  0.945847  0.0
H  H43  1  0.44478829  0.17976139  0.35709175  1  0.626106  0.000425  0.298659  0.384854  0.000509  0.945811  0.0
H  H44  1  0.17976014  0.44478824  0.85709136  1  0.626113  0.000425  0.298625  0.384746  0.000509  0.945928  0.0
H  H45  1  0.55521313  0.82024177  0.64290897  1  0.626106  0.000425  0.298661  0.384796  0.000509  0.945888  0.0
H  H46  1  0.95402487  0.43109652  0.16282625  1  0.634693  -0.000188  0.289894  0.368997  -9.9e-05  0.975523  0.0
H  H47  1  0.56890172  0.04597576  0.33717369  1  0.634695  -0.000188  0.289893  0.369015  -9.9e-05  0.975499  0.0
H  H48  1  0.04597551  0.56890404  0.83717525  1  0.634701  -0.000188  0.289904  0.369033  -9.9e-05  0.975482  0.0
H  H49  1  0.43109363  0.95402438  0.66282369  1  0.634717  -0.000188  0.289919  0.369028  -9.9e-05  0.975483  0.0
C  C50  1  0.16878579  0.26275086  0.10948631  1  1.574616  -0.002056  0.223803  0.588688  -0.00306  4.180953  -0.003
C  C51  1  0.73724532  0.83120834  0.39051287  1  1.574635  -0.002056  0.223753  0.588682  -0.00306  4.18091  -0.003
C  C52  1  0.83120952  0.73724253  0.89051193  1  1.574654  -0.002056  0.223798  0.588713  -0.00306  4.180721  -0.003
C  C53  1  0.26275100  0.16878570  0.60948675  1  1.574597  -0.002056  0.223786  0.588721  -0.00306  4.180852  -0.003
C  C54  1  0.27692722  0.12925071  0.10954385  1  -0.044053  0.005491  -0.004303  -0.056557  0.00307  3.912485  0.004
C  C55  1  0.87074901  0.72306916  0.39045529  1  -0.0442  0.005492  -0.004264  -0.056608  0.003071  3.912622  0.004
C  C56  1  0.72306913  0.87074625  0.89045216  1  -0.04333  0.005491  -0.004239  -0.056523  0.003071  3.912589  0.004
C  C57  1  0.12925237  0.27692820  0.60954696  1  -0.043963  0.005491  -0.004277  -0.056567  0.00307  3.912563  0.004
C  C58  1  0.40337219  0.12380222  0.14429288  1  -0.019837  0.002932  -0.087271  -0.100735  0.0016  3.976107  0.002
C  C59  1  0.87620014  0.59662544  0.35570412  1  -0.020043  0.002932  -0.087189  -0.100556  0.0016  3.976084  0.002
C  C60  1  0.59662417  0.87619665  0.85570522  1  -0.01998  0.002932  -0.087234  -0.100695  0.0016  3.976236  0.002
C  C61  1  0.12380230  0.40337552  0.64429309  1  -0.01996  0.002932  -0.087232  -0.100717  0.0016  3.976173  0.002
C  C62  1  0.50905950  0.00426658  0.14390648  1  -0.03473  -0.000163  -0.083795  -0.091032  -0.000353  3.97648  0.0
C  C63  1  0.99573776  0.49093767  0.35609199  1  -0.034622  -0.000163  -0.083786  -0.091076  -0.000352  3.976584  0.0
C  C64  1  0.49093687  0.99573424  0.85609016  1  -0.034837  -0.000163  -0.083763  -0.091046  -0.000352  3.976649  0.0
C  C65  1  0.00426466  0.50906231  0.64390736  1  -0.034725  -0.000163  -0.083811  -0.091024  -0.000352  3.976525  0.0
C  C66  1  0.48847040  0.88751227  0.10835795  1  -0.009562  0.002672  -0.021343  -0.055475  0.001453  4.01591  0.002
C  C67  1  0.11249012  0.51152556  0.39164233  1  -0.00946  0.002672  -0.021402  -0.05556  0.001453  4.015831  0.002
C  C68  1  0.51152699  0.11248633  0.89163730  1  -0.009561  0.002672  -0.021346  -0.055446  0.001453  4.01574  0.002
C  C69  1  0.88751128  0.48847470  0.60835844  1  -0.009473  0.002672  -0.02138  -0.055532  0.001453  4.015762  0.002
C  C70  1  0.36378103  0.89462059  0.07009544  1  -0.076157  -6.4e-05  -0.077153  -0.134017  -0.000278  3.955973  0.0
C  C71  1  0.10538116  0.63621876  0.42990049  1  -0.076087  -6.4e-05  -0.077195  -0.134004  -0.000278  3.955937  0.0
C  C72  1  0.63621738  0.10538061  0.92989832  1  -0.076071  -6.4e-05  -0.077229  -0.134117  -0.000278  3.955906  0.0
C  C73  1  0.89461820  0.36378112  0.57010246  1  -0.075983  -6.4e-05  -0.077233  -0.134033  -0.000278  3.955957  0.0
C  C74  1  0.25576426  0.01340809  0.07048764  1  0.042697  0.001815  -0.003748  0.038816  0.000978  3.968027  0.001
C  C75  1  0.98659355  0.74423474  0.42950791  1  0.04284  0.001814  -0.003823  0.038699  0.000978  3.968027  0.001
C  C76  1  0.74423418  0.98659315  0.92950118  1  0.042521  0.001815  -0.003798  0.038689  0.000978  3.968018  0.001
C  C77  1  0.01340580  0.25576417  0.57049576  1  0.04303  0.001815  -0.00376  0.038749  0.000978  3.968021  0.001
C  C78  1  0.12456434  0.01002867  0.03381404  1  0.021011  9.2e-05  -0.008399  0.064489  3.8e-05  3.999216  0.0
C  C79  1  0.98996842  0.87543298  0.46618371  1  0.020976  9.3e-05  -0.008273  0.064684  3.8e-05  3.999279  0.0
C  C80  1  0.87543513  0.98997421  0.96617331  1  0.020122  9.3e-05  -0.008243  0.0648  3.8e-05  3.999236  0.0
C  C81  1  0.01002585  0.12456451  0.53382293  1  0.02006  9.3e-05  -0.008239  0.064755  3.8e-05  3.999076  0.0
C  C82  1  0.00067873  0.07647646  0.07855724  1  -0.089564  0.000112  -0.088079  -0.11722  2.1e-05  3.970791  0.0
C  C83  1  0.92352917  0.99931943  0.42143529  1  -0.089251  0.000112  -0.088111  -0.117307  2.1e-05  3.97077  0.0
C  C84  1  0.99932275  0.92352293  0.92142943  1  -0.0892  0.000112  -0.088134  -0.11745  2.1e-05  3.970755  0.0
C  C85  1  0.07647322  0.00067763  0.57856765  1  -0.089209  0.000112  -0.088132  -0.117397  2.1e-05  3.970774  0.0
C  C86  1  0.12089161  0.93333820  0.95457841  1  -0.068052  -5e-06  -0.088261  -0.117213  -2e-05  3.959261  0.0
C  C87  1  0.06666294  0.87910756  0.54541541  1  -0.068289  -5e-06  -0.088315  -0.117339  -2e-05  3.959315  0.0
C  C88  1  0.87911089  0.06666187  0.04540682  1  -0.068284  -5e-06  -0.088298  -0.117388  -2e-05  3.959554  0.0
C  C89  1  0.93333539  0.12088971  0.45458902  1  -0.068311  -5e-06  -0.088292  -0.117351  -2e-05  3.959225  0.0
C  C90  1  0.59161700  0.75242650  0.10933029  1  1.510839  0.000651  0.230336  0.579403  0.00039  4.103648  0.0
C  C91  1  0.24758030  0.40837985  0.39067280  1  1.510758  0.000651  0.230357  0.579419  0.00039  4.103913  0.0
C  C92  1  0.40838239  0.24757725  0.89067116  1  1.510877  0.000651  0.230284  0.57941  0.00039  4.10378  0.0
C  C93  1  0.75242111  0.59161947  0.60932588  1  1.510748  0.000651  0.230294  0.579326  0.00039  4.104008  0.0
C  C94  1  0.23348663  0.55170922  0.09473106  1  0.451711  -0.00367  0.048905  0.102357  -0.004323  3.905956  -0.002
C  C95  1  0.44829147  0.76651538  0.40527763  1  0.451797  -0.003671  0.048793  0.102226  -0.004324  3.905978  -0.002
C  C96  1  0.76651368  0.44828646  0.90527831  1  0.451509  -0.003671  0.048814  0.102295  -0.004323  3.905876  -0.002
C  C97  1  0.55170993  0.23348874  0.59472518  1  0.451806  -0.00367  0.048794  0.102136  -0.004323  3.906009  -0.002
C  C98  1  0.29839386  0.60566388  0.16051063  1  -0.072607  0.004531  -0.08079  -0.169571  0.002508  3.925396  0.004
C  C99  1  0.39434144  0.70160566  0.33949661  1  -0.072971  0.004532  -0.080652  -0.169561  0.002508  3.925269  0.004
C  C100  1  0.70160550  0.39433985  0.83949505  1  -0.072941  0.004532  -0.08068  -0.169639  0.002508  3.925273  0.004
C  C101  1  0.60565994  0.29839458  0.66050841  1  -0.072533  0.004531  -0.080701  -0.169537  0.002508  3.925347  0.004
C  C102  1  0.22325481  0.71415937  0.21488760  1  -0.031777  -0.005751  0.009149  0.096989  -0.006393  3.990814  -0.004
C  C103  1  0.28584223  0.77674436  0.28512177  1  0.007244  -0.005729  0.009173  0.097178  -0.006394  3.990739  -0.004
C  C104  1  0.77674455  0.28584340  0.78511740  1  0.007195  -0.005729  0.009143  0.097112  -0.006393  3.990756  -0.004
C  C105  1  0.71415610  0.22325580  0.71488472  1  -0.031596  -0.005752  0.009083  0.096937  -0.006393  3.990942  -0.004
C  C106  1  0.08454583  0.76405719  0.19870419  1  -0.040324  0.004382  -0.08236  -0.16651  0.00245  3.954744  0.004
C  C107  1  0.23594252  0.91545393  0.30130372  1  -0.040462  0.004383  -0.082276  -0.166438  0.002451  3.954678  0.004
C  C108  1  0.91545349  0.23593881  0.80130308  1  -0.040676  0.004383  -0.082255  -0.166308  0.002451  3.954627  0.004
C  C109  1  0.76405685  0.08454692  0.69869920  1  -0.040663  0.004383  -0.082221  -0.16623  0.002451  3.954621  0.004
C  C110  1  0.02658234  0.70308459  0.13332433  1  0.447266  -0.003826  0.04403  0.092573  -0.004557  3.943484  -0.003
C  C111  1  0.29691754  0.97341912  0.36668067  1  0.447616  -0.003828  0.044016  0.092587  -0.004558  3.943465  -0.003
C  C112  1  0.97342008  0.29691730  0.86667710  1  0.447557  -0.003827  0.043989  0.092476  -0.004557  3.943447  -0.003
C  C113  1  0.70308082  0.02658203  0.63332156  1  0.447648  -0.003828  0.043941  0.092405  -0.004558  3.943427  -0.003
N  N114  1  0.09907994  0.59754968  0.08266777  1  -1.213242  0.069055  -0.330759  -0.230049  0.040034  3.58259  0.062
N  N115  1  0.40245319  0.90092411  0.41733652  1  -1.213406  0.069057  -0.330761  -0.230012  0.040034  3.582596  0.062
N  N116  1  0.90092246  0.40245124  0.91733508  1  -1.213297  0.069059  -0.330749  -0.229968  0.040035  3.582449  0.062
N  N117  1  0.59754722  0.09908031  0.58266489  1  -1.213303  0.069057  -0.330728  -0.229881  0.040034  3.582418  0.062
O  O118  1  0.13481966  0.31560921  0.02896774  1  -1.125701  0.065915  -0.288201  -0.512556  0.037071  2.404074  0.062
O  O119  1  0.68439207  0.86518333  0.47103180  1  -1.125702  0.065918  -0.288176  -0.512557  0.037072  2.403991  0.062
O  O120  1  0.86518175  0.68439203  0.97103160  1  -1.125679  0.065916  -0.288204  -0.51256  0.037071  2.403919  0.062
O  O121  1  0.31561037  0.13482147  0.52896815  1  -1.125675  0.065916  -0.288192  -0.51258  0.037071  2.404022  0.062
O  O122  1  0.11897791  0.31418645  0.18844894  1  -1.194526  -7.4e-05  -0.315883  -0.579113  -0.001102  2.257357  0.0
O  O123  1  0.68581189  0.88102242  0.31155142  1  -1.194553  -7.4e-05  -0.315862  -0.579084  -0.001103  2.257303  0.0
O  O124  1  0.88102550  0.68580840  0.81155049  1  -1.194578  -7.4e-05  -0.315887  -0.579111  -0.001103  2.257253  0.0
O  O125  1  0.31418342  0.11897385  0.68844958  1  -1.194542  -7.4e-05  -0.315879  -0.579128  -0.001102  2.257294  0.0
O  O126  1  0.58379752  0.66133200  0.05874576  1  -1.14152  0.000872  -0.28323  -0.472701  0.000433  2.128085  0.001
O  O127  1  0.33866277  0.41619410  0.44125633  1  -1.141462  0.000872  -0.283124  -0.472542  0.000432  2.12849  0.001
O  O128  1  0.41619879  0.33865818  0.94125323  1  -1.141501  0.000872  -0.28314  -0.472582  0.000432  2.128461  0.001
O  O129  1  0.66133863  0.58380713  0.55874443  1  -1.141439  0.000872  -0.283075  -0.472472  0.000432  2.128499  0.001
O  O130  1  0.69520937  0.72930490  0.16906998  1  -1.193392  0.000518  -0.334567  -0.51499  0.000187  2.380229  0.0
O  O131  1  0.27069799  0.30478819  0.33092900  1  -1.193484  0.000518  -0.334589  -0.515079  0.000187  2.38023  0.0
O  O132  1  0.30479002  0.27069405  0.83092805  1  -1.193721  0.000518  -0.334579  -0.515072  0.000187  2.380119  0.0
O  O133  1  0.72930544  0.69521149  0.66906963  1  -1.19345  0.000518  -0.334587  -0.515043  0.000187  2.380271  0.0
O  O134  1  0.87982326  0.46991693  0.11847446  1  -1.210433  0.067821  -0.570827  -0.732419  0.037914  2.157272  0.058
O  O135  1  0.53008396  0.12017577  0.38152611  1  -1.21045  0.067823  -0.570818  -0.732481  0.037915  2.157243  0.058
O  O136  1  0.12017713  0.53008459  0.88152701  1  -1.210451  0.067822  -0.570793  -0.732352  0.037915  2.15738  0.058
O  O137  1  0.46991847  0.87982422  0.61847112  1  -1.210444  0.067823  -0.570855  -0.732436  0.037915  2.157248  0.058
