# generated using pymatgen
data_CdH15C20N5O9
_symmetry_space_group_name_H-M   'P 1'
_cell_length_a   7.90090116
_cell_length_b   8.64074891
_cell_length_c   15.80937199
_cell_angle_alpha   94.96804688
_cell_angle_beta   99.71048209
_cell_angle_gamma   100.14787988
_symmetry_Int_Tables_number   1
_chemical_formula_structural   CdH15C20N5O9
_chemical_formula_sum   'Cd2 H30 C40 N10 O18'
_cell_volume   1039.64272459
_cell_formula_units_Z   2
loop_
 _symmetry_equiv_pos_site_id
 _symmetry_equiv_pos_as_xyz
  1  'x, y, z'
loop_
 _atom_site_type_symbol
 _atom_site_label
 _atom_site_symmetry_multiplicity
 _atom_site_fract_x
 _atom_site_fract_y
 _atom_site_fract_z
 _atom_site_occupancy
 _atom_site_hle17_bader_spin_density
 _atom_site_hle17_ddec_charge
 _atom_site_hle17_ddec_spin_density
 _atom_site_hle17_ddec_sum_bond_order
 _atom_site_hle17_magmom
 _atom_site_hse06_10hf_bader_spin_density
 _atom_site_hse06_10hf_ddec_charge
 _atom_site_hse06_10hf_ddec_spin_density
 _atom_site_hse06_10hf_ddec_sum_bond_order
 _atom_site_hse06_10hf_magmom
 _atom_site_hse06_bader_spin_density
 _atom_site_hse06_ddec_charge
 _atom_site_hse06_ddec_spin_density
 _atom_site_hse06_ddec_sum_bond_order
 _atom_site_hse06_magmom
 _atom_site_pbe_bader_spin_density
 _atom_site_pbe_cm5_charge
 _atom_site_pbe_ddec_charge
 _atom_site_pbe_ddec_spin_density
 _atom_site_pbe_ddec_sum_bond_order
 _atom_site_pbe_magmom
Cd  Cd0  1  0.88199811  0.04590742  0.34659032  1  0  1.201874  0  1.604221  0  0  1.020159  0  2.047377  0  0  1.079224  0  1.988485  0  0  0.774411  0.977957  0  2.087829  0
Cd  Cd1  1  0.11800239  0.95409558  0.65340694  1  0  1.201868  0  1.604257  0  0  1.020147  0  2.047401  0  0  1.079197  0  1.988532  0  0  0.774386  0.977951  0  2.08786  0
H  H2  1  0.13344015  0.35336547  0.19156726  1  0  0.358796  0  0.815975  0  0  0.34081  0  0.870859  0  0  0.348634  0  0.864419  0  0  0.348893  0.33519  0  0.875743  0
H  H3  1  0.86656550  0.64663362  0.80843774  1  0  0.358826  0  0.81597  0  0  0.340851  0  0.870833  0  0  0.348668  0  0.864406  0  0  0.348916  0.335226  0  0.875725  0
H  H4  1  0.49032619  0.74593903  0.15960387  1  0  0.329111  0  0.936736  0  0  0.300409  0  1.010815  0  0  0.311224  0  1.002701  0  0  0.299253  0.292847  0  1.016466  0
H  H5  1  0.50967978  0.25406137  0.84040066  1  0  0.329179  0  0.936719  0  0  0.300461  0  1.010816  0  0  0.311276  0  1.002699  0  0  0.299287  0.292895  0  1.016474  0
H  H6  1  0.32243990  0.16387702  0.25052435  1  0  0.41216  0  0.876332  0  0  0.379591  0  0.96038  0  0  0.391806  0  0.943843  0  0  0.303836  0.370984  0  0.969783  0
H  H7  1  0.67755416  0.83609843  0.74947775  1  0  0.412161  0  0.876316  0  0  0.379677  0  0.960247  0  0  0.391894  0  0.943706  0  0  0.303879  0.371069  0  0.969652  0
H  H8  1  0.75121946  0.85615606  0.46459453  1  0  0.419028  0  0.889578  0  0  0.385598  0  0.957528  0  0  0.39661  0  0.941808  0  0  0.28265  0.377801  0  0.968644  0
H  H9  1  0.24877649  0.14385079  0.53540713  1  0  0.419068  0  0.889538  0  0  0.385681  0  0.957442  0  0  0.3967  0  0.941709  0  0  0.282654  0.377882  0  0.968563  0
H  H10  1  0.61036500  0.95093877  0.41618904  1  0  0.409493  0  0.906782  0  0  0.374884  0  0.977241  0  0  0.386954  0  0.959917  0  0  0.277942  0.366374  0  0.989416  0
H  H11  1  0.38963166  0.04906492  0.58381046  1  0  0.409548  0  0.906752  0  0  0.374935  0  0.977201  0  0  0.387003  0  0.959881  0  0  0.277948  0.366423  0  0.989378  0
H  H12  1  0.81446535  0.98494305  0.03378884  1  0  0.118877  0  0.950011  0  0  0.126845  0  1.014924  0  0  0.130706  0  1.012271  0  0  0.112289  0.124066  0  1.016938  0
H  H13  1  0.18553899  0.01506060  0.96621141  1  0  0.11888  0  0.950126  0  0  0.126853  0  1.01503  0  0  0.130714  0  1.012376  0  0  0.112299  0.124073  0  1.017042  0
H  H14  1  0.18333739  0.50324769  0.48809247  1  0  0.119312  0  0.932361  0  0  0.126819  0  0.996005  0  0  0.131142  0  0.993058  0  0  0.111275  0.12369  0  0.998283  0
H  H15  1  0.81666393  0.49675897  0.51190461  1  0  0.119269  0  0.932289  0  0  0.12676  0  0.995959  0  0  0.131081  0  0.993015  0  0  0.111265  0.123632  0  0.998231  0
H  H16  1  0.29588164  0.93190196  0.33798250  1  0  0.133403  0  0.955412  0  0  0.139349  0  1.020628  0  0  0.142796  0  1.015855  0  0  0.14625  0.136551  0  1.02393  0
H  H17  1  0.70411457  0.06809428  0.66201811  1  0  0.13341  0  0.955352  0  0  0.139292  0  1.020645  0  0  0.142771  0  1.01583  0  0  0.14622  0.136495  0  1.023948  0
H  H18  1  0.80894142  0.63349001  0.32998076  1  0  0.103971  0  0.91075  0  0  0.117385  0  0.962566  0  0  0.118855  0  0.961111  0  0  0.142484  0.116166  0  0.963766  0
H  H19  1  0.19105281  0.36650282  0.67001867  1  0  0.103929  0  0.910725  0  0  0.117362  0  0.962527  0  0  0.118831  0  0.96107  0  0  0.1425  0.116143  0  0.963723  0
H  H20  1  0.37348620  0.51684601  0.32993696  1  0  0.124439  0  0.956508  0  0  0.129935  0  1.023909  0  0  0.131496  0  1.023092  0  0  0.125249  0.12871  0  1.024091  0
H  H21  1  0.62652746  0.48316024  0.67006892  1  0  0.124407  0  0.956473  0  0  0.129914  0  1.023898  0  0  0.131474  0  1.023086  0  0  0.125246  0.128701  0  1.024064  0
H  H22  1  0.47366630  0.70990917  0.31113609  1  0  0.152224  0  0.920676  0  0  0.162319  0  0.978185  0  0  0.165367  0  0.975184  0  0  0.135176  0.159977  0  0.98002  0
H  H23  1  0.52633114  0.29009350  0.68886848  1  0  0.15223  0  0.920684  0  0  0.162354  0  0.978165  0  0  0.1654  0  0.975168  0  0  0.135182  0.160009  0  0.980006  0
H  H24  1  0.42743597  0.70092890  0.96623315  1  0  0.107725  0  0.974679  0  0  0.116417  0  1.036666  0  0  0.117375  0  1.038924  0  0  0.103125  0.115682  0  1.03522  0
H  H25  1  0.57256415  0.29907334  0.03376782  1  0  0.107717  0  0.974704  0  0  0.11641  0  1.036688  0  0  0.117369  0  1.038946  0  0  0.103125  0.115675  0  1.035243  0
H  H26  1  0.24892987  0.51589059  0.84042463  1  0  0.097743  0  0.942752  0  0  0.108677  0  1.001193  0  0  0.111449  0  0.999881  0  0  0.103619  0.106605  0  1.002334  0
H  H27  1  0.75108468  0.48410109  0.15957603  1  0  0.097732  0  0.942909  0  0  0.108661  0  1.001332  0  0  0.111394  0  1.000063  0  0  0.103599  0.106586  0  1.002475  0
H  H28  1  0.04899050  0.27242669  0.86231529  1  0  0.101099  0  0.950027  0  0  0.110139  0  1.012137  0  0  0.11222  0  1.012369  0  0  0.101833  0.10853  0  1.0122  0
H  H29  1  0.95103080  0.72756172  0.13769016  1  0  0.101079  0  0.949913  0  0  0.110157  0  1.011963  0  0  0.112237  0  1.012198  0  0  0.101812  0.108536  0  1.012037  0
H  H30  1  0.00717294  0.21383566  0.00872391  1  0  0.121999  0  0.954927  0  0  0.128433  0  1.020755  0  0  0.131327  0  1.019288  0  0  0.109368  0.126317  0  1.02191  0
H  H31  1  0.99284142  0.78616744  0.99127981  1  0  0.122033  0  0.954737  0  0  0.128463  0  1.020595  0  0  0.131352  0  1.01913  0  0  0.109379  0.126347  0  1.02175  0
C  C32  1  0.68034732  0.00546904  0.17611337  1  0  0.662418  0  3.923632  0  0  0.609074  0  4.224437  0  0  0.643387  0  4.216711  0  0  0.205392  0.585767  0  4.228929  0
C  C33  1  0.31964869  0.99453204  0.82388707  1  0  0.662146  0  3.923858  0  0  0.608913  0  4.224451  0  0  0.643223  0  4.216729  0  0  0.205388  0.585609  0  4.228935  0
C  C34  1  0.67672740  0.99305567  0.01890767  1  0  -0.091452  0  3.708039  0  0  -0.125284  0  3.963267  0  0  -0.124976  0  3.979983  0  0  -0.076181  -0.125439  0  3.952177  0
C  C35  1  0.32326862  0.00693295  0.98108896  1  0  -0.091517  0  3.708281  0  0  -0.125402  0  3.963502  0  0  -0.125094  0  3.980216  0  0  -0.07628  -0.125557  0  3.952407  0
C  C36  1  0.58577319  0.01181394  0.08631553  1  0  -0.046681  0  3.711789  0  0  -0.034249  0  3.951376  0  0  -0.035835  0  3.966585  0  0  -0.004954  -0.033503  0  3.941377  0
C  C37  1  0.41422758  0.98817390  0.91368530  1  0  -0.046511  0  3.711905  0  0  -0.033983  0  3.951236  0  0  -0.035566  0  3.966447  0  0  -0.004833  -0.033237  0  3.941236  0
C  C38  1  0.40697528  0.02006762  0.06742646  1  0  -0.077471  0  3.734268  0  0  -0.066711  0  3.976918  0  0  -0.070792  0  3.994325  0  0  -0.011744  -0.064087  0  3.965354  0
C  C39  1  0.59301913  0.97991971  0.93257052  1  0  -0.077465  0  3.734618  0  0  -0.066708  0  3.977229  0  0  -0.070791  0  3.994637  0  0  -0.011797  -0.064087  0  3.965673  0
C  C40  1  0.30076028  0.04982938  0.13523006  1  0  0.640943  0  3.837531  0  0  0.589695  0  4.144826  0  0  0.622512  0  4.135131  0  0  0.222505  0.567345  0  4.151029  0
C  C41  1  0.69923002  0.95016858  0.86476761  1  0  0.641134  0  3.837453  0  0  0.589782  0  4.144907  0  0  0.6226  0  4.135209  0  0  0.222521  0.567431  0  4.151117  0
C  C42  1  0.23507648  0.24849003  0.39735428  1  0  0.687899  0  3.887803  0  0  0.625889  0  4.195695  0  0  0.661498  0  4.185316  0  0  0.21834  0.60154  0  4.202232  0
C  C43  1  0.76492394  0.75151217  0.60264099  1  0  0.687809  0  3.8879  0  0  0.625828  0  4.195715  0  0  0.661413  0  4.185368  0  0  0.218246  0.601482  0  4.202247  0
C  C44  1  0.32227750  0.50107103  0.49383943  1  0  -0.083614  0  3.696673  0  0  -0.120324  0  3.955948  0  0  -0.11983  0  3.972418  0  0  -0.080127  -0.120566  0  3.944934  0
C  C45  1  0.67772016  0.49893014  0.50615482  1  0  -0.083361  0  3.696479  0  0  -0.120118  0  3.955728  0  0  -0.119625  0  3.972188  0  0  -0.080001  -0.120356  0  3.944709  0
C  C46  1  0.37613732  0.37478717  0.45125905  1  0  -0.073924  0  3.754262  0  0  -0.056835  0  3.991721  0  0  -0.060186  0  4.00908  0  0  -0.012293  -0.0548  0  3.980332  0
C  C47  1  0.62386521  0.62522458  0.54873676  1  0  -0.074205  0  3.754455  0  0  -0.057076  0  3.991994  0  0  -0.06042  0  4.009363  0  0  -0.012446  -0.055038  0  3.980599  0
C  C48  1  0.55509902  0.37203199  0.45807086  1  0  -0.061982  0  3.724788  0  0  -0.051476  0  3.965564  0  0  -0.055627  0  3.984059  0  0  -0.014677  -0.048927  0  3.953367  0
C  C49  1  0.44489761  0.62797558  0.54192140  1  0  -0.061825  0  3.724485  0  0  -0.051495  0  3.965459  0  0  -0.055665  0  3.983985  0  0  -0.01463  -0.048943  0  3.953258  0
C  C50  1  0.61487641  0.22893117  0.42085550  1  0  0.650024  0  3.924103  0  0  0.59981  0  4.2179  0  0  0.634166  0  4.210596  0  0  0.201695  0.576521  0  4.222021  0
C  C51  1  0.38511932  0.77107851  0.57913816  1  0  0.650047  0  3.924047  0  0  0.599912  0  4.217789  0  0  0.634277  0  4.210479  0  0  0.201785  0.576627  0  4.221903  0
C  C52  1  0.18908883  0.82997659  0.32974903  1  0  0.183611  0  3.591237  0  0  0.106345  0  3.855669  0  0  0.130907  0  3.869187  0  0  0.169082  0.096268  0  3.848479  0
C  C53  1  0.81090905  0.17002174  0.67025323  1  0  0.183586  0  3.591417  0  0  0.106393  0  3.855817  0  0  0.130926  0  3.86931  0  0  0.169173  0.096315  0  3.848626  0
C  C54  1  0.94478319  0.67426188  0.32592537  1  0  0.217687  0  3.694951  0  0  0.16671  0  3.982808  0  0  0.179654  0  3.991808  0  0  0.156158  0.158605  0  3.974634  0
C  C55  1  0.05521263  0.32573226  0.67407372  1  0  0.217823  0  3.694896  0  0  0.166838  0  3.982778  0  0  0.179781  0  3.991779  0  0  0.156185  0.158732  0  3.974603  0
C  C56  1  0.35596301  0.61614379  0.29285479  1  0  -0.147002  0  3.639533  0  0  -0.210735  0  3.872701  0  0  -0.201509  0  3.882023  0  0  -0.03258  -0.211191  0  3.868401  0
C  C57  1  0.64403604  0.38385428  0.70714883  1  0  -0.146986  0  3.639338  0  0  -0.210761  0  3.872685  0  0  -0.201551  0  3.881998  0  0  -0.032586  -0.211224  0  3.868381  0
C  C58  1  0.31983771  0.56085468  0.19855320  1  0  0.426881  0  3.613921  0  0  0.382575  0  3.896628  0  0  0.403681  0  3.90184  0  0  0.262827  0.368944  0  3.891249  0
C  C59  1  0.68016524  0.43914940  0.80145078  1  0  0.427039  0  3.613786  0  0  0.382637  0  3.896654  0  0  0.403741  0  3.901865  0  0  0.262716  0.369004  0  3.891281  0
C  C60  1  0.31407775  0.56137408  0.05788211  1  0  0.14816  0  3.792883  0  0  0.139999  0  4.03745  0  0  0.142778  0  4.06096  0  0  0.098719  0.138075  0  4.021657  0
C  C61  1  0.68592486  0.43863325  0.94211771  1  0  0.148371  0  3.793023  0  0  0.1402  0  4.037508  0  0  0.142978  0  4.061022  0  0  0.098813  0.13827  0  4.021724  0
C  C62  1  0.33678107  0.59627617  0.97546969  1  0  -0.136182  0  3.743778  0  0  -0.153124  0  3.994436  0  0  -0.155901  0  4.016489  0  0  -0.089193  -0.151161  0  3.979494  0
C  C63  1  0.66322073  0.40372228  0.02453232  1  0  -0.136102  0  3.743531  0  0  -0.153062  0  3.994191  0  0  -0.155838  0  4.016229  0  0  -0.08914  -0.1511  0  3.979251  0
C  C64  1  0.23757092  0.49108923  0.90587590  1  0  -0.059992  0  3.750061  0  0  -0.082345  0  4.014493  0  0  -0.083901  0  4.03523  0  0  -0.091754  -0.081286  0  4.000473  0
C  C65  1  0.76244582  0.50890758  0.09412932  1  0  -0.060041  0  3.750007  0  0  -0.082358  0  4.014403  0  0  -0.083878  0  4.035149  0  0  -0.091774  -0.081291  0  4.000371  0
C  C66  1  0.12190622  0.35425825  0.91814920  1  0  -0.057335  0  3.744413  0  0  -0.079704  0  4.010995  0  0  -0.08165  0  4.034119  0  0  -0.092334  -0.078297  0  3.995371  0
C  C67  1  0.87810581  0.64573880  0.08184858  1  0  -0.05732  0  3.744396  0  0  -0.079721  0  4.010991  0  0  -0.081668  0  4.034105  0  0  -0.092281  -0.078299  0  3.99536  0
C  C68  1  0.09788521  0.31903076  0.00017196  1  0  -0.14588  0  3.737706  0  0  -0.16373  0  3.992083  0  0  -0.16768  0  4.014408  0  0  -0.087838  -0.160953  0  3.976969  0
C  C69  1  0.90212179  0.68096324  0.99983456  1  0  -0.145739  0  3.737926  0  0  -0.163629  0  3.992263  0  0  -0.167573  0  4.014598  0  0  -0.087833  -0.16086  0  3.977148  0
C  C70  1  0.19533100  0.42562413  0.07001379  1  0  0.156644  0  3.773124  0  0  0.147525  0  4.018339  0  0  0.150718  0  4.042011  0  0  0.100944  0.145326  0  4.00245  0
C  C71  1  0.80466958  0.57437511  0.92999010  1  0  0.156325  0  3.773446  0  0  0.147347  0  4.018448  0  0  0.150536  0  4.042117  0  0  0.100874  0.14515  0  4.002563  0
N  N72  1  0.02327823  0.83075223  0.33685898  1  0  -0.410516  0  3.176557  0  0  -0.340824  0  3.47107  0  0  -0.363566  0  3.480086  0  0  -0.339764  -0.325151  0  3.462191  0
N  N73  1  0.97671542  0.16924335  0.66313877  1  0  -0.410552  0  3.17672  0  0  -0.340859  0  3.471216  0  0  -0.363602  0  3.480239  0  0  -0.339827  -0.325184  0  3.462337  0
N  N74  1  0.05176177  0.57680058  0.31165253  1  0  -0.27162  0  2.831743  0  0  -0.273806  0  3.103253  0  0  -0.273188  0  3.121059  0  0  -0.22178  -0.268607  0  3.094579  0
N  N75  1  0.94823541  0.42319435  0.68834868  1  0  -0.271769  0  2.831691  0  0  -0.27397  0  3.103216  0  0  -0.273361  0  3.121015  0  0  -0.221844  -0.268772  0  3.094542  0
N  N76  1  0.20674519  0.67811051  0.31490745  1  0  0.047049  0  3.561475  0  0  0.160591  0  3.758493  0  0  0.122569  0  3.816248  0  0  -0.134299  0.168516  0  3.740831  0
N  N77  1  0.79325443  0.32188415  0.68509524  1  0  0.047112  0  3.561458  0  0  0.160667  0  3.758456  0  0  0.122682  0  3.816178  0  0  -0.134305  0.168594  0  3.74079  0
N  N78  1  0.38824483  0.64054128  0.13948222  1  0  -0.366484  0  3.322283  0  0  -0.30433  0  3.554314  0  0  -0.323436  0  3.567107  0  0  -0.345413  -0.291617  0  3.54557  0
N  N79  1  0.61175525  0.35946217  0.86052460  1  0  -0.366742  0  3.322412  0  0  -0.304563  0  3.554488  0  0  -0.323667  0  3.567277  0  0  -0.345442  -0.291845  0  3.545754  0
N  N80  1  0.20390453  0.43059888  0.15888582  1  0  -0.358857  0  3.322138  0  0  -0.30339  0  3.55906  0  0  -0.319822  0  3.56837  0  0  -0.350791  -0.292534  0  3.552826  0
N  N81  1  0.79609291  0.56940312  0.84111614  1  0  -0.358836  0  3.322152  0  0  -0.303384  0  3.559063  0  0  -0.319805  0  3.568359  0  0  -0.350736  -0.292526  0  3.552825  0
O  O82  1  0.80425689  0.11759597  0.21127843  1  0  -0.596153  0  1.952543  0  0  -0.537995  0  2.191429  0  0  -0.56572  0  2.179215  0  0  -0.312801  -0.518586  0  2.199194  0
O  O83  1  0.19571267  0.88241470  0.78872614  1  0  -0.596167  0  1.952618  0  0  -0.538062  0  2.191441  0  0  -0.565785  0  2.179229  0  0  -0.312842  -0.518651  0  2.199202  0
O  O84  1  0.63313381  0.88015132  0.21037887  1  0  -0.632758  0  1.985691  0  0  -0.578861  0  2.219841  0  0  -0.607187  0  2.212611  0  0  -0.320468  -0.558861  0  2.223981  0
O  O85  1  0.36687754  0.11984367  0.78962309  1  0  -0.63262  0  1.98588  0  0  -0.578763  0  2.219958  0  0  -0.607097  0  2.212753  0  0  -0.320467  -0.558764  0  2.2241  0
O  O86  1  0.39718004  0.13612596  0.20680888  1  0  -0.545802  0  2.097648  0  0  -0.496606  0  2.316157  0  0  -0.518994  0  2.300177  0  0  -0.32771  -0.481054  0  2.325044  0
O  O87  1  0.60281467  0.86385277  0.79319489  1  0  -0.545854  0  2.097738  0  0  -0.49669  0  2.316197  0  0  -0.51907  0  2.300197  0  0  -0.32772  -0.481133  0  2.325084  0
O  O88  1  0.14102270  0.00360220  0.12310473  1  0  -0.546472  0  1.902965  0  0  -0.506191  0  2.119538  0  0  -0.524817  0  2.111511  0  0  -0.293027  -0.49338  0  2.124809  0
O  O89  1  0.85897238  0.99642188  0.87688906  1  0  -0.546632  0  1.90281  0  0  -0.506307  0  2.119416  0  0  -0.524943  0  2.111401  0  0  -0.293069  -0.493492  0  2.124691  0
O  O90  1  0.13213348  0.17006270  0.43957303  1  0  -0.635932  0  2.046822  0  0  -0.556945  0  2.284789  0  0  -0.587336  0  2.272557  0  0  -0.310203  -0.535687  0  2.292631  0
O  O91  1  0.86786554  0.82993925  0.56042335  1  0  -0.63589  0  2.046799  0  0  -0.55687  0  2.284713  0  0  -0.587241  0  2.272483  0  0  -0.310152  -0.53563  0  2.292592  0
O  O92  1  0.21326558  0.23414447  0.31545933  1  0  -0.664736  0  1.991299  0  0  -0.615711  0  2.239559  0  0  -0.640562  0  2.226349  0  0  -0.323482  -0.598118  0  2.247799  0
O  O93  1  0.78673773  0.76584724  0.68453451  1  0  -0.664572  0  1.99132  0  0  -0.615576  0  2.239518  0  0  -0.640418  0  2.226321  0  0  -0.323384  -0.597982  0  2.247754  0
O  O94  1  0.50697192  0.09781880  0.41112366  1  0  -0.633623  0  1.9963  0  0  -0.575243  0  2.215776  0  0  -0.601205  0  2.206657  0  0  -0.318721  -0.557001  0  2.221465  0
O  O95  1  0.49301796  0.90219205  0.58886382  1  0  -0.633674  0  1.996343  0  0  -0.575317  0  2.215812  0  0  -0.601285  0  2.206692  0  0  -0.318767  -0.557076  0  2.221502  0
O  O96  1  0.76962984  0.25014674  0.40539363  1  0  -0.63433  0  1.978409  0  0  -0.56996  0  2.217902  0  0  -0.598731  0  2.206168  0  0  -0.329917  -0.549696  0  2.225196  0
O  O97  1  0.23037438  0.74985599  0.59460524  1  0  -0.634278  0  1.978515  0  0  -0.569914  0  2.217973  0  0  -0.598683  0  2.206236  0  0  -0.329892  -0.549649  0  2.225266  0
O  O98  1  0.68860016  0.87283121  0.40677869  1  0  -0.853873  0  1.896429  0  0  -0.791698  0  2.100408  0  0  -0.816697  0  2.066784  0  0  -0.591311  -0.773952  0  2.12365  0
O  O99  1  0.31139809  0.12717967  0.59322107  1  0  -0.85397  0  1.896413  0  0  -0.791804  0  2.100301  0  0  -0.816802  0  2.066662  0  0  -0.591306  -0.774062  0  2.123562  0
