# generated using pymatgen
data_Cu2H10C14N4O7
_symmetry_space_group_name_H-M   'P 1'
_cell_length_a   7.10436813
_cell_length_b   15.50877463
_cell_length_c   17.55109075
_cell_angle_alpha   110.57249869
_cell_angle_beta   100.08614769
_cell_angle_gamma   90.37386174
_symmetry_Int_Tables_number   1
_chemical_formula_structural   Cu2H10C14N4O7
_chemical_formula_sum   'Cu8 H40 C56 N16 O28'
_cell_volume   1777.61371077
_cell_formula_units_Z   4
loop_
 _symmetry_equiv_pos_site_id
 _symmetry_equiv_pos_as_xyz
  1  'x, y, z'
loop_
 _atom_site_type_symbol
 _atom_site_label
 _atom_site_symmetry_multiplicity
 _atom_site_fract_x
 _atom_site_fract_y
 _atom_site_fract_z
 _atom_site_occupancy
 _atom_site_pbe_bader_charge
 _atom_site_pbe_bader_spin_density
 _atom_site_pbe_cm5_charge
 _atom_site_pbe_ddec_charge
 _atom_site_pbe_ddec_spin_density
 _atom_site_pbe_ddec_sum_bond_order
 _atom_site_pbe_magmom
Cu  Cu0  1  0.00696553  0.41305752  0.51159843  1  1.135994  -0.047887  0.803628  0.96676  -0.073826  2.423042  -0.048
Cu  Cu1  1  0.82229944  0.40852915  0.32741875  1  1.174809  0.177968  0.800079  0.980382  0.246599  2.364175  0.176
Cu  Cu2  1  0.48734825  0.08609251  0.48899994  1  1.150642  0.144686  0.806309  0.977623  0.200313  2.417735  0.142
Cu  Cu3  1  0.50763983  0.09207774  0.67380098  1  1.159698  0.335609  0.786056  0.957964  0.46381  2.332167  0.333
Cu  Cu4  1  0.99297805  0.58692739  0.48841896  1  1.135551  0.048563  0.803556  0.966823  0.068379  2.42254  0.048
Cu  Cu5  1  0.17764752  0.59143377  0.67257653  1  1.174844  -0.17966  0.79995  0.980093  -0.270951  2.36402  -0.178
Cu  Cu6  1  0.51280613  0.91393115  0.51099761  1  1.150832  0.145045  0.806244  0.977481  0.200798  2.417548  0.143
Cu  Cu7  1  0.49245897  0.90794596  0.32619586  1  1.159842  0.335629  0.786014  0.957702  0.463816  2.331424  0.333
H  H8  1  0.28465095  0.48298183  0.80761746  1  0.208463  -0.0003  0.167388  0.150898  -0.000147  0.940145  0.0
H  H9  1  0.02996851  0.25072749  0.59911238  1  0.321758  -0.000478  0.156183  0.155594  -0.000231  1.007906  0.0
H  H10  1  0.08638317  0.23996467  0.73707397  1  0.479601  -5e-06  0.307757  0.288055  1e-05  0.973375  0.0
H  H11  1  0.31832325  0.26789630  0.76668342  1  0.457122  -6e-05  0.301488  0.282601  -4.3e-05  0.984004  0.0
H  H12  1  0.91847325  0.11310040  0.44534118  1  0.113962  -3.5e-05  0.107522  0.119942  -4.9e-05  1.006813  0.0
H  H13  1  0.96636269  0.15396284  0.21790642  1  0.082999  5.9e-05  0.107732  0.121415  3.9e-05  0.992049  0.0
H  H14  1  0.02137648  0.98611007  0.15345740  1  0.100051  -2e-06  0.105793  0.109993  -1e-06  0.98235  0.0
H  H15  1  0.33158965  0.31808114  0.13658485  1  0.097732  0.000187  0.102843  0.108596  0.000185  1.032877  0.0
H  H16  1  0.03309285  0.88606306  0.23675374  1  0.126341  -2e-05  0.104106  0.107668  -1.3e-05  1.0473  0.0
H  H17  1  0.47888699  0.01867198  0.19210422  1  0.207391  0.000555  0.167125  0.150025  0.000233  0.940162  0.0
H  H18  1  0.41974989  0.24981028  0.40295806  1  0.286321  0.000716  0.155958  0.155094  0.000452  1.004771  0.001
H  H19  1  0.34542796  0.26106820  0.26559828  1  0.476134  5e-06  0.30672  0.28663  2.7e-05  0.976468  0.0
H  H20  1  0.54904784  0.23479514  0.23372110  1  0.463478  4.8e-05  0.300957  0.281843  4.3e-05  0.987006  0.0
H  H21  1  0.48837079  0.38877488  0.55485378  1  0.119169  8.4e-05  0.107175  0.120847  5.5e-05  1.007417  0.0
H  H22  1  0.74316826  0.34407509  0.77929341  1  0.10155  6.4e-05  0.108264  0.122843  4.3e-05  0.990853  0.0
H  H23  1  0.86524561  0.51111795  0.84393414  1  0.094666  7.9e-05  0.106412  0.111752  4.1e-05  0.981578  0.0
H  H24  1  0.19979667  0.18476171  0.87159964  1  0.104967  0.000327  0.103438  0.110295  0.000312  1.02627  0.0
H  H25  1  0.80504985  0.61254098  0.76200823  1  0.092798  2.2e-05  0.104153  0.106189  1.7e-05  1.045175  0.0
H  H26  1  0.71544594  0.51699200  0.19238228  1  0.208773  0.000294  0.167349  0.150981  0.00013  0.940163  0.0
H  H27  1  0.97004765  0.74924280  0.40090586  1  0.321684  0.000332  0.156159  0.155464  0.000269  1.008139  0.0
H  H28  1  0.91361051  0.76006668  0.26302064  1  0.458674  -5.3e-05  0.307772  0.288052  -1.1e-05  0.973072  0.0
H  H29  1  0.68171472  0.73207326  0.23333923  1  0.456669  -1.5e-05  0.301457  0.282473  -6e-06  0.984085  0.0
H  H30  1  0.08159465  0.88688137  0.55470934  1  0.114449  -8.3e-05  0.107633  0.120213  -4.9e-05  1.00653  0.0
H  H31  1  0.03353274  0.84598605  0.78211760  1  0.082956  -5.5e-05  0.107787  0.121477  -4.6e-05  0.992348  0.0
H  H32  1  0.97870506  0.01385989  0.84659763  1  0.101366  -0.0  0.105814  0.110129  -6e-06  0.982085  0.0
H  H33  1  0.66828060  0.68193405  0.86337523  1  0.099911  -0.000195  0.102709  0.108584  -0.000202  1.032678  0.0
H  H34  1  0.96713984  0.11392509  0.76334898  1  0.1256  -1.9e-05  0.104057  0.107654  -1.3e-05  1.047347  0.0
H  H35  1  0.52122487  0.98135316  0.80788564  1  0.207352  0.000555  0.167136  0.14996  0.000233  0.940316  0.0
H  H36  1  0.58021368  0.75017408  0.59703860  1  0.286055  0.000783  0.15591  0.154983  0.000382  1.005139  0.001
H  H37  1  0.65430808  0.73888075  0.73434796  1  0.476121  3.7e-05  0.306681  0.286629  1.7e-05  0.976655  0.0
H  H38  1  0.45082508  0.76529432  0.76630503  1  0.462622  7.3e-05  0.30119  0.282022  4.3e-05  0.986568  0.0
H  H39  1  0.51165886  0.61122373  0.44508369  1  0.118709  8.9e-05  0.107054  0.120583  5e-05  1.007668  0.0
H  H40  1  0.25680707  0.65602277  0.22071066  1  0.10035  6.8e-05  0.108322  0.122861  4.3e-05  0.990901  0.0
H  H41  1  0.13474515  0.48899469  0.15603695  1  0.093373  6.8e-05  0.106459  0.11207  3e-05  0.981574  0.0
H  H42  1  0.80010584  0.81527902  0.12836664  1  0.106392  0.000334  0.103523  0.110358  0.000314  1.026139  0.0
H  H43  1  0.19483046  0.38751195  0.23790560  1  0.092606  -3.1e-05  0.104462  0.106438  -2.4e-05  1.045379  0.0
H  H44  1  0.78762395  0.25134577  0.99807894  1  0.112716  1e-05  0.103682  0.108044  -4e-06  1.036729  0.0
H  H45  1  0.09140247  0.25193645  0.00652996  1  0.091364  2.1e-05  0.102546  0.106655  8e-06  1.019773  0.0
H  H46  1  0.21230025  0.74861909  0.00193597  1  0.112028  -3e-06  0.103597  0.107847  -2e-06  1.036806  0.0
H  H47  1  0.90848400  0.74813210  0.99342329  1  0.092822  -2e-06  0.102617  0.106794  -3e-06  1.019788  0.0
C  C48  1  0.21697437  0.44115480  0.74499421  1  1.030984  0.001519  0.191606  0.091178  0.000959  3.830089  0.001
C  C49  1  0.08616256  0.32185659  0.63604336  1  0.92427  0.001311  0.183675  0.086325  0.000901  3.784805  0.001
C  C50  1  0.94430322  0.92355107  0.38681621  1  1.593706  -0.003181  0.196534  0.584215  -0.002057  4.223807  -0.003
C  C51  1  0.94022284  0.08583175  0.38141023  1  -0.057348  0.000766  -0.081157  -0.113045  0.000568  3.917917  0.001
C  C52  1  0.94345016  0.14379421  0.33561069  1  -0.018004  0.002196  -0.03091  -0.063164  0.001601  3.999688  0.002
C  C53  1  0.96582139  0.99177733  0.34449793  1  -0.017532  0.002311  -0.016231  -0.023631  0.00162  3.946384  0.001
C  C54  1  0.92433183  0.24495234  0.37236414  1  1.529744  0.000468  0.230358  0.610152  0.000641  4.114846  0.0
C  C55  1  0.96702805  0.10768819  0.25248902  1  -0.079149  0.000331  -0.091709  -0.107146  0.000205  3.975043  0.0
C  C56  1  0.99775045  0.01470804  0.21705259  1  -0.074342  -0.000199  -0.09604  -0.089431  -0.000164  4.026898  0.0
C  C57  1  0.72284623  0.32778198  0.15442060  1  1.502101  -0.000251  0.197677  0.54597  0.000105  4.22366  -0.001
C  C58  1  0.57514815  0.28855273  0.07604152  1  -0.031364  0.00403  -0.027589  -0.04981  0.003021  3.990287  0.003
C  C59  1  0.37834644  0.28862044  0.07766257  1  -0.059882  -0.000286  -0.081508  -0.077045  -0.000182  3.950948  0.0
C  C60  1  0.00060253  0.95770094  0.26346889  1  -0.002907  -0.000216  -0.08054  -0.090914  -0.000148  3.968359  0.0
C  C61  1  0.46865915  0.06011403  0.25507685  1  1.00974  -0.002357  0.190294  0.090789  -0.001459  3.833454  -0.002
C  C62  1  0.44015449  0.17881548  0.36529187  1  0.965927  -0.000328  0.185574  0.091025  -0.000182  3.780556  -0.001
C  C63  1  0.57369405  0.57823087  0.61509834  1  1.600703  0.002071  0.19539  0.582402  0.001204  4.22887  0.002
C  C64  1  0.57044949  0.41484079  0.61808176  1  -0.086273  0.000272  -0.082296  -0.116579  0.000165  3.920741  0.0
C  C65  1  0.61365868  0.35601151  0.66288762  1  -0.011618  0.006015  -0.030286  -0.062302  0.004503  3.999875  0.005
C  C66  1  0.63363939  0.50858351  0.65534964  1  0.028524  -0.000654  -0.015532  -0.02378  -0.000538  3.947429  0.0
C  C67  1  0.55554431  0.25520499  0.62660616  1  1.531068  0.000132  0.228368  0.606016  0.000991  4.125068  -0.001
C  C68  1  0.71499897  0.39093564  0.74531603  1  -0.075615  -0.00027  -0.092575  -0.107913  -0.00023  3.968904  0.0
C  C69  1  0.78241956  0.48345456  0.78088589  1  -0.085555  0.000538  -0.09481  -0.087831  0.000369  4.022548  0.0
C  C70  1  0.57014913  0.17482964  0.84578853  1  1.529112  -0.000651  0.195003  0.547009  -5e-06  4.23278  -0.002
C  C71  1  0.50062803  0.21402522  0.92635379  1  -0.003285  0.005758  -0.027406  -0.049227  0.004336  3.990486  0.005
C  C72  1  0.30423070  0.21400636  0.92891505  1  -0.062766  -4.7e-05  -0.080663  -0.077169  2.5e-05  3.948156  0.0
C  C73  1  0.74502491  0.54125019  0.73531093  1  -0.038278  -0.000209  -0.081384  -0.092341  -0.000196  3.968105  0.0
C  C74  1  0.78308887  0.55881903  0.25500947  1  1.030262  -0.001497  0.191762  0.091047  -0.001084  3.830515  -0.001
C  C75  1  0.91384331  0.67811301  0.36397751  1  0.924344  -0.000722  0.183651  0.086302  -0.000635  3.785137  -0.001
C  C76  1  0.05591708  0.07645381  0.61327242  1  1.595131  -0.003281  0.196842  0.584943  -0.002152  4.223479  -0.003
C  C77  1  0.05985464  0.91415001  0.61864119  1  0.001101  0.001107  -0.081201  -0.11325  0.000824  3.918067  0.001
C  C78  1  0.05656196  0.85618489  0.66443264  1  -0.018305  -0.00263  -0.030863  -0.062795  -0.002155  3.999774  -0.002
C  C79  1  0.03435942  0.00821114  0.65556854  1  -0.075864  0.001434  -0.016205  -0.023634  0.000971  3.945642  0.001
C  C80  1  0.07566178  0.75502761  0.62766211  1  1.529112  -0.000529  0.230207  0.609623  -0.000853  4.115319  -0.001
C  C81  1  0.03292804  0.89227163  0.74754702  1  -0.079979  0.00204  -0.091711  -0.107414  0.001422  3.975341  0.001
C  C82  1  0.00230426  0.98526196  0.78300014  1  -0.076811  -0.000296  -0.096214  -0.089312  -0.000238  4.027275  0.0
C  C83  1  0.27703491  0.67218862  0.84557512  1  1.502313  0.000484  0.19803  0.546504  -0.000136  4.222692  0.001
C  C84  1  0.42474603  0.71142966  0.92394892  1  -0.030731  -0.002862  -0.027763  -0.050061  -0.002398  3.990398  -0.002
C  C85  1  0.62154219  0.71138914  0.92230492  1  -0.060887  -0.000424  -0.081341  -0.077095  -0.000386  3.950417  0.0
C  C86  1  0.99958311  0.04228402  0.73660332  1  -0.000133  0.002111  -0.080227  -0.090989  0.00151  3.968596  0.001
C  C87  1  0.53142253  0.93990214  0.74491166  1  1.008964  -0.002362  0.190419  0.090996  -0.001464  3.833665  -0.002
C  C88  1  0.55984903  0.82118416  0.63469372  1  0.967698  -0.000615  0.185441  0.090817  -0.000376  3.780743  -0.001
C  C89  1  0.42606666  0.42171360  0.38479628  1  1.600587  -0.002092  0.195856  0.58309  -0.001401  4.227638  -0.002
C  C90  1  0.42956455  0.58515433  0.38185977  1  -0.076224  0.001922  -0.082042  -0.115875  0.001406  3.920472  0.001
C  C91  1  0.38641233  0.64402142  0.33708417  1  -0.013186  0.005696  -0.030139  -0.062871  0.004258  4.000437  0.004
C  C92  1  0.36628695  0.49141592  0.34458281  1  0.023678  0.001361  -0.015822  -0.024348  0.000938  3.946955  0.001
C  C93  1  0.44461709  0.74482218  0.37338448  1  1.532298  9.1e-05  0.228706  0.606766  0.000955  4.124421  -0.001
C  C94  1  0.28504239  0.60913951  0.25466200  1  -0.077033  0.001577  -0.092508  -0.10739  0.001086  3.969196  0.001
C  C95  1  0.21758246  0.51662764  0.21907985  1  -0.081726  0.000174  -0.095052  -0.088699  0.0001  4.023056  0.0
C  C96  1  0.42981213  0.82516025  0.15420964  1  1.531232  -0.000804  0.19542  0.547342  -0.000122  4.23198  -0.002
C  C97  1  0.49929627  0.78597934  0.07363138  1  -0.004262  0.00504  -0.02738  -0.049153  0.003826  3.990534  0.004
C  C98  1  0.69568079  0.78602259  0.07105249  1  -0.08622  0.000388  -0.080772  -0.077449  0.000359  3.948125  0.0
C  C99  1  0.25491492  0.45879424  0.26462076  1  -0.040537  0.001255  -0.081618  -0.092284  0.000872  3.968078  0.001
C  C100  1  0.63534626  0.25132267  0.00006213  1  -0.041753  0.001018  -0.07794  -0.101678  0.000698  3.935326  0.001
C  C101  1  0.24373015  0.25147180  0.00443756  1  -0.030694  0.000133  -0.090702  -0.084628  1.4e-05  3.998511  0.0
C  C102  1  0.36456339  0.74865690  0.99993325  1  -0.041762  0.000195  -0.077835  -0.101331  0.000103  3.934981  0.0
C  C103  1  0.75616410  0.74856066  0.99552484  1  -0.009781  4e-05  -0.090629  -0.084447  8e-06  3.998204  0.0
N  N104  1  0.08361154  0.39584703  0.61519843  1  -0.723962  -0.001705  -0.267914  -0.183579  -0.001481  3.663878  -0.001
N  N105  1  0.16611161  0.46963966  0.68218777  1  -0.721874  -0.017762  -0.251969  -0.180381  -0.014296  3.644793  -0.016
N  N106  1  0.16896907  0.34890002  0.71773415  1  -0.930249  -0.000793  -0.131623  0.208781  -0.000729  3.778502  -0.001
N  N107  1  0.18679235  0.29525384  0.76771542  1  -0.698892  -0.000263  -0.492268  -0.518089  -0.000199  3.053013  0.0
N  N108  1  0.45497027  0.10430049  0.38533038  1  -0.724394  0.008193  -0.268561  -0.1829  0.005721  3.658937  0.006
N  N109  1  0.47468737  0.03085498  0.31752612  1  -0.721292  0.042624  -0.252657  -0.183618  0.031285  3.639009  0.038
N  N110  1  0.44711912  0.15238895  0.28325072  1  -0.908336  0.002694  -0.131665  0.209022  0.001991  3.782527  0.002
N  N111  1  0.41775642  0.20642284  0.23378242  1  -0.711551  0.000494  -0.493653  -0.519496  0.00031  3.063533  0.001
N  N112  1  0.91639021  0.60411505  0.38480974  1  -0.723477  0.001826  -0.268096  -0.183792  0.00133  3.664691  0.002
N  N113  1  0.83393349  0.53032521  0.31781215  1  -0.722475  0.017777  -0.251961  -0.180268  0.013086  3.645558  0.016
N  N114  1  0.83107517  0.65107786  0.28228455  1  -0.930872  0.000779  -0.13184  0.208792  0.000626  3.778448  0.001
N  N115  1  0.81327893  0.70474946  0.23232605  1  -0.676688  0.000601  -0.492219  -0.51798  0.000423  3.05207  0.001
N  N116  1  0.54512520  0.89570459  0.61465855  1  -0.725379  0.008205  -0.268535  -0.182684  0.005734  3.658808  0.006
N  N117  1  0.52545477  0.96915766  0.68246453  1  -0.720314  0.042525  -0.252853  -0.18414  0.031219  3.639035  0.038
N  N118  1  0.55287612  0.84762108  0.71673553  1  -0.909672  0.002703  -0.1318  0.209149  0.002009  3.782783  0.002
N  N119  1  0.58216190  0.79358176  0.76619964  1  -0.710176  0.00031  -0.493624  -0.519573  0.00015  3.063606  0.0
O  O120  1  0.84909157  0.28261545  0.32144275  1  -1.098712  0.021063  -0.302893  -0.524338  0.014645  2.424436  0.019
O  O121  1  0.98402701  0.28424063  0.45042825  1  -1.11184  -0.012276  -0.311853  -0.520686  -0.00936  2.380315  -0.011
O  O122  1  0.05000522  0.85592086  0.37298432  1  -1.165623  0.051904  -0.322225  -0.550169  0.034726  2.133062  0.044
O  O123  1  0.81164101  0.93458848  0.42881005  1  -1.15138  0.053365  -0.333652  -0.619343  0.035406  2.208264  0.046
O  O124  1  0.98260706  0.46108897  0.42844349  1  -0.772584  0.067761  -0.508183  -0.71975  0.04698  2.298681  0.058
O  O125  1  0.64869978  0.35927000  0.22210584  1  -1.082248  0.054037  -0.329464  -0.56012  0.036574  2.36149  0.048
O  O126  1  0.89721585  0.33028205  0.15361597  1  -1.158395  0.001398  -0.31364  -0.529939  0.000745  2.134014  0.001
O  O127  1  0.52963636  0.21783132  0.67846167  1  -1.101827  0.036593  -0.305457  -0.529402  0.025426  2.449147  0.033
O  O128  1  0.53641978  0.21555253  0.54804333  1  -1.083471  0.028147  -0.307633  -0.516593  0.019169  2.370748  0.025
O  O129  1  0.69450982  0.64430644  0.62609904  1  -1.171813  -0.031223  -0.327571  -0.566292  -0.022668  2.158118  -0.027
O  O130  1  0.40033394  0.56966157  0.57777169  1  -1.161111  -0.033934  -0.336964  -0.612066  -0.024549  2.214333  -0.029
O  O131  1  0.57531126  0.03910969  0.57099385  1  -0.771999  0.188242  -0.500815  -0.71117  0.129675  2.242798  0.163
O  O132  1  0.43157701  0.14061213  0.78043070  1  -1.096082  0.088055  -0.332242  -0.561756  0.059897  2.35786  0.078
O  O133  1  0.74378870  0.17494277  0.84311592  1  -1.162208  0.002014  -0.316166  -0.533668  0.001033  2.13557  0.002
O  O134  1  0.15093522  0.71735554  0.67857469  1  -1.099124  -0.021377  -0.30291  -0.52429  -0.016206  2.424364  -0.02
O  O135  1  0.01593981  0.71575385  0.54960252  1  -1.111542  0.012256  -0.311743  -0.520475  0.008557  2.38049  0.011
O  O136  1  0.95007326  0.14402842  0.62705834  1  -1.164528  0.051817  -0.321978  -0.549903  0.034663  2.132958  0.044
O  O137  1  0.18873584  0.06554436  0.57136894  1  -1.152618  0.053624  -0.333616  -0.619551  0.035589  2.208866  0.046
O  O138  1  0.01717785  0.53888224  0.57157181  1  -0.772333  -0.067772  -0.50785  -0.719397  -0.051713  2.2977  -0.058
O  O139  1  0.35122683  0.64071984  0.77790253  1  -1.08191  -0.053948  -0.329579  -0.560153  -0.039747  2.361188  -0.048
O  O140  1  0.10266247  0.66967062  0.84636955  1  -1.159419  -0.001073  -0.313782  -0.530219  -0.000643  2.133783  -0.001
O  O141  1  0.47066148  0.78219837  0.32154612  1  -1.102621  0.036558  -0.305864  -0.530027  0.0254  2.449721  0.033
O  O142  1  0.46368851  0.78447126  0.45194270  1  -1.083147  0.028176  -0.307525  -0.516471  0.01919  2.370231  0.025
O  O143  1  0.30517351  0.35565965  0.37378522  1  -1.171179  0.034911  -0.327303  -0.566112  0.023308  2.157427  0.03
O  O144  1  0.59942018  0.43019720  0.42210349  1  -1.161829  0.0353  -0.337058  -0.612147  0.023419  2.214098  0.03
O  O145  1  0.42480051  0.96092501  0.42901354  1  -0.772983  0.187788  -0.501021  -0.711412  0.129371  2.242911  0.163
O  O146  1  0.56842444  0.85940425  0.21954101  1  -1.096816  0.087991  -0.332319  -0.561682  0.059859  2.357142  0.078
O  O147  1  0.25618358  0.82500744  0.15690718  1  -1.163154  0.001968  -0.316442  -0.533972  0.001008  2.135326  0.002
