# generated using pymatgen
data_Zn4H8C40N8O29F4
_symmetry_space_group_name_H-M   'P 1'
_cell_length_a   23.86077366
_cell_length_b   23.86251275
_cell_length_c   23.86066197
_cell_angle_alpha   66.63798473
_cell_angle_beta   72.44347834
_cell_angle_gamma   107.56298705
_symmetry_Int_Tables_number   1
_chemical_formula_structural   Zn4H8C40N8O29F4
_chemical_formula_sum   'Zn8 H16 C80 N16 O58 F8'
_cell_volume   10422.32276964
_cell_formula_units_Z   2
loop_
 _symmetry_equiv_pos_site_id
 _symmetry_equiv_pos_as_xyz
  1  'x, y, z'
loop_
 _atom_site_type_symbol
 _atom_site_label
 _atom_site_symmetry_multiplicity
 _atom_site_fract_x
 _atom_site_fract_y
 _atom_site_fract_z
 _atom_site_occupancy
 _atom_site_pbe_bader_charge
 _atom_site_pbe_bader_spin_density
 _atom_site_pbe_cm5_charge
 _atom_site_pbe_ddec_charge
 _atom_site_pbe_ddec_spin_density
 _atom_site_pbe_ddec_sum_bond_order
 _atom_site_pbe_magmom
Zn  Zn0  1  0.05710033  0.95689427  0.48608253  1  1.319241  0  0.679771  0.968304  0  2.368458  0
Zn  Zn1  1  0.05709149  0.10018913  0.45683304  1  1.317923  0  0.679931  0.968654  0  2.368161  0
Zn  Zn2  1  0.94290196  0.98609646  0.45689710  1  1.319333  0  0.679964  0.968568  0  2.367608  0
Zn  Zn3  1  0.94291804  0.95679870  0.60021139  1  1.318569  0  0.679868  0.968504  0  2.367429  0
Zn  Zn4  1  0.94298425  0.54318488  0.01390028  1  1.320101  0  0.679956  0.968615  0  2.367723  0
Zn  Zn5  1  0.05703016  0.51390776  0.04318237  1  1.320321  0  0.679952  0.968483  0  2.367869  0
Zn  Zn6  1  0.94297644  0.39979432  0.04312104  1  1.317755  0  0.679923  0.968525  0  2.367925  0
Zn  Zn7  1  0.05700454  0.54308148  0.89981332  1  1.317779  0  0.67993  0.968541  0  2.368228  0
H  H8  1  0.92318050  0.65204560  0.11281547  1  0.163016  0  0.130486  0.148805  0  0.968729  0
H  H9  1  0.07683820  0.61281484  0.15206533  1  0.162374  0  0.130621  0.148844  0  0.969039  0
H  H10  1  0.92368580  0.88791923  0.34730753  1  0.160559  0  0.130827  0.149138  0  0.968222  0
H  H11  1  0.07621590  0.84725573  0.38801171  1  0.160168  0  0.130808  0.149467  0  0.968205  0
H  H12  1  0.07680757  0.46398632  0.77114774  1  0.170073  0  0.130461  0.148765  0  0.968606  0
H  H13  1  0.92315866  0.27109144  0.96401837  1  0.170435  0  0.130569  0.1488  0  0.969015  0
H  H14  1  0.07622388  0.22895779  0.53577723  1  0.166476  0  0.130832  0.149429  0  0.968081  0
H  H15  1  0.92369494  0.03577279  0.72898872  1  0.166598  0  0.13083  0.14921  0  0.968217  0
H  H16  1  0.73524836  0.46423487  0.11204706  1  0.160761  0  0.130823  0.149288  0  0.968283  0
H  H17  1  0.73524817  0.27104168  0.15270844  1  0.164224  0  0.130834  0.149315  0  0.968362  0
H  H18  1  0.26486382  0.22887806  0.34794615  1  0.16464  0  0.130608  0.149188  0  0.969023  0
H  H19  1  0.26487467  0.03600937  0.38715930  1  0.164071  0  0.13056  0.149017  0  0.96856  0
H  H20  1  0.26473588  0.61199135  0.96423122  1  0.16089  0  0.130779  0.149449  0  0.968183  0
H  H21  1  0.26476508  0.65270322  0.77099392  1  0.163081  0  0.13079  0.149443  0  0.968345  0
H  H22  1  0.73512571  0.84794212  0.72890503  1  0.164308  0  0.1306  0.148871  0  0.968861  0
H  H23  1  0.73511859  0.88718883  0.53600617  1  0.164004  0  0.130511  0.149059  0  0.968978  0
C  C24  1  0.18141566  0.09071450  0.40928265  1  1.548473  0  0.232517  0.605078  0  4.168594  0
C  C25  1  0.99999878  0.13753695  0.36247862  1  1.621146  0  0.232632  0.642954  0  4.150279  0
C  C26  1  0.99996831  0.90932528  0.40937419  1  1.543643  0  0.233696  0.60685  0  4.164806  0
C  C27  1  0.81858387  0.90927913  0.59072728  1  1.548917  0  0.23246  0.604987  0  4.168502  0
C  C28  1  0.00005647  0.86247191  0.63750506  1  1.621448  0  0.232628  0.643279  0  4.150239  0
C  C29  1  0.99997404  0.09063966  0.59066232  1  1.559699  0  0.233695  0.606879  0  4.165051  0
C  C30  1  0.99999763  0.59068814  0.09072374  1  1.545182  0  0.232458  0.605073  0  4.168652  0
C  C31  1  0.00002126  0.36248097  0.13754202  1  1.620842  0  0.232713  0.643086  0  4.1499  0
C  C32  1  0.81869710  0.40936588  0.09064130  1  1.54514  0  0.233513  0.606556  0  4.165085  0
C  C33  1  0.99998483  0.40926170  0.90932005  1  1.562568  0  0.232365  0.604618  0  4.169257  0
C  C34  1  0.00001840  0.63751751  0.86243791  1  1.621877  0  0.23271  0.643149  0  4.150693  0
C  C35  1  0.18130145  0.59063460  0.90933353  1  1.543615  0  0.233676  0.607027  0  4.165203  0
C  C36  1  0.00005576  0.80515355  0.69480882  1  0.052346  0  -0.019801  -0.209661  0  3.955771  0
C  C37  1  0.00002640  0.69482651  0.80511553  1  0.050798  0  -0.01961  -0.209371  0  3.955991  0
C  C38  1  0.95769337  0.77660009  0.76565577  1  0.582305  0  0.102631  0.171539  0  4.060688  0
C  C39  1  0.04237165  0.72335334  0.73426760  1  0.581825  0  0.102641  0.171207  0  4.060993  0
C  C40  1  0.95769449  0.72334185  0.81892039  1  0.579532  0  0.102645  0.171591  0  4.060554  0
C  C41  1  0.04240698  0.77665376  0.68099999  1  0.579509  0  0.102603  0.171282  0  4.060878  0
C  C42  1  0.99999644  0.19485695  0.30517388  1  0.049976  0  -0.020018  -0.210478  0  3.955667  0
C  C43  1  0.00001182  0.30516793  0.19486391  1  0.050974  0  -0.019926  -0.20967  0  3.95538  0
C  C44  1  0.95768181  0.18105919  0.27663387  1  0.579974  0  0.102747  0.172021  0  4.060088  0
C  C45  1  0.04230221  0.31896996  0.22343138  1  0.580366  0  0.102569  0.171097  0  4.060692  0
C  C46  1  0.95771382  0.23432557  0.22334387  1  0.581721  0  0.102798  0.171602  0  4.060285  0
C  C47  1  0.04231641  0.26570137  0.27667981  1  0.583232  0  0.102794  0.17195  0  4.059874  0
C  C48  1  0.00000563  0.62817170  0.12820243  1  0.106652  0  -0.003471  -0.007454  0  3.951397  0
C  C49  1  0.95721040  0.65711778  0.13447596  1  0.03063  0  -0.055433  -0.118307  0  3.912763  0
C  C50  1  0.95900805  0.69330212  0.16772026  1  0.171366  0  0.09779  0.050395  0  3.86931  0
C  C51  1  0.00000276  0.69951859  0.19954696  1  0.226257  0  0.033069  0.06643  0  4.044278  0
C  C52  1  0.04100589  0.66770633  0.19332554  1  0.171227  0  0.097788  0.050454  0  3.869477  0
C  C53  1  0.04280430  0.63445805  0.15714804  1  0.028408  0  -0.055664  -0.118585  0  3.913277  0
C  C54  1  0.99999647  0.73474804  0.23478111  1  -0.004282  0  -0.014638  -0.038652  0  4.059226  0
C  C55  1  0.99998572  0.76528164  0.26531134  1  -0.211953  0  -0.013687  -0.037291  0  4.059678  0
C  C56  1  0.99996876  0.80050261  0.30055621  1  0.261031  0  0.03267  0.066682  0  4.044841  0
C  C57  1  0.95619279  0.82881004  0.31026380  1  0.171337  0  0.097894  0.049182  0  3.871466  0
C  C58  1  0.95691865  0.86525815  0.34324527  1  0.063738  0  -0.055024  -0.117242  0  3.91284  0
C  C59  1  0.99994910  0.87182438  0.37190822  1  0.03735  0  -0.003187  -0.007448  0  3.951014  0
C  C60  1  0.04298180  0.84316960  0.36535041  1  0.058437  0  -0.055301  -0.118142  0  3.913024  0
C  C61  1  0.04373165  0.81020468  0.32888609  1  0.171766  0  0.097924  0.049391  0  3.870983  0
C  C62  1  0.99998323  0.37178310  0.87183616  1  0.009262  0  -0.003479  -0.007418  0  3.951556  0
C  C63  1  0.04277749  0.40830369  0.80009439  1  0.072424  0  -0.055399  -0.118506  0  3.912426  0
C  C64  1  0.04098388  0.37327099  0.76569712  1  0.20659  0  0.09791  0.051359  0  3.868092  0
C  C65  1  0.99998722  0.30045766  0.80046813  1  0.152345  0  0.033081  0.065723  0  4.043769  0
C  C66  1  0.95899252  0.26567147  0.87328685  1  0.205322  0  0.097857  0.051464  0  3.868339  0
C  C67  1  0.95719244  0.30004483  0.90833955  1  0.07173  0  -0.055589  -0.118863  0  3.912868  0
C  C68  1  0.99998601  0.26523779  0.76522621  1  -0.004306  0  -0.014608  -0.038783  0  4.059735  0
C  C69  1  0.99997960  0.23470317  0.73469654  1  -0.214353  0  -0.01363  -0.037186  0  4.060357  0
C  C70  1  0.99996750  0.19947031  0.69946933  1  0.08497  0  0.032673  0.065528  0  4.044677  0
C  C71  1  0.04372963  0.23352526  0.62738662  1  0.260221  0  0.09788  0.051173  0  3.86906  0
C  C72  1  0.04298751  0.19980950  0.59167093  1  0.032859  0  -0.055239  -0.118685  0  3.912182  0
C  C73  1  0.99995934  0.12812384  0.62813802  1  0.081043  0  -0.003212  -0.007409  0  3.951144  0
C  C74  1  0.95692920  0.09166649  0.69982450  1  0.03236  0  -0.05507  -0.11808  0  3.912209  0
C  C75  1  0.95619572  0.12738859  0.73353365  1  0.260022  0  0.097825  0.051028  0  3.869242  0
C  C76  1  0.74373003  0.37188396  0.12812602  1  0.031131  0  -0.003077  -0.007126  0  3.950666  0
C  C77  1  0.70850956  0.40834797  0.13469313  1  0.039265  0  -0.055229  -0.118466  0  3.912318  0
C  C78  1  0.63908120  0.37263058  0.17114337  1  0.254605  0  0.097889  0.051008  0  3.86912  0
C  C79  1  0.60105846  0.30054984  0.19945993  1  0.054143  0  0.032628  0.065789  0  4.043802  0
C  C80  1  0.63908141  0.26648782  0.18975691  1  0.162047  0  0.097903  0.050798  0  3.869124  0
C  C81  1  0.70851018  0.30019815  0.15678149  1  0.08813  0  -0.05528  -0.118353  0  3.912561  0
C  C82  1  0.53059164  0.26531507  0.23469020  1  0.17768  0  -0.013727  -0.037692  0  4.060372  0
C  C83  1  0.46953389  0.23478277  0.26521208  1  -0.132044  0  -0.014549  -0.038311  0  4.059459  0
C  C84  1  0.39906551  0.19954696  0.30044198  1  0.080544  0  0.03315  0.065773  0  4.043547  0
C  C85  1  0.36102189  0.23431821  0.30667643  1  0.213822  0  0.097703  0.051295  0  3.868353  0
C  C86  1  0.29159813  0.19993682  0.34285480  1  0.025485  0  -0.055584  -0.119237  0  3.913427  0
C  C87  1  0.25637906  0.12820160  0.37179280  1  0.086513  0  -0.003513  -0.007553  0  3.952036  0
C  C88  1  0.29160319  0.09169055  0.36550347  1  0.09426  0  -0.055516  -0.118961  0  3.912875  0
C  C89  1  0.36102995  0.12673600  0.33224722  1  0.098759  0  0.097842  0.051532  0  3.868132  0
C  C90  1  0.25626245  0.62809794  0.87186052  1  0.031511  0  -0.003317  -0.007555  0  3.950958  0
C  C91  1  0.29148410  0.63465355  0.90833527  1  0.046623  0  -0.055231  -0.118015  0  3.91247  0
C  C92  1  0.36091534  0.67111341  0.87262490  1  0.247992  0  0.097887  0.049146  0  3.870969  0
C  C93  1  0.39894252  0.69944212  0.80053975  1  0.053264  0  0.032633  0.066495  0  4.044712  0
C  C94  1  0.36092186  0.68973850  0.76647058  1  0.160551  0  0.097836  0.051015  0  3.868962  0
C  C95  1  0.29149176  0.65676227  0.80017034  1  0.09057  0  -0.054983  -0.118435  0  3.912724  0
C  C96  1  0.46939954  0.73468063  0.76531514  1  0.17749  0  -0.013804  -0.037768  0  4.060472  0
C  C97  1  0.53046464  0.76521298  0.73478055  1  -0.131792  0  -0.014474  -0.0383  0  4.059428  0
C  C98  1  0.60092616  0.80044818  0.69955087  1  0.081791  0  0.033039  0.065716  0  4.043809  0
C  C99  1  0.63897011  0.80667212  0.73433045  1  0.213024  0  0.097754  0.051339  0  3.868137  0
C  C100  1  0.70839722  0.84285926  0.69994933  1  0.025431  0  -0.055617  -0.118769  0  3.912526  0
C  C101  1  0.74362194  0.87180549  0.62820843  1  0.088488  0  -0.003625  -0.007636  0  3.951444  0
C  C102  1  0.70839127  0.86552837  0.59169107  1  0.092461  0  -0.055352  -0.118995  0  3.912944  0
C  C103  1  0.63896211  0.83227355  0.62673177  1  0.098924  0  0.097887  0.051485  0  3.868099  0
N  N104  1  0.08395002  0.66850608  0.22688434  1  0.397715  0  0.063954  0.518286  0  4.214649  0
N  N105  1  0.91606499  0.72685453  0.16849351  1  0.395736  0  0.064055  0.518536  0  4.214352  0
N  N106  1  0.09346597  0.78522376  0.31943813  1  0.401281  0  0.063134  0.517083  0  4.214787  0
N  N107  1  0.90646777  0.81936438  0.28526187  1  0.39934  0  0.063269  0.517352  0  4.214557  0
N  N108  1  0.91606218  0.18918430  0.91542365  1  0.437411  0  0.063761  0.51804  0  4.214593  0
N  N109  1  0.08393505  0.41542429  0.68921065  1  0.436246  0  0.063774  0.518077  0  4.214509  0
N  N110  1  0.90647462  0.08710950  0.80825032  1  0.407273  0  0.063553  0.517099  0  4.214339  0
N  N111  1  0.09345981  0.30823526  0.58711132  1  0.408567  0  0.063167  0.516473  0  4.215282  0
N  N112  1  0.60465015  0.19177962  0.21473507  1  0.395607  0  0.06345  0.516919  0  4.214289  0
N  N113  1  0.60464211  0.41290939  0.18058784  1  0.404442  0  0.063062  0.51669  0  4.214796  0
N  N114  1  0.39536597  0.08458020  0.33144408  1  0.400095  0  0.063738  0.51798  0  4.214853  0
N  N115  1  0.39536095  0.31081069  0.27313123  1  0.417185  0  0.064348  0.518528  0  4.213671  0
N  N116  1  0.39535765  0.71473381  0.69174798  1  0.395707  0  0.063387  0.516813  0  4.214671  0
N  N117  1  0.39534777  0.68055943  0.91291324  1  0.404179  0  0.063289  0.517186  0  4.214733  0
N  N118  1  0.60462712  0.83148479  0.58456952  1  0.399938  0  0.063951  0.518099  0  4.214697  0
N  N119  1  0.60463228  0.77311970  0.81082454  1  0.415791  0  0.063856  0.517923  0  4.214442  0
O  O120  1  0.00000455  0.99999432  0.50000721  1  -1.231369  0  -0.570718  -1.037137  0  2.535627  0
O  O121  1  0.15284060  0.02552054  0.43376392  1  -1.164212  0  -0.307523  -0.535268  0  2.330389  0
O  O122  1  0.04023441  0.15598586  0.38435579  1  -1.14874  0  -0.308174  -0.535454  0  2.358227  0
O  O123  1  0.95863756  0.93301365  0.41427089  1  -1.163275  0  -0.307833  -0.535679  0  2.328978  0
O  O124  1  0.15283671  0.12732813  0.41338592  1  -1.165775  0  -0.30742  -0.535318  0  2.330372  0
O  O125  1  0.04132666  0.91423432  0.43303825  1  -1.16352  0  -0.307976  -0.536063  0  2.32904  0
O  O126  1  0.95977034  0.07543822  0.38423933  1  -1.154954  0  -0.308143  -0.535347  0  2.357925  0
O  O127  1  0.84715579  0.93375561  0.52553315  1  -1.164154  0  -0.307484  -0.535372  0  2.330227  0
O  O128  1  0.95985123  0.88436735  0.65596568  1  -1.148314  0  -0.307959  -0.535543  0  2.358155  0
O  O129  1  0.84716551  0.91336741  0.62734863  1  -1.166632  0  -0.307385  -0.535136  0  2.330282  0
O  O130  1  0.04026334  0.88423123  0.57539660  1  -1.155471  0  -0.30824  -0.535582  0  2.358179  0
O  O131  1  0.04133656  0.12707243  0.52565230  1  -1.171513  0  -0.307999  -0.536149  0  2.329371  0
O  O132  1  0.95863166  0.02562729  0.62709127  1  -1.17209  0  -0.30789  -0.535799  0  2.328936  0
O  O133  1  0.99999581  0.49999173  0.00000898  1  -1.230792  0  -0.570738  -1.037189  0  2.535704  0
O  O134  1  0.95927482  0.58658458  0.06624745  1  -1.165097  0  -0.307478  -0.535334  0  2.330326  0
O  O135  1  0.04041775  0.42458265  0.11560372  1  -1.156532  0  -0.308194  -0.535315  0  2.357744  0
O  O136  1  0.84727516  0.37293002  0.08572484  1  -1.162622  0  -0.307898  -0.535997  0  2.329603  0
O  O137  1  0.04071649  0.56621248  0.08662315  1  -1.165166  0  -0.307391  -0.535266  0  2.330392  0
O  O138  1  0.84727499  0.47437983  0.06697856  1  -1.167433  0  -0.307798  -0.535672  0  2.328853  0
O  O139  1  0.95963023  0.34402486  0.11582405  1  -1.147407  0  -0.308195  -0.535645  0  2.358197  0
O  O140  1  0.95927533  0.37264554  0.97451478  1  -1.170305  0  -0.30738  -0.535058  0  2.330461  0
O  O141  1  0.04034284  0.61573437  0.84399075  1  -1.149766  0  -0.308432  -0.535769  0  2.358669  0
O  O142  1  0.04069647  0.47445450  0.87270032  1  -1.178234  0  -0.307395  -0.535067  0  2.330611  0
O  O143  1  0.95969411  0.61565419  0.92453965  1  -1.155179  0  -0.308121  -0.535638  0  2.358144  0
O  O144  1  0.15272796  0.56699259  0.97434311  1  -1.166723  0  -0.307929  -0.536114  0  2.329539  0
O  O145  1  0.15271940  0.58571509  0.87289605  1  -1.162088  0  -0.307883  -0.535856  0  2.329028  0
O  O146  1  0.05781081  0.65306707  0.28777145  1  -0.405096  0  -0.113977  -0.305865  0  1.899321  0
O  O147  1  0.14213157  0.68320808  0.19136753  1  -0.411689  0  -0.119478  -0.307821  0  1.84138  0
O  O148  1  0.94219093  0.78773192  0.15307820  1  -0.404582  0  -0.114037  -0.306056  0  1.900082  0
O  O149  1  0.85789946  0.69134715  0.18314294  1  -0.41074  0  -0.119509  -0.307889  0  1.840393  0
O  O150  1  0.12636351  0.79886448  0.26031690  1  -0.411935  0  -0.11336  -0.304973  0  1.898489  0
O  O151  1  0.09873954  0.75395966  0.37144415  1  -0.423125  0  -0.119229  -0.307055  0  1.841271  0
O  O152  1  0.87354878  0.76024014  0.29892667  1  -0.412871  0  -0.113447  -0.305171  0  1.898305  0
O  O153  1  0.90122580  0.87137898  0.25395917  1  -0.42135  0  -0.119243  -0.307096  0  1.841276  0
O  O154  1  0.94220185  0.15444242  0.90471313  1  -0.417055  0  -0.113885  -0.30584  0  1.899588  0
O  O155  1  0.85788541  0.16651431  0.95891441  1  -0.437172  0  -0.119486  -0.307915  0  1.841127  0
O  O156  1  0.05781594  0.40473926  0.65443969  1  -0.41624  0  -0.113959  -0.30599  0  1.899682  0
O  O157  1  0.14211169  0.45889837  0.66657125  1  -0.436721  0  -0.119467  -0.30785  0  1.840934  0
O  O158  1  0.87356615  0.11332224  0.82750890  1  -0.419105  0  -0.113488  -0.305227  0  1.898627  0
O  O159  1  0.90122129  0.02984644  0.84478965  1  -0.421988  0  -0.119406  -0.307287  0  1.841302  0
O  O160  1  0.12636627  0.32748673  0.61333354  1  -0.418411  0  -0.113529  -0.305108  0  1.898796  0
O  O161  1  0.09872325  0.34478017  0.52984074  1  -0.423724  0  -0.119125  -0.306937  0  1.841827  0
O  O162  1  0.55918830  0.17252700  0.20106697  1  -0.407852  0  -0.11354  -0.305092  0  1.898606  0
O  O163  1  0.62536882  0.15523498  0.24603038  1  -0.418779  0  -0.119275  -0.307181  0  1.841152  0
O  O164  1  0.55916414  0.38668872  0.23970717  1  -0.42989  0  -0.113347  -0.305122  0  1.898925  0
O  O165  1  0.62536903  0.47017716  0.12858138  1  -0.411898  0  -0.119172  -0.307065  0  1.841385  0
O  O166  1  0.44082843  0.09527263  0.34686776  1  -0.409483  0  -0.113861  -0.305945  0  1.90028  0
O  O167  1  0.37451515  0.04109241  0.31676077  1  -0.411514  0  -0.119482  -0.307821  0  1.841003  0
O  O168  1  0.44080481  0.34556586  0.21224435  1  -0.411921  0  -0.114102  -0.306017  0  1.899286  0
O  O169  1  0.37453307  0.33346193  0.30865734  1  -0.426886  0  -0.119741  -0.308147  0  1.840957  0
O  O170  1  0.44083601  0.70109047  0.67249070  1  -0.407779  0  -0.113507  -0.305122  0  1.898738  0
O  O171  1  0.37462238  0.74600977  0.65521025  1  -0.419076  0  -0.119266  -0.307131  0  1.841571  0
O  O172  1  0.44082780  0.73967641  0.88669386  1  -0.429091  0  -0.113396  -0.304985  0  1.898514  0
O  O173  1  0.37462005  0.62855959  0.97018654  1  -0.412611  0  -0.11923  -0.307008  0  1.84139  0
O  O174  1  0.55915960  0.84689566  0.59527301  1  -0.408836  0  -0.114025  -0.305986  0  1.899948  0
O  O175  1  0.62547806  0.81682055  0.54106611  1  -0.412064  0  -0.1195  -0.307853  0  1.840984  0
O  O176  1  0.55918661  0.71223509  0.84557406  1  -0.411525  0  -0.113959  -0.305775  0  1.89952  0
O  O177  1  0.62546240  0.80863483  0.83348673  1  -0.426107  0  -0.119449  -0.307897  0  1.841099  0
F  F178  1  0.91484711  0.79902776  0.78599084  1  -0.60279  0  -0.078428  -0.08896  0  1.398059  0
F  F179  1  0.08515900  0.70086207  0.71393064  1  -0.603106  0  -0.078813  -0.089174  0  1.398543  0
F  F180  1  0.91488736  0.70087906  0.88419092  1  -0.601087  0  -0.078494  -0.089006  0  1.39797  0
F  F181  1  0.08527919  0.79918059  0.61572300  1  -0.601614  0  -0.07878  -0.089222  0  1.398469  0
F  F182  1  0.91485942  0.11579273  0.29910566  1  -0.601052  0  -0.078455  -0.089042  0  1.397907  0
F  F183  1  0.08505232  0.38424221  0.20103444  1  -0.601358  0  -0.078591  -0.08909  0  1.398394  0
F  F184  1  0.91497497  0.21399261  0.20080013  1  -0.602894  0  -0.078594  -0.089113  0  1.398097  0
F  F185  1  0.08513177  0.28603693  0.29915080  1  -0.603055  0  -0.078912  -0.089376  0  1.397851  0
