# generated using pymatgen
data_CdH22C24(N4O3)2
_symmetry_space_group_name_H-M   'P 1'
_cell_length_a   7.61286334
_cell_length_b   12.92938472
_cell_length_c   14.93382161
_cell_angle_alpha   89.99985219
_cell_angle_beta   89.99989667
_cell_angle_gamma   97.97852937
_symmetry_Int_Tables_number   1
_chemical_formula_structural   CdH22C24(N4O3)2
_chemical_formula_sum   'Cd2 H44 C48 N16 O12'
_cell_volume   1455.70196407
_cell_formula_units_Z   2
loop_
 _symmetry_equiv_pos_site_id
 _symmetry_equiv_pos_as_xyz
  1  'x, y, z'
loop_
 _atom_site_type_symbol
 _atom_site_label
 _atom_site_symmetry_multiplicity
 _atom_site_fract_x
 _atom_site_fract_y
 _atom_site_fract_z
 _atom_site_occupancy
 _atom_site_pbe_bader_charge
 _atom_site_pbe_bader_spin_density
 _atom_site_pbe_cm5_charge
 _atom_site_pbe_ddec_charge
 _atom_site_pbe_ddec_spin_density
 _atom_site_pbe_ddec_sum_bond_order
 _atom_site_pbe_magmom
Cd  Cd0  1  0.24080341  0.73278526  0.26084657  1  1.239759  0  0.782221  0.856109  0  2.163192  0
Cd  Cd1  1  0.75918421  0.26721301  0.76085684  1  1.239792  0  0.782161  0.856104  0  2.163293  0
H  H2  1  0.83378274  0.91888775  0.01894551  1  0.488419  0  0.345414  0.286925  0  0.912015  0
H  H3  1  0.16624323  0.08111328  0.51894135  1  0.488531  0  0.345324  0.286763  0  0.911901  0
H  H4  1  0.60190896  0.46593411  0.07687169  1  0.470666  0  0.351784  0.29685  0  0.891965  0
H  H5  1  0.39809401  0.53405522  0.57687433  1  0.470934  0  0.351759  0.296768  0  0.891887  0
H  H6  1  0.09334196  0.04983646  0.17682269  1  0.068152  0  0.103684  0.108024  0  0.987039  0
H  H7  1  0.90664797  0.95016441  0.67682862  1  0.068006  0  0.103727  0.108045  0  0.987021  0
H  H8  1  0.41500801  0.10942686  0.14851827  1  0.107454  0  0.101753  0.104962  0  1.013959  0
H  H9  1  0.58498644  0.89057093  0.64852195  1  0.107514  0  0.101821  0.105007  0  1.01382  0
H  H10  1  0.51215236  0.19103617  0.00332221  1  0.111076  0  0.104268  0.118134  0  1.01  0
H  H11  1  0.48784755  0.80896048  0.50332616  1  0.111142  0  0.10428  0.118201  0  1.009915  0
H  H12  1  0.28629845  0.21722583  0.88722798  1  0.128389  0  0.103678  0.109467  0  1.048062  0
H  H13  1  0.71371318  0.78278037  0.38722854  1  0.128444  0  0.10368  0.10945  0  1.048157  0
H  H14  1  0.41638030  0.67626177  0.01202946  1  0.059278  0  0.096349  0.09592  0  1.031571  0
H  H15  1  0.58359474  0.32373042  0.51203106  1  0.059095  0  0.096329  0.0959  0  1.031667  0
H  H16  1  0.10786855  0.65971304  0.95435238  1  0.108079  0  0.098888  0.099642  0  1.027476  0
H  H17  1  0.89212652  0.34028606  0.45435779  1  0.108041  0  0.098867  0.099613  0  1.027497  0
H  H18  1  0.99683170  0.51501886  0.85050263  1  0.115466  0  0.103477  0.117349  0  1.014383  0
H  H19  1  0.00316637  0.48498526  0.35050719  1  0.11552  0  0.103526  0.117406  0  1.014303  0
H  H20  1  0.19959938  0.38888977  0.80279934  1  0.08521  0  0.10053  0.103997  0  1.04947  0
H  H21  1  0.80038944  0.61110364  0.30280288  1  0.085393  0  0.100496  0.103966  0  1.049463  0
H  H22  1  0.92082416  0.78655122  0.16378999  1  0.080079  0  0.102981  0.156572  0  1.014975  0
H  H23  1  0.07914892  0.21344047  0.66378762  1  0.079696  0  0.102898  0.156473  0  1.015043  0
H  H24  1  0.71103809  0.70639048  0.17321174  1  0.138449  0  0.104441  0.169983  0  1.018408  0
H  H25  1  0.28894502  0.29359952  0.67320766  1  0.138129  0  0.104372  0.169895  0  1.018514  0
H  H26  1  0.80112249  0.74136425  0.06431121  1  0.083114  0  0.097477  0.141804  0  1.028008  0
H  H27  1  0.19885440  0.25863557  0.56430862  1  0.082882  0  0.097425  0.141721  0  1.028191  0
H  H28  1  0.09214255  0.33209000  0.07101624  1  0.080152  0  0.105479  0.161453  0  0.987546  0
H  H29  1  0.90787547  0.66791642  0.57102079  1  0.080231  0  0.105487  0.161372  0  0.987557  0
H  H30  1  0.91949133  0.36037948  0.99714849  1  0.075212  0  0.103946  0.163113  0  1.000508  0
H  H31  1  0.08052141  0.63962243  0.49715196  1  0.075216  0  0.103956  0.163148  0  1.000438  0
H  H32  1  0.86656684  0.30697190  0.10497038  1  0.092471  0  0.101475  0.158337  0  0.999798  0
H  H33  1  0.13344690  0.69303367  0.60497224  1  0.092228  0  0.101488  0.158395  0  0.999712  0
H  H34  1  0.55904914  0.89845767  0.30278995  1  0.093336  0  0.108216  0.159917  0  1.011356  0
H  H35  1  0.44095692  0.10153634  0.80279018  1  0.093401  0  0.10823  0.159909  0  1.011323  0
H  H36  1  0.68711825  0.00675682  0.24736168  1  0.081254  0  0.10593  0.160218  0  0.994147  0
H  H37  1  0.31288475  0.99323976  0.74736404  1  0.08121  0  0.105906  0.1602  0  0.994142  0
H  H38  1  0.75762242  0.88081427  0.24624106  1  0.130647  0  0.106207  0.164302  0  1.011121  0
H  H39  1  0.24237775  0.11918156  0.74624678  1  0.130682  0  0.106169  0.164253  0  1.011002  0
H  H40  1  0.32090588  0.89034197  0.89529614  1  0.109393  0  0.112294  0.168233  0  0.963209  0
H  H41  1  0.67912923  0.10966866  0.39530293  1  0.109341  0  0.112353  0.168374  0  0.963027  0
H  H42  1  0.52763203  0.84142471  0.89165671  1  0.076932  0  0.107109  0.157057  0  0.972324  0
H  H43  1  0.47239627  0.15858991  0.39166091  1  0.076949  0  0.107109  0.157081  0  0.972292  0
H  H44  1  0.52490672  0.97853147  0.90340439  1  0.138371  0  0.104966  0.161841  0  1.010417  0
H  H45  1  0.47512387  0.02147213  0.40340353  1  0.13832  0  0.104997  0.161836  0  1.010211  0
C  C46  1  0.06553520  0.14439040  0.96432163  1  0.00222  0  -0.017251  -0.060961  0  3.960288  0
C  C47  1  0.93447355  0.85561087  0.46432115  1  0.002648  0  -0.017216  -0.060794  0  3.960177  0
C  C48  1  0.01114439  0.09864660  0.04695505  1  -0.064505  0  -0.00989  -0.053987  0  3.989733  0
C  C49  1  0.98884650  0.90135626  0.54695699  1  -0.064948  0  -0.0099  -0.054183  0  3.990103  0
C  C50  1  0.13681989  0.08600286  0.11307137  1  -0.020806  0  -0.088435  -0.114783  0  3.988922  0
C  C51  1  0.86317920  0.91398717  0.61308210  1  -0.020385  0  -0.088553  -0.114725  0  3.988802  0
C  C52  1  0.31640340  0.11939149  0.09755479  1  -0.074998  0  -0.086725  -0.065706  0  3.995901  0
C  C53  1  0.68359583  0.88060877  0.59755572  1  -0.074684  0  -0.086769  -0.065836  0  3.995661  0
C  C54  1  0.37157313  0.16575296  0.01586162  1  -0.010363  0  -0.08974  -0.082304  0  3.969648  0
C  C55  1  0.62843107  0.83424518  0.51586137  1  -0.010766  0  -0.089717  -0.082268  0  3.969593  0
C  C56  1  0.24632950  0.17859021  0.95021393  1  -0.102904  0  -0.08382  -0.090127  0  3.955811  0
C  C57  1  0.75367772  0.82141504  0.45021236  1  -0.103328  0  -0.083784  -0.090128  0  3.95589  0
C  C58  1  0.93278665  0.16367415  0.89405721  1  1.557727  0  0.189682  0.554963  0  4.251056  0
C  C59  1  0.06722102  0.83633207  0.39405624  1  1.557244  0  0.189638  0.554819  0  4.251246  0
C  C60  1  0.81998571  0.06806635  0.07178291  1  1.39322  0  0.259098  0.490038  0  4.141811  0
C  C61  1  0.17999832  0.93193572  0.57178419  1  1.393332  0  0.25919  0.490091  0  4.1416  0
C  C62  1  0.42366630  0.46463954  0.87583337  1  -0.027113  0  -0.01728  -0.060275  0  3.966538  0
C  C63  1  0.57631608  0.53535526  0.37582725  1  -0.027456  0  -0.017385  -0.060402  0  3.966863  0
C  C64  1  0.48430887  0.54576881  0.93567728  1  -0.044589  0  -0.010757  -0.051652  0  3.985601  0
C  C65  1  0.51569497  0.45423340  0.43567675  1  -0.044477  0  -0.010691  -0.051607  0  3.985811  0
C  C66  1  0.36983566  0.61489993  0.96414083  1  -0.000495  0  -0.093258  -0.116761  0  3.997  0
C  C67  1  0.63014834  0.38509221  0.46414035  1  -0.000603  0  -0.093206  -0.116745  0  3.997104  0
C  C68  1  0.19616606  0.60523583  0.93239486  1  -0.082495  0  -0.08521  -0.059311  0  3.979393  0
C  C69  1  0.80382159  0.39475480  0.43239487  1  -0.082404  0  -0.085171  -0.059209  0  3.979467  0
C  C70  1  0.13395687  0.52412907  0.87370538  1  -0.013952  0  -0.08839  -0.075754  0  3.952564  0
C  C71  1  0.86603276  0.47586331  0.37370850  1  -0.013617  0  -0.088533  -0.075876  0  3.952574  0
C  C72  1  0.24717812  0.45413552  0.84642974  1  -0.025191  0  -0.085798  -0.089992  0  3.95475  0
C  C73  1  0.75280749  0.54585622  0.34643012  1  -0.025416  0  -0.085665  -0.089884  0  3.954743  0
C  C74  1  0.54594490  0.39238624  0.84211530  1  1.546085  0  0.192484  0.5575  0  4.220566  0
C  C75  1  0.45404169  0.60761411  0.34211382  1  1.54634  0  0.192404  0.557276  0  4.220456  0
C  C76  1  0.67192846  0.56734283  0.96877452  1  1.412153  0  0.256158  0.489388  0  4.146394  0
C  C77  1  0.32807765  0.43265846  0.46877823  1  1.41217  0  0.256085  0.489324  0  4.146371  0
C  C78  1  0.92517358  0.62840516  0.13204745  1  0.971457  0  0.23836  0.324292  0  3.993885  0
C  C79  1  0.07481281  0.37159669  0.63204741  1  0.971801  0  0.238401  0.324264  0  3.993922  0
C  C80  1  0.83365656  0.72167289  0.13334713  1  -0.090923  0  -0.240805  -0.490546  0  3.947391  0
C  C81  1  0.16631969  0.27832044  0.63334587  1  -0.090181  0  -0.240542  -0.490173  0  3.947563  0
C  C82  1  0.98401553  0.46824702  0.10325926  1  0.971908  0  0.234258  0.318624  0  3.99126  0
C  C83  1  0.01598733  0.53175710  0.60326628  1  0.971872  0  0.234243  0.318541  0  3.991396  0
C  C84  1  0.96386615  0.36098738  0.06717419  1  -0.024391  0  -0.232567  -0.469975  0  3.931526  0
C  C85  1  0.03614955  0.63901516  0.56717760  1  -0.024245  0  -0.232638  -0.469977  0  3.931381  0
C  C86  1  0.53412420  0.89805941  0.16272602  1  1.005678  0  0.240417  0.326421  0  3.977687  0
C  C87  1  0.46588068  0.10193822  0.66272756  1  1.005353  0  0.240478  0.326396  0  3.97778  0
C  C88  1  0.64131660  0.92242565  0.24429046  1  -0.079119  0  -0.230095  -0.48022  0  3.924789  0
C  C89  1  0.35868792  0.07757171  0.74429081  1  -0.079166  0  -0.230041  -0.48012  0  3.924594  0
C  C90  1  0.44784511  0.89010070  0.02042157  1  0.97514  0  0.233138  0.30655  0  4.003849  0
C  C91  1  0.55216135  0.10990601  0.52042368  1  0.974832  0  0.233097  0.306533  0  4.004018  0
C  C92  1  0.45620675  0.90116032  0.92194363  1  -0.106606  0  -0.222815  -0.463085  0  3.93196  0
C  C93  1  0.54381976  0.09884796  0.42194790  1  -0.106358  0  -0.22295  -0.463348  0  3.931627  0
N  N94  1  0.75776267  0.96501749  0.05217276  1  -0.812577  0  -0.300545  -0.297266  0  3.553397  0
N  N95  1  0.24224903  0.03497966  0.55217398  1  -0.812667  0  -0.300471  -0.297032  0  3.553163  0
N  N96  1  0.59042149  0.92052632  0.07669105  1  -0.85753  0  -0.129097  0.027515  0  3.724898  0
N  N97  1  0.40959072  0.07947309  0.57669270  1  -0.85748  0  -0.129104  0.027469  0  3.725122  0
N  N98  1  0.36675053  0.85445187  0.15797786  1  -0.780587  0  -0.252272  -0.269484  0  3.443113  0
N  N99  1  0.63325609  0.14554733  0.65797915  1  -0.780195  0  -0.25223  -0.269382  0  3.443305  0
N  N100  1  0.31204884  0.84865407  0.06918146  1  -0.733911  0  -0.23749  -0.272437  0  3.172567  0
N  N101  1  0.68795685  0.15134543  0.56918604  1  -0.733935  0  -0.237497  -0.272419  0  3.172781  0
N  N102  1  0.69927518  0.51700943  0.04823591  1  -0.788974  0  -0.296274  -0.286482  0  3.529488  0
N  N103  1  0.30072123  0.48298946  0.54823541  1  -0.789266  0  -0.296285  -0.286368  0  3.529536  0
N  N104  1  0.85865126  0.53557352  0.09256808  1  -0.855682  0  -0.130428  0.015816  0  3.734609  0
N  N105  1  0.14134447  0.46442836  0.59256843  1  -0.855687  0  -0.130362  0.015899  0  3.734658  0
N  N106  1  0.08117501  0.61685227  0.16622464  1  -0.768735  0  -0.250411  -0.25627  0  3.456625  0
N  N107  1  0.91881578  0.38315176  0.66622446  1  -0.768671  0  -0.250428  -0.256244  0  3.456628  0
N  N108  1  0.11860939  0.51670745  0.14916346  1  -0.698305  0  -0.238849  -0.268499  0  3.137233  0
N  N109  1  0.88139127  0.48329888  0.64916711  1  -0.698498  0  -0.238905  -0.268585  0  3.137484  0
O  O110  1  0.76914309  0.13802952  0.90833028  1  -1.177257  0  -0.327038  -0.568243  0  2.158699  0
O  O111  1  0.23086052  0.86198139  0.40833647  1  -1.176971  0  -0.327015  -0.568253  0  2.158766  0
O  O112  1  0.99658009  0.21011062  0.82223827  1  -1.157622  0  -0.337437  -0.554451  0  2.266913  0
O  O113  1  0.00342452  0.78990292  0.32223277  1  -1.157482  0  -0.337433  -0.554354  0  2.26702  0
O  O114  1  0.73307829  0.12327297  0.11590689  1  -1.12486  0  -0.2739  -0.46347  0  2.145719  0
O  O115  1  0.26691251  0.87673045  0.61591291  1  -1.124823  0  -0.274026  -0.463586  0  2.14538  0
O  O116  1  0.70363102  0.40098360  0.87175666  1  -1.162885  0  -0.317881  -0.54486  0  2.194011  0
O  O117  1  0.29635041  0.59900261  0.37175266  1  -1.163074  0  -0.317822  -0.544769  0  2.193852  0
O  O118  1  0.48760453  0.32401981  0.78269123  1  -1.167116  0  -0.33378  -0.552913  0  2.219476  0
O  O119  1  0.51239783  0.67597980  0.28268820  1  -1.167047  0  -0.333729  -0.55273  0  2.219266  0
O  O120  1  0.78454520  0.63389222  0.93573329  1  -1.142508  0  -0.287878  -0.471491  0  2.12046  0
O  O121  1  0.21546001  0.36610527  0.43573524  1  -1.142408  0  -0.287875  -0.471506  0  2.120279  0
