# generated using pymatgen
data_Mn5H26(C8O9)2
_symmetry_space_group_name_H-M   'P 1'
_cell_length_a   12.33744604
_cell_length_b   18.00289920
_cell_length_c   17.99769116
_cell_angle_alpha   83.26036275
_cell_angle_beta   69.93751583
_cell_angle_gamma   69.96946059
_symmetry_Int_Tables_number   1
_chemical_formula_structural   Mn5H26(C8O9)2
_chemical_formula_sum   'Mn20 H104 C64 O72'
_cell_volume   3527.76086600
_cell_formula_units_Z   4
loop_
 _symmetry_equiv_pos_site_id
 _symmetry_equiv_pos_as_xyz
  1  'x, y, z'
loop_
 _atom_site_type_symbol
 _atom_site_label
 _atom_site_symmetry_multiplicity
 _atom_site_fract_x
 _atom_site_fract_y
 _atom_site_fract_z
 _atom_site_occupancy
 _atom_site_pbe_bader_charge
 _atom_site_pbe_bader_spin_density
 _atom_site_pbe_cm5_charge
 _atom_site_pbe_ddec_charge
 _atom_site_pbe_ddec_spin_density
 _atom_site_pbe_ddec_sum_bond_order
 _atom_site_pbe_magmom
Mn  Mn0  1  0.42133963  0.32364021  0.78087524  1  1.516825  4.565171  0.59411  1.065488  4.671471  2.308698  4.493
Mn  Mn1  1  0.02590915  0.17644509  0.71909076  1  1.516913  4.565259  0.594642  1.067237  4.670137  2.306136  4.493
Mn  Mn2  1  0.20204522  0.21927478  0.82363268  1  1.517336  4.565226  0.594576  1.066882  4.672749  2.306749  4.493
Mn  Mn3  1  0.74504021  0.28101987  0.67646535  1  1.517567  4.565402  0.594449  1.066366  4.671348  2.307147  4.493
Mn  Mn4  1  0.57865842  0.67636247  0.21912745  1  1.516927  4.565152  0.594136  1.06553  4.671483  2.308595  4.493
Mn  Mn5  1  0.97409333  0.82355995  0.28090127  1  1.516968  4.565248  0.594687  1.067395  4.670128  2.305999  4.493
Mn  Mn6  1  0.79794829  0.78072612  0.17636683  1  1.517149  4.565285  0.594557  1.066793  4.672752  2.306931  4.493
Mn  Mn7  1  0.25495957  0.71898104  0.32353395  1  1.517525  4.565418  0.594456  1.066411  4.671355  2.307056  4.493
Mn  Mn8  1  0.12787933  0.41412171  0.82527504  1  1.514547  4.57695  0.594661  1.036403  4.687526  2.273351  4.503
Mn  Mn9  1  0.86699447  0.08613516  0.67481734  1  1.51532  4.576585  0.594927  1.037537  4.687529  2.272712  4.503
Mn  Mn10  1  0.95310114  0.17474099  0.91408839  1  1.515266  4.576381  0.594411  1.036249  4.68711  2.274839  4.503
Mn  Mn11  1  0.54217995  0.32526702  0.58590825  1  1.51585  4.576666  0.595008  1.036851  4.689365  2.272157  4.503
Mn  Mn12  1  0.87211794  0.58587860  0.17472703  1  1.514605  4.576946  0.594661  1.036345  4.687528  2.273381  4.503
Mn  Mn13  1  0.13300403  0.91386811  0.32517607  1  1.515336  4.576581  0.594973  1.037597  4.687567  2.272647  4.503
Mn  Mn14  1  0.04689047  0.82525341  0.08590509  1  1.515329  4.576359  0.594428  1.036281  4.687083  2.274825  4.503
Mn  Mn15  1  0.45781523  0.67473448  0.41409701  1  1.51586  4.576654  0.59495  1.036769  4.689361  2.272336  4.503
Mn  Mn16  1  0.99999434  0.49999781  0.00000256  1  1.526015  4.579347  0.592403  1.029214  4.696231  2.281956  4.509
Mn  Mn17  1  0.00000404  0.99999815  0.50000133  1  1.528446  4.579357  0.592836  1.029979  4.696539  2.280499  4.51
Mn  Mn18  1  0.99999768  0.99999547  0.99999973  1  1.526472  4.579432  0.591544  1.028355  4.696497  2.281787  4.51
Mn  Mn19  1  0.49999770  0.50000400  0.50000391  1  1.527003  4.57932  0.592456  1.029645  4.696109  2.283158  4.51
H  H20  1  0.25466067  0.30220791  0.90868296  1  0.608468  0.008995  0.320861  0.402536  0.005292  0.881791  0.008
H  H21  1  0.96546124  0.19798948  0.59134234  1  0.610508  0.008969  0.32179  0.403293  0.005284  0.880968  0.008
H  H22  1  0.16349197  0.09143874  0.80203316  1  0.610679  0.008978  0.321784  0.403322  0.005278  0.881186  0.008
H  H23  1  0.55690068  0.40869121  0.69787633  1  0.606812  0.009003  0.321136  0.402685  0.005281  0.882044  0.008
H  H24  1  0.74533671  0.69779122  0.09131530  1  0.609056  0.008988  0.320896  0.40263  0.005291  0.881755  0.008
H  H25  1  0.03454421  0.80200906  0.40864740  1  0.61069  0.008964  0.321888  0.403375  0.005281  0.880916  0.008
H  H26  1  0.83650768  0.90855980  0.19796060  1  0.610663  0.008979  0.321781  0.403348  0.005278  0.881068  0.008
H  H27  1  0.44310266  0.59130969  0.30212629  1  0.606745  0.009003  0.321159  0.402727  0.00528  0.882018  0.008
H  H28  1  0.38777842  0.46600911  0.98297966  1  0.086657  0.001309  0.099609  0.154688  0.000606  0.989024  0.0
H  H29  1  0.33659735  0.03391705  0.51680382  1  0.058178  0.001333  0.100188  0.155969  0.000604  0.989833  0.0
H  H30  1  0.37046476  0.01706857  0.96601697  1  0.093317  0.001307  0.100311  0.156189  0.000606  0.988003  0.0
H  H31  1  0.85396941  0.48295399  0.53364574  1  0.052753  0.001337  0.098992  0.154411  0.000607  0.990355  0.0
H  H32  1  0.61220482  0.53399061  0.01702885  1  0.086621  0.00131  0.099623  0.154693  0.000606  0.988871  0.0
H  H33  1  0.66340352  0.96608148  0.48319472  1  0.058229  0.001333  0.100188  0.155964  0.000605  0.989684  0.0
H  H34  1  0.62952464  0.98293529  0.03397659  1  0.093266  0.001307  0.100313  0.156167  0.000605  0.988062  0.0
H  H35  1  0.14602490  0.51705223  0.46635633  1  0.052511  0.001337  0.099008  0.154425  0.000607  0.990252  0.0
H  H36  1  0.22452412  0.50749760  0.02533585  1  0.082908  0.002388  0.098948  0.149757  0.001024  1.038457  0.001
H  H37  1  0.25696477  0.99237914  0.47467629  1  0.065075  0.00243  0.098958  0.149394  0.001036  1.038491  0.001
H  H38  1  0.24944273  0.97477937  0.00740585  1  0.083285  0.002412  0.098941  0.149066  0.001039  1.039975  0.001
H  H39  1  0.73212765  0.52521384  0.49222310  1  0.075436  0.002395  0.098573  0.149861  0.001026  1.038638  0.001
H  H40  1  0.77546618  0.49250449  0.97467307  1  0.08313  0.002388  0.098896  0.14966  0.001024  1.038655  0.001
H  H41  1  0.74303906  0.00762059  0.52532045  1  0.06529  0.00243  0.098966  0.149368  0.001036  1.038511  0.001
H  H42  1  0.75055243  0.02522272  0.99259144  1  0.083237  0.002411  0.098945  0.149026  0.001039  1.039933  0.001
H  H43  1  0.26786739  0.47479298  0.50777710  1  0.075305  0.002395  0.09856  0.149838  0.001026  1.038747  0.001
H  H44  1  0.30819426  0.55944728  0.95103464  1  0.056395  0.001158  0.101946  0.156625  0.00051  0.988458  0.001
H  H45  1  0.31836538  0.94051847  0.54894684  1  0.056822  0.001158  0.10232  0.157509  0.000509  0.988337  0.001
H  H46  1  0.25868853  0.04900408  0.05948278  1  0.0542  0.001157  0.102083  0.157402  0.000506  0.988559  0.001
H  H47  1  0.86763532  0.45087156  0.44025727  1  0.024109  0.001182  0.10244  0.157615  0.000508  0.988554  0.001
H  H48  1  0.69179985  0.44055599  0.04897421  1  0.05623  0.001157  0.102011  0.156715  0.00051  0.988689  0.001
H  H49  1  0.68163814  0.05947889  0.45105308  1  0.056817  0.001157  0.102314  0.157525  0.000509  0.988439  0.001
H  H50  1  0.74130557  0.95099919  0.94051071  1  0.054353  0.001157  0.101997  0.157342  0.000506  0.988733  0.001
H  H51  1  0.13236277  0.54913348  0.55974508  1  0.024412  0.001182  0.10246  0.157643  0.000509  0.988415  0.001
H  H52  1  0.14524892  0.56735456  0.70527721  1  0.086448  0.00157  0.100045  0.156576  0.000451  1.025437  0.001
H  H53  1  0.91703425  0.93289533  0.79495965  1  0.078855  0.001581  0.099705  0.155797  0.000456  1.025591  0.001
H  H54  1  0.84978824  0.29501460  0.06740383  1  0.067355  0.001591  0.099819  0.155828  0.000453  1.024964  0.001
H  H55  1  0.71201449  0.20466924  0.43286537  1  0.054405  0.001604  0.101167  0.15724  0.000452  1.024676  0.001
H  H56  1  0.85475341  0.43265285  0.29472832  1  0.086379  0.00157  0.100099  0.156703  0.000451  1.025359  0.001
H  H57  1  0.08297175  0.06709966  0.20503044  1  0.078957  0.001582  0.099756  0.1558  0.000456  1.025547  0.001
H  H58  1  0.15022231  0.70497507  0.93259637  1  0.067648  0.001591  0.099793  0.155786  0.000453  1.024943  0.001
H  H59  1  0.28797528  0.79532753  0.56714328  1  0.054563  0.001604  0.101091  0.157076  0.000452  1.024518  0.001
H  H60  1  0.26629047  0.59129952  0.62614350  1  0.076576  0.001037  0.097862  0.152997  0.00013  1.029471  0.0
H  H61  1  0.98292814  0.90891376  0.87405417  1  0.075505  0.001049  0.097732  0.15297  0.00013  1.029806  0.0
H  H62  1  0.89153692  0.37421291  0.09131533  1  0.073584  0.001043  0.098502  0.153283  0.000126  1.030174  0.0
H  H63  1  0.85705556  0.12564479  0.40883678  1  0.074112  0.001058  0.098296  0.152496  0.00014  1.030917  0.0
H  H64  1  0.73371699  0.40870139  0.37386189  1  0.076506  0.001037  0.097839  0.15301  0.00013  1.029292  0.0
H  H65  1  0.01707533  0.09108123  0.12593585  1  0.075321  0.001049  0.097776  0.153009  0.00013  1.029697  0.0
H  H66  1  0.10847430  0.62577617  0.90868791  1  0.073413  0.001043  0.098552  0.153447  0.000125  1.030074  0.0
H  H67  1  0.14293023  0.87435434  0.59116952  1  0.073695  0.001059  0.098362  0.152511  0.00014  1.030879  0.0
H  H68  1  0.26882531  0.57874329  0.72571912  1  0.056417  0.002367  0.105562  0.164191  0.001121  0.972396  0.001
H  H69  1  0.07254999  0.92132207  0.77442878  1  0.055138  0.002367  0.105651  0.164279  0.001119  0.972859  0.001
H  H70  1  0.99360119  0.27467016  0.07907374  1  0.057937  0.00235  0.106062  0.165103  0.001115  0.971813  0.001
H  H71  1  0.84702625  0.22531460  0.42089139  1  0.05461  0.002341  0.105289  0.163739  0.001105  0.972612  0.001
H  H72  1  0.73118371  0.42125880  0.27428329  1  0.056604  0.002366  0.105582  0.164232  0.001121  0.972364  0.001
H  H73  1  0.92745403  0.07867352  0.22556297  1  0.055317  0.002368  0.105591  0.164165  0.001119  0.972784  0.001
H  H74  1  0.00640639  0.72532187  0.92092224  1  0.05807  0.00235  0.106095  0.165042  0.001115  0.971868  0.001
H  H75  1  0.15296118  0.77468631  0.57910985  1  0.05491  0.002341  0.10528  0.163779  0.001104  0.972613  0.001
H  H76  1  0.17969232  0.40079709  0.60729437  1  0.081998  0.001834  0.104327  0.161862  0.00059  0.99809  0.001
H  H77  1  0.68790544  0.09962359  0.89284137  1  0.068098  0.001851  0.105059  0.16242  0.000586  0.997467  0.001
H  H78  1  0.78721983  0.39271176  0.90084655  1  0.061339  0.001858  0.103954  0.161113  0.000592  0.997885  0.001
H  H79  1  0.58066003  0.10724427  0.59944306  1  0.079319  0.001845  0.104068  0.161687  0.000593  0.998195  0.001
H  H80  1  0.82030541  0.59920736  0.39270777  1  0.081959  0.001833  0.104326  0.161827  0.00059  0.998074  0.001
H  H81  1  0.31210074  0.90037554  0.10715675  1  0.068154  0.001852  0.105025  0.162367  0.000587  0.997332  0.001
H  H82  1  0.21277778  0.60728974  0.09915289  1  0.061306  0.001858  0.103938  0.16104  0.000592  0.997889  0.001
H  H83  1  0.41935227  0.89275368  0.40055900  1  0.07943  0.001844  0.104113  0.161776  0.000593  0.998346  0.001
H  H84  1  0.04524380  0.45495373  0.68153402  1  0.090163  0.002806  0.098097  0.152122  0.001385  1.029749  0.001
H  H85  1  0.68169274  0.04542373  0.81870255  1  0.050323  0.002892  0.09818  0.152203  0.001395  1.029976  0.001
H  H86  1  0.72709668  0.31843992  0.95495911  1  0.092187  0.002812  0.098203  0.152514  0.001394  1.029692  0.001
H  H87  1  0.50049979  0.18141908  0.54520290  1  0.087284  0.002823  0.098348  0.152271  0.00139  1.030159  0.001
H  H88  1  0.95475500  0.54504894  0.31846964  1  0.08982  0.002806  0.098102  0.152101  0.001385  1.029856  0.001
H  H89  1  0.31831454  0.95458013  0.18129300  1  0.050325  0.002891  0.098158  0.152181  0.001394  1.029974  0.001
H  H90  1  0.27290607  0.68155802  0.04503700  1  0.092102  0.002812  0.098191  0.152496  0.001393  1.029707  0.001
H  H91  1  0.49950441  0.81858124  0.45480429  1  0.087157  0.002824  0.098287  0.152209  0.00139  1.030047  0.001
H  H92  1  0.03496835  0.40504397  0.60403837  1  0.054877  0.001028  0.100202  0.157377  0.000269  0.990451  0.0
H  H93  1  0.54411208  0.09526094  0.89632139  1  0.102185  0.000999  0.10045  0.158136  0.00027  0.991662  0.0
H  H94  1  0.63926554  0.39589385  0.90512522  1  0.047208  0.001041  0.100369  0.158483  0.000271  0.991184  0.0
H  H95  1  0.44014747  0.10402503  0.59518198  1  0.084948  0.00101  0.100945  0.159232  0.000268  0.991674  0.0
H  H96  1  0.96503242  0.59495812  0.39596362  1  0.054993  0.001028  0.100173  0.157344  0.000269  0.990513  0.0
H  H97  1  0.45589155  0.90474292  0.10367520  1  0.10207  0.000999  0.100484  0.158166  0.00027  0.991773  0.0
H  H98  1  0.36073523  0.60410469  0.09487256  1  0.047165  0.001041  0.10037  0.158462  0.000271  0.991225  0.0
H  H99  1  0.55985934  0.89597529  0.40481580  1  0.084906  0.00101  0.100957  0.159256  0.000268  0.991757  0.0
H  H100  1  0.88363847  0.64398503  0.75090925  1  0.053408  0.001472  0.094999  0.144856  0.000684  1.000606  0.001
H  H101  1  0.77732977  0.85669266  0.74935011  1  0.051923  0.001472  0.094929  0.145422  0.000683  1.000322  0.001
H  H102  1  0.63461403  0.24911168  0.14406456  1  0.057005  0.001472  0.094732  0.145144  0.000684  1.000365  0.001
H  H103  1  0.52637227  0.25105255  0.35634084  1  0.055069  0.001472  0.094588  0.145286  0.000685  1.000306  0.001
H  H104  1  0.11636254  0.35601529  0.24909254  1  0.053161  0.001472  0.09498  0.144842  0.000684  1.000543  0.001
H  H105  1  0.22267237  0.14330351  0.25064406  1  0.051827  0.001473  0.094876  0.145362  0.000683  1.0003  0.001
H  H106  1  0.36540008  0.75088509  0.85593716  1  0.056839  0.001472  0.094752  0.145221  0.000685  1.00025  0.001
H  H107  1  0.47362357  0.74894895  0.64366975  1  0.054745  0.001472  0.094586  0.145293  0.000685  1.000256  0.001
H  H108  1  0.87913266  0.70190292  0.82736605  1  0.04754  0.00168  0.097335  0.145756  0.0009  1.000604  0.001
H  H109  1  0.90714128  0.79846071  0.67306377  1  0.04958  0.001676  0.097872  0.147418  0.000898  0.999475  0.001
H  H110  1  0.70638290  0.17269898  0.20207206  1  0.044426  0.001688  0.09839  0.147631  0.000903  1.000003  0.001
H  H111  1  0.58006355  0.32729247  0.29817922  1  0.058374  0.001668  0.098478  0.147763  0.000897  0.999112  0.001
H  H112  1  0.12087041  0.29809739  0.17263712  1  0.047551  0.00168  0.09733  0.145793  0.0009  1.000587  0.001
H  H113  1  0.09286180  0.20153901  0.32693200  1  0.049601  0.001676  0.097857  0.1474  0.000898  0.999545  0.001
H  H114  1  0.29363883  0.82729601  0.79792301  1  0.044451  0.001688  0.098466  0.147778  0.000903  0.999866  0.001
H  H115  1  0.41993524  0.67270666  0.70182534  1  0.058338  0.001668  0.098478  0.147754  0.000897  0.999164  0.001
H  H116  1  0.76112461  0.66167681  0.84309213  1  0.084578  0.001271  0.103914  0.158395  0.000637  0.978144  0.001
H  H117  1  0.76473570  0.83880363  0.65722834  1  0.076882  0.001275  0.103446  0.158298  0.000637  0.979016  0.001
H  H118  1  0.60415909  0.15703099  0.16176696  1  0.070786  0.001279  0.104655  0.159243  0.000635  0.979437  0.001
H  H119  1  0.42178017  0.34330966  0.33876260  1  0.080555  0.001274  0.103667  0.157798  0.000639  0.979085  0.001
H  H120  1  0.23887424  0.33832764  0.15690890  1  0.084652  0.001271  0.103945  0.158428  0.000637  0.978032  0.001
H  H121  1  0.23526494  0.16119255  0.34276902  1  0.076883  0.001275  0.103477  0.158345  0.000637  0.979056  0.001
H  H122  1  0.39584666  0.84296696  0.83823815  1  0.070786  0.001278  0.10469  0.159307  0.000634  0.979491  0.001
H  H123  1  0.57821427  0.65669125  0.66124453  1  0.080583  0.001275  0.103646  0.157752  0.000639  0.979053  0.001
C  C124  1  0.28877457  0.46140499  0.90686352  1  1.555274  0.022483  0.232935  0.716458  0.020262  4.072379  0.02
C  C125  1  0.15683177  0.03863589  0.59312588  1  1.550567  0.022488  0.234134  0.716377  0.020219  4.072863  0.02
C  C126  1  0.19541876  0.09320672  0.96134209  1  1.554636  0.022463  0.233216  0.715703  0.020204  4.074734  0.02
C  C127  1  0.75017861  0.40688503  0.53853092  1  1.549304  0.022405  0.234074  0.716119  0.020198  4.073405  0.02
C  C128  1  0.71121694  0.53859709  0.09314506  1  1.555122  0.022477  0.232923  0.716429  0.020255  4.072782  0.02
C  C129  1  0.84317301  0.96136324  0.40687107  1  1.550316  0.022486  0.234231  0.716464  0.020216  4.072804  0.02
C  C130  1  0.80457122  0.90679300  0.03865465  1  1.554416  0.022463  0.233315  0.715827  0.0202  4.074431  0.02
C  C131  1  0.24981649  0.59311942  0.46147038  1  1.549312  0.022411  0.234079  0.716071  0.020205  4.073328  0.02
C  C132  1  0.30295424  0.50033594  0.97130851  1  -0.128456  0.00576  -0.243231  -0.534153  0.004342  3.900513  0.003
C  C133  1  0.27430789  0.99959951  0.52864534  1  -0.079092  0.005722  -0.244059  -0.535729  0.004359  3.901426  0.003
C  C134  1  0.27387943  0.02876443  0.00030704  1  -0.13381  0.005782  -0.243094  -0.534786  0.004361  3.90283  0.003
C  C135  1  0.80337532  0.47121100  0.49938996  1  -0.049969  0.00568  -0.243137  -0.535446  0.004341  3.904389  0.003
C  C136  1  0.69704392  0.49965492  0.02870332  1  -0.128555  0.005762  -0.243292  -0.534198  0.004343  3.900766  0.003
C  C137  1  0.72569604  0.00040376  0.47135126  1  -0.079248  0.005721  -0.24407  -0.535736  0.004358  3.901457  0.003
C  C138  1  0.72611062  0.97123589  0.99968763  1  -0.133841  0.005783  -0.242991  -0.534634  0.004362  3.902776  0.003
C  C139  1  0.19662317  0.52879287  0.50061086  1  -0.049801  0.005679  -0.24311  -0.535401  0.004341  3.904323  0.003
C  C140  1  0.31121677  0.47060439  0.66923924  1  1.560493  0.031756  0.245933  0.723998  0.0292  4.041466  0.028
C  C141  1  0.95064891  0.02956320  0.83083982  1  1.550922  0.031785  0.246228  0.72341  0.029176  4.043538  0.028
C  C142  1  0.98017217  0.33083159  0.97067885  1  1.55055  0.031713  0.247158  0.724417  0.029075  4.039479  0.028
C  C143  1  0.78175937  0.16916636  0.52942552  1  1.556266  0.031517  0.246114  0.724143  0.028997  4.040034  0.028
C  C144  1  0.68878100  0.52939828  0.33076629  1  1.560476  0.031749  0.246036  0.724144  0.029194  4.041433  0.028
C  C145  1  0.04935397  0.97043356  0.16915249  1  1.550768  0.0318  0.246225  0.72333  0.02919  4.043444  0.028
C  C146  1  0.01982567  0.66916045  0.02932502  1  1.550972  0.0317  0.247177  0.724275  0.02907  4.039707  0.028
C  C147  1  0.21823841  0.83083218  0.47057863  1  1.556152  0.031521  0.246109  0.724156  0.028999  4.039868  0.028
C  C148  1  0.24361752  0.55796270  0.68087969  1  -0.108553  0.004887  -0.242623  -0.543015  0.003374  3.887686  0.003
C  C149  1  0.98172053  0.94221803  0.81927892  1  -0.095815  0.004875  -0.242591  -0.542556  0.003372  3.889037  0.003
C  C150  1  0.92373536  0.31939794  0.05807087  1  -0.08676  0.004862  -0.244037  -0.544366  0.003375  3.888138  0.003
C  C151  1  0.80110397  0.18046742  0.44204351  1  -0.070399  0.004853  -0.244067  -0.543054  0.003385  3.88911  0.003
C  C152  1  0.75639051  0.44204116  0.31912196  1  -0.108573  0.004888  -0.242701  -0.543268  0.003375  3.887575  0.003
C  C153  1  0.01828183  0.05777696  0.18071221  1  -0.095833  0.004874  -0.242633  -0.542471  0.003373  3.888836  0.003
C  C154  1  0.07627669  0.68058759  0.94192988  1  -0.087219  0.004864  -0.244104  -0.544397  0.003375  3.888033  0.003
C  C155  1  0.19887917  0.81952875  0.55796002  1  -0.070509  0.004853  -0.244013  -0.542913  0.003385  3.888783  0.003
C  C156  1  0.09703832  0.32754130  0.69170058  1  1.551866  0.027335  0.242733  0.729054  0.025684  4.05988  0.024
C  C157  1  0.61608741  0.17279761  0.80851617  1  1.562475  0.027306  0.241602  0.72787  0.025721  4.06145  0.024
C  C158  1  0.78906682  0.30836069  0.82748891  1  1.556411  0.027358  0.2406  0.723565  0.025754  4.064475  0.024
C  C159  1  0.42470995  0.19174002  0.67265020  1  1.554653  0.027455  0.242413  0.727688  0.025753  4.061199  0.024
C  C160  1  0.90296435  0.67246019  0.30829900  1  1.551873  0.027324  0.242677  0.728863  0.025676  4.060426  0.024
C  C161  1  0.38392394  0.82720861  0.19148104  1  1.56249  0.027306  0.241597  0.727958  0.025718  4.061098  0.024
C  C162  1  0.21093816  0.69164140  0.17250637  1  1.5566  0.027354  0.24064  0.723777  0.025749  4.064249  0.024
C  C163  1  0.57529137  0.80825912  0.32735443  1  1.554669  0.027459  0.242347  0.727509  0.025757  4.061175  0.024
C  C164  1  0.08681741  0.40243217  0.64353856  1  -0.11095  0.005443  -0.241268  -0.53592  0.004074  3.880955  0.003
C  C165  1  0.63277716  0.09792836  0.85671164  1  -0.105762  0.005374  -0.242012  -0.536785  0.004079  3.881829  0.003
C  C166  1  0.73061813  0.35645039  0.90247077  1  -0.082471  0.005413  -0.240754  -0.535465  0.004085  3.881998  0.003
C  C167  1  0.48943029  0.14351112  0.59775879  1  -0.139168  0.005449  -0.24211  -0.537626  0.004074  3.883418  0.003
C  C168  1  0.91318870  0.59756637  0.35646163  1  -0.110591  0.005443  -0.241192  -0.535718  0.004074  3.880983  0.003
C  C169  1  0.36723227  0.90207550  0.14328606  1  -0.106037  0.005373  -0.241941  -0.536731  0.004078  3.881787  0.003
C  C170  1  0.26938614  0.64355052  0.09752410  1  -0.082617  0.005413  -0.240734  -0.535404  0.004085  3.881922  0.003
C  C171  1  0.51056665  0.85649452  0.40224182  1  -0.139218  0.005449  -0.242099  -0.537647  0.004073  3.883608  0.003
C  C172  1  0.92895155  0.57708677  0.85080537  1  1.577945  0.01863  0.226638  0.70269  0.017538  4.113693  0.016
C  C173  1  0.85623055  0.92318868  0.64927814  1  1.567596  0.018662  0.227321  0.703344  0.017488  4.113046  0.016
C  C174  1  0.77977833  0.14920231  0.07717352  1  1.592398  0.018669  0.225956  0.704292  0.017581  4.114395  0.016
C  C175  1  0.50569064  0.35084112  0.42303711  1  1.568951  0.018707  0.227868  0.708172  0.017527  4.108665  0.016
C  C176  1  0.07104121  0.42291414  0.14919829  1  1.578736  0.018626  0.226571  0.702535  0.017539  4.113771  0.016
C  C177  1  0.14376582  0.07680986  0.35071971  1  1.567712  0.018662  0.227245  0.703215  0.017489  4.113482  0.016
C  C178  1  0.22022501  0.85079446  0.92282259  1  1.591482  0.018667  0.22597  0.704302  0.017581  4.114479  0.016
C  C179  1  0.49430503  0.64916333  0.57696877  1  1.568871  0.018713  0.227938  0.708372  0.017532  4.108561  0.016
C  C180  1  0.85959874  0.65040025  0.81486221  1  -0.109875  0.00386  -0.240891  -0.520249  0.002754  3.912689  0.002
C  C181  1  0.82379278  0.85005450  0.68541088  1  -0.095001  0.003854  -0.241462  -0.523406  0.002771  3.913407  0.002
C  C182  1  0.67445476  0.18519317  0.15051797  1  -0.108866  0.003884  -0.242855  -0.524466  0.002771  3.91586  0.002
C  C183  1  0.50905261  0.31495446  0.34985575  1  -0.125755  0.003889  -0.241843  -0.52404  0.002767  3.912267  0.002
C  C184  1  0.14039788  0.34959947  0.18513737  1  -0.109694  0.00386  -0.240938  -0.520318  0.002755  3.912498  0.002
C  C185  1  0.17620667  0.14994464  0.31458876  1  -0.095068  0.003854  -0.241429  -0.523361  0.002771  3.91354  0.002
C  C186  1  0.32556014  0.81480537  0.84948208  1  -0.107523  0.003882  -0.242978  -0.524788  0.002771  3.915726  0.002
C  C187  1  0.49094227  0.68504763  0.65014951  1  -0.125425  0.003889  -0.241757  -0.523954  0.002767  3.912374  0.002
O  O188  1  0.25524202  0.30751273  0.85414543  1  -1.294455  0.195519  -0.557356  -0.885145  0.149506  2.233294  0.093
O  O189  1  0.91687782  0.19269700  0.64590824  1  -1.295414  0.19545  -0.557927  -0.885996  0.149435  2.23327  0.093
O  O190  1  0.10947809  0.14593688  0.80738935  1  -1.297145  0.1958  -0.558483  -0.886801  0.149543  2.233233  0.093
O  O191  1  0.56285873  0.35415457  0.69259588  1  -1.292709  0.195457  -0.557734  -0.885772  0.149504  2.23471  0.093
O  O192  1  0.74475967  0.69248640  0.14585200  1  -1.295072  0.195536  -0.557376  -0.885241  0.149509  2.233344  0.093
O  O193  1  0.08312689  0.80730508  0.35408476  1  -1.295587  0.19545  -0.558045  -0.88621  0.149448  2.233443  0.093
O  O194  1  0.89051978  0.85406166  0.19260531  1  -1.297078  0.195792  -0.558482  -0.886828  0.149546  2.233165  0.093
O  O195  1  0.43714048  0.64584634  0.30740397  1  -1.292604  0.195446  -0.557732  -0.885792  0.149501  2.234704  0.093
O  O196  1  0.38419449  0.41930028  0.85702911  1  -1.205566  0.07121  -0.304977  -0.56772  0.049712  2.242219  0.035
O  O197  1  0.16048712  0.08068060  0.64294361  1  -1.204995  0.071216  -0.305434  -0.56802  0.049699  2.24231  0.035
O  O198  1  0.24102937  0.14306365  0.91932303  1  -1.203857  0.071249  -0.305477  -0.567513  0.049638  2.242544  0.035
O  O199  1  0.80344966  0.35717860  0.58072046  1  -1.20284  0.071357  -0.303821  -0.56567  0.049718  2.241977  0.035
O  O200  1  0.61579558  0.58069944  0.14297864  1  -1.205434  0.07122  -0.304969  -0.567735  0.049709  2.242278  0.035
O  O201  1  0.83951724  0.91932030  0.35705202  1  -1.204811  0.07122  -0.305546  -0.568147  0.049702  2.242224  0.035
O  O202  1  0.75895462  0.85693961  0.08067531  1  -1.203758  0.071237  -0.305528  -0.567562  0.049639  2.242486  0.035
O  O203  1  0.19655057  0.64282645  0.41927891  1  -1.202901  0.071357  -0.303792  -0.565622  0.049719  2.242004  0.035
O  O204  1  0.17938604  0.47491273  0.90522202  1  -1.22587  0.111757  -0.306262  -0.621032  0.084024  2.373963  0.056
O  O205  1  0.05919724  0.02524472  0.59479527  1  -1.22578  0.111752  -0.306973  -0.62151  0.083996  2.374544  0.056
O  O206  1  0.08441313  0.09480890  0.97476550  1  -1.227323  0.111862  -0.30649  -0.621142  0.083962  2.375132  0.056
O  O207  1  0.65427640  0.40518954  0.52509110  1  -1.228551  0.111794  -0.308435  -0.623196  0.084105  2.373962  0.056
O  O208  1  0.82060013  0.52508935  0.09478413  1  -1.225892  0.111769  -0.306243  -0.620939  0.08402  2.374179  0.056
O  O209  1  0.94080511  0.97475441  0.40520237  1  -1.22591  0.11176  -0.306958  -0.621421  0.08398  2.374457  0.056
O  O210  1  0.91557766  0.90518845  0.02522820  1  -1.22732  0.111881  -0.306552  -0.621238  0.083969  2.375033  0.056
O  O211  1  0.34572112  0.59481551  0.47491180  1  -1.228565  0.111807  -0.30848  -0.623184  0.084105  2.373764  0.056
O  O212  1  0.28443622  0.42389422  0.72603708  1  -1.230298  0.098647  -0.287829  -0.591315  0.072967  2.403336  0.043
O  O213  1  0.93416487  0.07625047  0.77399903  1  -1.231806  0.098651  -0.287201  -0.589543  0.072909  2.403261  0.043
O  O214  1  0.01035183  0.27396931  0.92401706  1  -1.227607  0.098556  -0.288935  -0.591457  0.072936  2.402129  0.043
O  O215  1  0.70855495  0.22609259  0.57604283  1  -1.2342  0.098721  -0.288413  -0.590849  0.072888  2.401729  0.043
O  O216  1  0.71556202  0.57610845  0.27396713  1  -1.230203  0.098653  -0.287849  -0.591273  0.072965  2.403211  0.043
O  O217  1  0.06583980  0.92374571  0.22599521  1  -1.231583  0.09868  -0.287226  -0.589554  0.072911  2.403169  0.043
O  O218  1  0.98964424  0.72602627  0.07598168  1  -1.227698  0.098561  -0.28898  -0.591485  0.072941  2.40206  0.043
O  O219  1  0.29144420  0.77390713  0.42396193  1  -1.234066  0.098713  -0.288387  -0.590816  0.072885  2.401812  0.043
O  O220  1  0.39499385  0.44506819  0.60321935  1  -1.232166  0.116073  -0.294041  -0.597547  0.086613  2.392754  0.057
O  O221  1  0.94293729  0.05506485  0.89685386  1  -1.223408  0.115872  -0.294178  -0.598296  0.08666  2.394508  0.057
O  O222  1  0.99810630  0.39677011  0.94509684  1  -1.226216  0.11602  -0.293082  -0.59646  0.086628  2.392164  0.057
O  O223  1  0.84003060  0.10324355  0.55501220  1  -1.226602  0.115881  -0.293139  -0.597407  0.08661  2.392225  0.057
O  O224  1  0.60500413  0.55493331  0.39678314  1  -1.232306  0.116066  -0.294082  -0.597643  0.086612  2.392899  0.057
O  O225  1  0.05706679  0.94492837  0.10313900  1  -1.223695  0.115892  -0.294117  -0.598202  0.086664  2.394488  0.057
O  O226  1  0.00189578  0.60322488  0.05490225  1  -1.226362  0.116013  -0.29307  -0.596308  0.086618  2.392455  0.057
O  O227  1  0.15996459  0.89675736  0.44499077  1  -1.226591  0.115902  -0.293181  -0.597476  0.086618  2.392173  0.057
O  O228  1  0.09143527  0.26844669  0.66351711  1  -1.205077  0.078619  -0.307492  -0.57107  0.053363  2.253642  0.034
O  O229  1  0.52305774  0.23181270  0.83668065  1  -1.2129  0.078465  -0.307836  -0.571052  0.053316  2.255138  0.034
O  O230  1  0.75529923  0.33654503  0.76838290  1  -1.208582  0.078543  -0.306552  -0.568439  0.05339  2.25487  0.034
O  O231  1  0.35985102  0.16365649  0.73178309  1  -1.20401  0.078458  -0.307459  -0.570971  0.053402  2.255053  0.034
O  O232  1  0.90857982  0.73155185  0.33647935  1  -1.205061  0.078597  -0.307513  -0.571106  0.053365  2.253865  0.034
O  O233  1  0.47695176  0.76819234  0.16331726  1  -1.212869  0.078468  -0.307858  -0.571107  0.053315  2.254958  0.034
O  O234  1  0.24470695  0.66345824  0.23161148  1  -1.208477  0.078553  -0.306595  -0.568532  0.053391  2.254869  0.034
O  O235  1  0.64014917  0.83634323  0.26821981  1  -1.203905  0.07845  -0.307406  -0.570823  0.053402  2.254975  0.034
O  O236  1  0.11431778  0.32602446  0.75876527  1  -1.227467  0.112892  -0.298282  -0.602325  0.082901  2.370991  0.051
O  O237  1  0.69893375  0.17434261  0.74142051  1  -1.228938  0.112863  -0.297026  -0.601999  0.082937  2.371469  0.051
O  O238  1  0.87344395  0.24133188  0.82590962  1  -1.231334  0.113108  -0.297726  -0.601196  0.08297  2.374616  0.051
O  O239  1  0.44056272  0.25877628  0.67409576  1  -1.227278  0.112886  -0.297591  -0.601184  0.082919  2.371738  0.051
O  O240  1  0.88567754  0.67397526  0.24123902  1  -1.227508  0.112888  -0.298292  -0.60222  0.082891  2.371173  0.051
O  O241  1  0.30108092  0.82566185  0.25858114  1  -1.228566  0.112826  -0.297089  -0.6021  0.082936  2.371224  0.051
O  O242  1  0.12656020  0.75867020  0.17408394  1  -1.231395  0.113117  -0.29771  -0.601285  0.082969  2.374491  0.051
O  O243  1  0.55943610  0.74122167  0.32590935  1  -1.227249  0.112882  -0.297595  -0.601163  0.082919  2.371707  0.051
O  O244  1  0.99909290  0.51838852  0.80506653  1  -1.226211  0.069839  -0.317601  -0.593202  0.048079  2.295495  0.027
O  O245  1  0.82196698  0.98199516  0.69488458  1  -1.210946  0.069982  -0.31847  -0.593786  0.048201  2.295472  0.027
O  O246  1  0.80399794  0.19483843  0.01834678  1  -1.213821  0.069887  -0.316978  -0.592151  0.048161  2.295058  0.027
O  O247  1  0.51747571  0.30510393  0.48167703  1  -1.208528  0.069876  -0.317456  -0.593686  0.048086  2.293439  0.027
O  O248  1  0.00090512  0.48161180  0.19493650  1  -1.226318  0.069837  -0.317548  -0.593122  0.048079  2.295405  0.027
O  O249  1  0.17803206  0.01800515  0.30511146  1  -1.210974  0.069969  -0.318441  -0.593723  0.048204  2.29574  0.027
O  O250  1  0.19599945  0.80516070  0.98165148  1  -1.213901  0.06989  -0.316949  -0.592075  0.048162  2.295023  0.027
O  O251  1  0.48252056  0.69489875  0.51832656  1  -1.208693  0.069896  -0.317554  -0.593836  0.048092  2.293332  0.027
O  O252  1  0.91279699  0.57910278  0.92429877  1  -1.201954  0.064671  -0.315504  -0.584391  0.044522  2.272572  0.029
O  O253  1  0.91592470  0.92094076  0.57581949  1  -1.216136  0.064806  -0.315953  -0.584419  0.044527  2.270846  0.03
O  O254  1  0.83729490  0.07578708  0.07926847  1  -1.216279  0.064875  -0.315602  -0.585827  0.044598  2.272408  0.03
O  O255  1  0.49166932  0.42428576  0.42099255  1  -1.203381  0.064701  -0.316407  -0.587089  0.044558  2.271374  0.03
O  O256  1  0.08718647  0.42089576  0.07570669  1  -1.202662  0.064682  -0.31544  -0.584316  0.044526  2.272738  0.029
O  O257  1  0.08407229  0.07905897  0.42417801  1  -1.216088  0.06481  -0.315916  -0.584368  0.044526  2.270942  0.03
O  O258  1  0.16270435  0.92420850  0.92072543  1  -1.216516  0.064883  -0.31564  -0.585857  0.044595  2.272482  0.03
O  O259  1  0.50832672  0.57571869  0.57901125  1  -1.203156  0.064699  -0.316404  -0.587126  0.044563  2.271392  0.03
