# generated using pymatgen
data_CuH8(CN)10
_symmetry_space_group_name_H-M   'P 1'
_cell_length_a   7.45363654
_cell_length_b   9.27498160
_cell_length_c   9.65944545
_cell_angle_alpha   102.52214495
_cell_angle_beta   90.00050153
_cell_angle_gamma   89.99989698
_symmetry_Int_Tables_number   1
_chemical_formula_structural   CuH8(CN)10
_chemical_formula_sum   'Cu2 H16 C20 N20'
_cell_volume   651.89511791
_cell_formula_units_Z   2
loop_
 _symmetry_equiv_pos_site_id
 _symmetry_equiv_pos_as_xyz
  1  'x, y, z'
loop_
 _atom_site_type_symbol
 _atom_site_label
 _atom_site_symmetry_multiplicity
 _atom_site_fract_x
 _atom_site_fract_y
 _atom_site_fract_z
 _atom_site_occupancy
 _atom_site_hle17_ddec_charge
 _atom_site_hle17_ddec_spin_density
 _atom_site_hle17_ddec_sum_bond_order
 _atom_site_hle17_magmom
 _atom_site_hse06_10hf_ddec_charge
 _atom_site_hse06_10hf_ddec_spin_density
 _atom_site_hse06_10hf_ddec_sum_bond_order
 _atom_site_hse06_10hf_magmom
 _atom_site_hse06_ddec_charge
 _atom_site_hse06_ddec_spin_density
 _atom_site_hse06_ddec_sum_bond_order
 _atom_site_hse06_magmom
 _atom_site_pbe_cm5_charge
 _atom_site_pbe_ddec_charge
 _atom_site_pbe_ddec_spin_density
 _atom_site_pbe_ddec_sum_bond_order
 _atom_site_pbe_magmom
Cu  Cu0  1  0.99999957  0.49999848  0.49999847  1  0.895225  -0.715326  1.967632  -0.543  0.857835  -0.791234  2.38687  -0.648  0.935088  -0.846613  2.323859  -0.721  0.819516  0.809898  -0.751051  2.429541  -0.599
Cu  Cu1  1  0.49999833  0.50000111  0.99999870  1  0.895108  -0.715309  1.967724  -0.543  0.857753  -0.791238  2.386904  -0.648  0.934979  -0.846625  2.323892  -0.721  0.819517  0.809867  -0.751054  2.429479  -0.599
H  H2  1  0.72655972  0.99291974  0.48571630  1  0.307697  -0.000462  0.927987  -0.001  0.287005  -0.000387  0.992964  -0.001  0.295099  -0.000299  0.986495  -0.001  0.308457  0.281372  -0.000455  0.997367  -0.001
H  H3  1  0.22656465  0.00708211  0.01428700  1  0.307646  -0.000463  0.927955  -0.001  0.286952  -0.000387  0.992935  -0.001  0.295045  -0.0003  0.986462  -0.001  0.30841  0.281316  -0.000455  0.99733  -0.001
H  H4  1  0.27343587  0.00708169  0.51428493  1  0.307686  -0.000462  0.927916  -0.001  0.286996  -0.000387  0.992888  -0.001  0.295091  -0.000299  0.986411  -0.001  0.308412  0.281361  -0.000455  0.997293  -0.001
H  H5  1  0.77343764  0.99292156  0.98571881  1  0.307722  -0.000462  0.927814  -0.001  0.28702  -0.000387  0.992795  -0.001  0.295113  -0.0003  0.986324  -0.001  0.308474  0.281386  -0.000455  0.997187  -0.001
H  H6  1  0.77570920  0.25891060  0.63359598  1  0.087694  0.000195  0.959723  0.0  0.09496  5.2e-05  1.026205  0.0  0.095993  7.8e-05  1.025396  0.0  0.131412  0.093891  4e-06  1.027337  0.0
H  H7  1  0.27571242  0.74108930  0.86640297  1  0.087713  0.000198  0.959687  0.0  0.094972  5.2e-05  1.026183  0.0  0.096008  7.8e-05  1.025371  0.0  0.131442  0.093898  4e-06  1.027315  0.0
H  H8  1  0.22428638  0.74109081  0.36640213  1  0.0877  0.000195  0.959699  0.0  0.09496  5.2e-05  1.026194  0.0  0.095996  7.8e-05  1.02538  0.0  0.13143  0.093886  4e-06  1.027342  0.0
H  H9  1  0.72428584  0.25891544  0.13359893  1  0.087686  0.000193  0.959657  0.0  0.094942  5.2e-05  1.026168  0.0  0.09598  7.8e-05  1.02535  0.0  0.131431  0.09387  4e-06  1.027309  0.0
H  H10  1  0.87648388  0.95730630  0.24515637  1  0.105947  -0.000681  0.984727  -0.001  0.113774  -0.00053  1.048521  -0.001  0.115478  -0.000382  1.048499  0.0  0.116006  0.112265  -0.000615  1.049075  -0.001
H  H11  1  0.37649144  0.04268895  0.25484662  1  0.106005  -0.000681  0.984726  -0.001  0.113846  -0.00053  1.048499  -0.001  0.115551  -0.000382  1.048479  0.0  0.116036  0.112321  -0.000615  1.049074  -0.001
H  H12  1  0.12351305  0.04269074  0.75484604  1  0.105981  -0.000681  0.984675  -0.001  0.113828  -0.00053  1.048458  -0.001  0.115532  -0.000382  1.048439  0.0  0.116034  0.112324  -0.000615  1.049003  -0.001
H  H13  1  0.62351756  0.95730810  0.74515787  1  0.105904  -0.000679  0.98469  -0.001  0.113746  -0.00053  1.048491  -0.001  0.11545  -0.000382  1.048471  0.0  0.115998  0.11225  -0.000615  1.049028  -0.001
H  H14  1  0.03296888  0.22627984  0.23727008  1  0.10972  -7.9e-05  0.990522  0.0  0.113223  -0.000282  1.059138  -0.001  0.1149  -0.000193  1.058978  0.0  0.111635  0.111878  -0.000397  1.059543  -0.001
H  H15  1  0.53297267  0.77371318  0.26273220  1  0.109732  -7.9e-05  0.990474  0.0  0.113219  -0.000282  1.059121  -0.001  0.114897  -0.000193  1.058961  0.0  0.111625  0.111872  -0.000397  1.059536  -0.001
H  H16  1  0.96703475  0.77371498  0.76273085  1  0.109655  -7.8e-05  0.990598  0.0  0.113149  -0.000282  1.059227  -0.001  0.114825  -0.000193  1.059069  0.0  0.111591  0.111801  -0.000397  1.059629  -0.001
H  H17  1  0.46702828  0.22628162  0.73726770  1  0.109726  -8.1e-05  0.990514  0.0  0.113226  -0.000282  1.059137  -0.001  0.114904  -0.000193  1.058976  0.0  0.111627  0.11188  -0.000397  1.059549  -0.001
C  C18  1  0.82641142  0.21550564  0.52771660  1  0.21842  0.008305  3.664369  0.004  0.162221  0.002668  3.936949  0.0  0.17783  0.004264  3.95202  0.002  0.140025  0.152101  0.00169  3.927056  0.0
C  C19  1  0.32641574  0.78449538  0.97228395  1  0.218469  0.008243  3.664274  0.004  0.162248  0.002669  3.936864  0.0  0.177854  0.004262  3.951935  0.002  0.140045  0.152129  0.00169  3.926951  0.0
C  C20  1  0.17358685  0.78449356  0.47228211  1  0.218428  0.008291  3.664217  0.004  0.16221  0.002669  3.936808  0.0  0.177818  0.004262  3.951879  0.002  0.140022  0.152096  0.00169  3.926917  0.0
C  C21  1  0.67358387  0.21550827  0.02771876  1  0.218587  0.008342  3.66424  0.004  0.162346  0.002666  3.936838  0.0  0.177954  0.004263  3.951909  0.002  0.140068  0.152221  0.00169  3.92694  0.0
C  C22  1  0.88057461  0.05973097  0.32415530  1  -0.008321  -0.005547  3.686235  -0.006  -0.044772  -0.002341  3.942754  -0.003  -0.043142  -0.001883  3.962408  -0.002  -0.001915  -0.045489  -0.002781  3.929486  -0.003
C  C23  1  0.38058463  0.94026647  0.17584609  1  -0.008539  -0.005544  3.686161  -0.006  -0.04504  -0.00234  3.942734  -0.003  -0.04341  -0.001883  3.962387  -0.002  -0.00202  -0.045745  -0.002782  3.929485  -0.003
C  C24  1  0.11942365  0.94026606  0.67584608  1  -0.008439  -0.005547  3.686189  -0.006  -0.044963  -0.00234  3.942778  -0.003  -0.043333  -0.001883  3.962431  -0.002  -0.002004  -0.045683  -0.002782  3.929491  -0.003
C  C25  1  0.61942169  0.05973387  0.82415699  1  -0.008241  -0.005593  3.686148  -0.006  -0.044749  -0.002339  3.942702  -0.003  -0.043117  -0.001885  3.962356  -0.002  -0.001939  -0.045482  -0.002781  3.929417  -0.003
C  C26  1  0.95713707  0.19380305  0.32123876  1  -0.023274  0.000384  3.751013  -0.001  -0.050901  -0.000277  4.020658  -0.001  -0.04877  0.000966  4.043467  0.0  -0.01401  -0.052011  -0.00116  4.005112  -0.002
C  C27  1  0.45714474  0.80619217  0.17876167  1  -0.023077  0.000382  3.75051  -0.001  -0.05067  -0.000278  4.020136  -0.001  -0.048539  0.000965  4.042941  0.0  -0.013849  -0.051788  -0.001161  4.004609  -0.002
C  C28  1  0.04286253  0.80619175  0.67876114  1  -0.023103  0.000382  3.750784  -0.001  -0.050687  -0.000279  4.020416  -0.001  -0.048554  0.000964  4.043223  0.0  -0.013904  -0.051797  -0.00116  4.004861  -0.002
C  C29  1  0.54285889  0.19380484  0.82123867  1  -0.023222  0.000435  3.750873  -0.001  -0.050833  -0.000278  4.020503  -0.001  -0.048705  0.000968  4.04331  0.0  -0.013936  -0.051952  -0.001161  4.00498  -0.002
C  C30  1  0.89999209  0.56245144  0.20677268  1  0.533585  0.011394  3.938682  0.003  0.510496  -0.000158  4.216827  -0.007  0.54028  0.002054  4.225733  -0.005  0.322777  0.490254  -0.001719  4.210619  -0.008
C  C31  1  0.39999249  0.43754479  0.29321617  1  0.533703  0.011357  3.938588  0.003  0.510612  -0.000153  4.216732  -0.007  0.540398  0.002057  4.225634  -0.005  0.322926  0.490371  -0.001717  4.210519  -0.008
C  C32  1  0.10000751  0.43754223  0.79322285  1  0.533681  0.011419  3.938736  0.003  0.510583  -0.000164  4.216872  -0.007  0.540372  0.002065  4.225773  -0.005  0.322873  0.490338  -0.001718  4.210667  -0.008
C  C33  1  0.60000980  0.56245992  0.70678261  1  0.533802  0.011381  3.938531  0.003  0.510696  -0.000165  4.216669  -0.007  0.540481  0.002064  4.225572  -0.005  0.32291  0.490454  -0.001718  4.210453  -0.008
C  C34  1  0.86111471  0.71359340  0.04849306  1  0.484399  0.006773  3.978948  0.005  0.451014  0.001143  4.275125  0.001  0.473893  0.001105  4.286251  0.001  0.297365  0.435028  0.001188  4.267847  0.001
C  C35  1  0.36111320  0.28640946  0.45149790  1  0.484381  0.006768  3.978954  0.005  0.450998  0.001157  4.275151  0.001  0.473879  0.001091  4.286283  0.001  0.297326  0.435023  0.001189  4.267888  0.001
C  C36  1  0.13888088  0.28640581  0.95150669  1  0.484473  0.006769  3.978846  0.005  0.451082  0.001135  4.275016  0.001  0.473962  0.001119  4.28614  0.001  0.297412  0.435095  0.001188  4.267742  0.001
C  C37  1  0.63888775  0.71359636  0.54850111  1  0.484501  0.00676  3.9788  0.005  0.451106  0.001134  4.27497  0.001  0.473985  0.00112  4.286104  0.001  0.297374  0.435132  0.001189  4.26771  0.001
N  N38  1  0.92191729  0.28990384  0.44907059  1  -0.371067  -0.085322  3.349598  -0.113  -0.329927  -0.058371  3.666625  -0.082  -0.364502  -0.046611  3.691532  -0.07  -0.376745  -0.307573  -0.065501  3.650176  -0.088
N  N39  1  0.42192105  0.71009358  0.05092901  1  -0.371115  -0.085298  3.349567  -0.113  -0.329975  -0.058368  3.666592  -0.082  -0.364542  -0.046606  3.69149  -0.07  -0.376789  -0.307637  -0.065498  3.650143  -0.088
N  N40  1  0.07808097  0.71009206  0.55092849  1  -0.371047  -0.085312  3.349479  -0.113  -0.329933  -0.058368  3.666533  -0.082  -0.364509  -0.046607  3.691441  -0.07  -0.37674  -0.307585  -0.065498  3.65009  -0.088
N  N41  1  0.57807721  0.28990563  0.94907074  1  -0.371124  -0.085333  3.349582  -0.113  -0.32997  -0.058368  3.666592  -0.082  -0.36454  -0.046607  3.691496  -0.07  -0.37679  -0.307635  -0.065499  3.650153  -0.088
N  N42  1  0.79903795  0.07604840  0.45437993  1  -0.273123  -0.001439  3.477383  -0.003  -0.204168  -0.001222  3.70691  -0.002  -0.220706  -0.000693  3.72303  -0.002  -0.372382  -0.193296  -0.001686  3.695914  -0.003
N  N43  1  0.29904519  0.92395234  0.04562157  1  -0.273123  -0.001421  3.477545  -0.003  -0.20413  -0.001223  3.707036  -0.002  -0.220667  -0.000692  3.72316  -0.002  -0.372426  -0.193262  -0.001686  3.696024  -0.003
N  N44  1  0.20096032  0.92395083  0.54562190  1  -0.273153  -0.001433  3.477462  -0.003  -0.204141  -0.001223  3.70693  -0.002  -0.220679  -0.000692  3.723049  -0.002  -0.372362  -0.193274  -0.001686  3.695939  -0.003
N  N45  1  0.70095844  0.07605131  0.95438217  1  -0.273327  -0.001434  3.477418  -0.003  -0.204312  -0.001223  3.706927  -0.002  -0.220849  -0.000692  3.723043  -0.002  -0.372464  -0.193443  -0.001686  3.695919  -0.003
N  N46  1  0.95622833  0.51863954  0.30405847  1  -0.587864  -0.060184  2.970537  -0.077  -0.568791  -0.043053  3.283323  -0.058  -0.599006  -0.035834  3.285156  -0.051  -0.407836  -0.549362  -0.048152  3.282533  -0.062
N  N47  1  0.45623155  0.48135344  0.19593736  1  -0.587877  -0.060151  2.970676  -0.077  -0.568834  -0.043063  3.283496  -0.058  -0.599038  -0.035833  3.285309  -0.051  -0.407946  -0.549416  -0.048151  3.282701  -0.062
N  N48  1  0.04376994  0.48135301  0.69593580  1  -0.587955  -0.060204  2.970438  -0.077  -0.568911  -0.043048  3.283275  -0.058  -0.599124  -0.035845  3.285095  -0.051  -0.407958  -0.549475  -0.048155  3.282482  -0.062
N  N49  1  0.54376939  0.51864795  0.80405868  1  -0.587869  -0.06017  2.970557  -0.077  -0.56882  -0.043042  3.283359  -0.058  -0.599025  -0.035841  3.285179  -0.051  -0.407876  -0.549398  -0.04815  3.282552  -0.062
N  N50  1  0.83174152  0.59416352  0.09453910  1  -0.470451  -0.00793  3.350488  -0.013  -0.429626  -0.000494  3.629445  -0.003  -0.45657  0.001133  3.633463  -0.001  -0.307764  -0.411313  -0.002182  3.626862  -0.005
N  N51  1  0.33174325  0.40583496  0.40545596  1  -0.4704  -0.007937  3.350726  -0.013  -0.429569  -0.000478  3.629675  -0.003  -0.456517  0.001124  3.633689  -0.001  -0.307714  -0.411252  -0.002182  3.627097  -0.005
N  N52  1  0.16825406  0.40583568  0.90545857  1  -0.470472  -0.007933  3.350537  -0.013  -0.429625  -0.0005  3.629465  -0.003  -0.456569  0.001138  3.633473  -0.001  -0.30775  -0.411313  -0.002182  3.626885  -0.005
N  N53  1  0.66826306  0.59417308  0.59454557  1  -0.470624  -0.007933  3.350628  -0.013  -0.429755  -0.000503  3.629558  -0.003  -0.456693  0.001138  3.633555  -0.001  -0.307794  -0.411442  -0.002183  3.626982  -0.005
N  N54  1  0.87556524  0.81784782  0.99782359  1  -0.560978  -0.007745  2.667724  -0.009  -0.533396  -0.001129  2.906181  -0.001  -0.548296  -0.000401  2.913219  -0.001  -0.356789  -0.52266  -0.002709  2.90137  -0.003
N  N55  1  0.37556561  0.18214763  0.50216997  1  -0.561087  -0.007748  2.667278  -0.009  -0.533535  -0.001145  2.905802  -0.001  -0.54844  -0.000387  2.912836  -0.001  -0.356826  -0.52279  -0.002711  2.901006  -0.003
N  N56  1  0.12442900  0.18215250  0.00217638  1  -0.561021  -0.007741  2.667733  -0.009  -0.533454  -0.001123  2.906216  -0.001  -0.548355  -0.000411  2.913251  -0.001  -0.356821  -0.522717  -0.002709  2.901407  -0.003
N  N57  1  0.62442729  0.81785708  0.49782882  1  -0.561085  -0.007744  2.667295  -0.009  -0.533531  -0.001122  2.905801  -0.001  -0.548436  -0.000412  2.912838  -0.001  -0.356833  -0.522792  -0.002712  2.901011  -0.003
