# generated using pymatgen
data_CdH10C14(SN6)2
_symmetry_space_group_name_H-M   'P 1'
_cell_length_a   7.08979432
_cell_length_b   10.78506843
_cell_length_c   12.41961969
_cell_angle_alpha   89.99970276
_cell_angle_beta   105.64143791
_cell_angle_gamma   90.00000252
_symmetry_Int_Tables_number   1
_chemical_formula_structural   CdH10C14(SN6)2
_chemical_formula_sum   'Cd2 H20 C28 S4 N24'
_cell_volume   914.48505944
_cell_formula_units_Z   2
loop_
 _symmetry_equiv_pos_site_id
 _symmetry_equiv_pos_as_xyz
  1  'x, y, z'
loop_
 _atom_site_type_symbol
 _atom_site_label
 _atom_site_symmetry_multiplicity
 _atom_site_fract_x
 _atom_site_fract_y
 _atom_site_fract_z
 _atom_site_occupancy
 _atom_site_hle17_bader_spin_density
 _atom_site_hle17_ddec_charge
 _atom_site_hle17_ddec_spin_density
 _atom_site_hle17_ddec_sum_bond_order
 _atom_site_hle17_magmom
 _atom_site_hse06_10hf_bader_spin_density
 _atom_site_hse06_10hf_ddec_charge
 _atom_site_hse06_10hf_ddec_spin_density
 _atom_site_hse06_10hf_ddec_sum_bond_order
 _atom_site_hse06_10hf_magmom
 _atom_site_hse06_bader_spin_density
 _atom_site_hse06_ddec_charge
 _atom_site_hse06_ddec_spin_density
 _atom_site_hse06_ddec_sum_bond_order
 _atom_site_hse06_magmom
 _atom_site_pbe_bader_spin_density
 _atom_site_pbe_cm5_charge
 _atom_site_pbe_ddec_charge
 _atom_site_pbe_ddec_spin_density
 _atom_site_pbe_ddec_sum_bond_order
 _atom_site_pbe_magmom
Cd  Cd0  1  0.99999995  0.00000371  0.00000241  1  0  0.958305  0  1.97629  0  0  0.778836  0  2.444762  0  0  0.823462  0  2.406532  0  0  0.724147  0.745471  0  2.473624  0
Cd  Cd1  1  0.49999758  0.50000033  0.99999817  1  0  0.958362  0  1.976204  0  0  0.778896  0  2.444679  0  0  0.82352  0  2.406451  0  0  0.724179  0.745527  0  2.473538  0
H  H2  1  0.02543409  0.31282511  0.91600030  1  0  0.124313  0  0.961941  0  0  0.132573  0  1.023004  0  0  0.134409  0  1.023361  0  0  0.120345  0.130939  0  1.02334  0
H  H3  1  0.47457152  0.81282911  0.08399856  1  0  0.12425  0  0.961971  0  0  0.132532  0  1.023008  0  0  0.134374  0  1.023366  0  0  0.120333  0.130893  0  1.023346  0
H  H4  1  0.97457122  0.68717578  0.08400027  1  0  0.12431  0  0.96192  0  0  0.132556  0  1.022995  0  0  0.134394  0  1.023351  0  0  0.120344  0.130922  0  1.023328  0
H  H5  1  0.52542353  0.18717086  0.91600038  1  0  0.124267  0  0.961913  0  0  0.132526  0  1.022976  0  0  0.134368  0  1.023333  0  0  0.120311  0.130889  0  1.023313  0
H  H6  1  0.93226923  0.38352822  0.68867224  1  0  0.131285  0  0.993286  0  0  0.125137  0  1.079847  0  0  0.130521  0  1.073426  0  0  0.122844  0.120829  0  1.08463  0
H  H7  1  0.56772809  0.88353359  0.31132311  1  0  0.131359  0  0.99324  0  0  0.125147  0  1.079837  0  0  0.130526  0  1.07342  0  0  0.122836  0.120842  0  1.084619  0
H  H8  1  0.06773027  0.61646989  0.31132499  1  0  0.13129  0  0.993261  0  0  0.125114  0  1.079852  0  0  0.130495  0  1.073429  0  0  0.122839  0.120808  0  1.084634  0
H  H9  1  0.43226995  0.11646823  0.68867388  1  0  0.131316  0  0.993234  0  0  0.125138  0  1.07981  0  0  0.130519  0  1.073394  0  0  0.122838  0.120833  0  1.084597  0
H  H10  1  0.89417916  0.31815280  0.33189538  1  0  0.081624  0  0.963299  0  0  0.084849  0  1.03353  0  0  0.087328  0  1.032992  0  0  0.109463  0.082918  0  1.03435  0
H  H11  1  0.60581239  0.81814952  0.66810256  1  0  0.081623  0  0.963345  0  0  0.084874  0  1.033527  0  0  0.087355  0  1.032985  0  0  0.109501  0.082951  0  1.03434  0
H  H12  1  0.10582172  0.68184717  0.66810610  1  0  0.081623  0  0.963298  0  0  0.084865  0  1.033515  0  0  0.087344  0  1.032974  0  0  0.109469  0.082948  0  1.034322  0
H  H13  1  0.39418122  0.18184395  0.33189534  1  0  0.081605  0  0.963346  0  0  0.08485  0  1.033558  0  0  0.087328  0  1.033021  0  0  0.109452  0.082927  0  1.03437  0
H  H14  1  0.76331700  0.11306580  0.24595236  1  0  0.095889  0  0.968216  0  0  0.099493  0  1.037997  0  0  0.101989  0  1.037004  0  0  0.110791  0.097517  0  1.039107  0
H  H15  1  0.73668239  0.61306481  0.75404614  1  0  0.095846  0  0.968277  0  0  0.099461  0  1.03806  0  0  0.101955  0  1.037074  0  0  0.11079  0.097484  0  1.039167  0
H  H16  1  0.23668683  0.88693416  0.75404879  1  0  0.095862  0  0.968214  0  0  0.099467  0  1.037988  0  0  0.101962  0  1.037  0  0  0.110784  0.09749  0  1.039096  0
H  H17  1  0.26331116  0.38692959  0.24595497  1  0  0.095818  0  0.968273  0  0  0.099434  0  1.038062  0  0  0.101935  0  1.037015  0  0  0.110773  0.097454  0  1.039166  0
H  H18  1  0.73930537  0.98507787  0.55809194  1  0  0.104206  0  0.944821  0  0  0.105552  0  1.018209  0  0  0.109187  0  1.015299  0  0  0.120634  0.102523  0  1.021231  0
H  H19  1  0.76069021  0.48508139  0.44190429  1  0  0.104242  0  0.94477  0  0  0.105587  0  1.018152  0  0  0.109223  0  1.015242  0  0  0.120618  0.102554  0  1.021181  0
H  H20  1  0.26069114  0.01492116  0.44190804  1  0  0.104149  0  0.944892  0  0  0.105492  0  1.018288  0  0  0.109127  0  1.015379  0  0  0.120612  0.102464  0  1.021308  0
H  H21  1  0.23931075  0.51491671  0.55809317  1  0  0.104186  0  0.944849  0  0  0.105521  0  1.018233  0  0  0.109157  0  1.015322  0  0  0.120617  0.102489  0  1.021259  0
C  C22  1  0.99215277  0.25750075  0.84041387  1  0  -0.007719  0  3.687091  0  0  -0.040416  0  3.955528  0  0  -0.042325  0  3.974677  0  0  0.015349  -0.039034  0  3.940624  0
C  C23  1  0.50785069  0.75750424  0.15958383  1  0  -0.007631  0  3.687074  0  0  -0.040347  0  3.955471  0  0  -0.042266  0  3.974625  0  0  0.015368  -0.038968  0  3.940576  0
C  C24  1  0.00785405  0.74250014  0.15958453  1  0  -0.007711  0  3.687037  0  0  -0.040379  0  3.955469  0  0  -0.04229  0  3.974614  0  0  0.015348  -0.039004  0  3.940574  0
C  C25  1  0.49214878  0.24249572  0.84041501  1  0  -0.007583  0  3.686918  0  0  -0.040281  0  3.955345  0  0  -0.042199  0  3.974501  0  0  0.015431  -0.038902  0  3.940449  0
C  C26  1  0.95180850  0.29380127  0.73035986  1  0  -0.013427  0  3.593132  0  0  -0.07483  0  3.863745  0  0  -0.060647  0  3.879731  0  0  0.025953  -0.077307  0  3.855685  0
C  C27  1  0.54819342  0.79380781  0.26963663  1  0  -0.013517  0  3.593137  0  0  -0.074819  0  3.863746  0  0  -0.060625  0  3.879736  0  0  0.025916  -0.077304  0  3.855688  0
C  C28  1  0.04819536  0.70619684  0.26963968  1  0  -0.013338  0  3.592956  0  0  -0.074752  0  3.86359  0  0  -0.060552  0  3.87958  0  0  0.025961  -0.077233  0  3.855529  0
C  C29  1  0.45180754  0.20619401  0.73036084  1  0  -0.013505  0  3.593006  0  0  -0.074877  0  3.863639  0  0  -0.060691  0  3.879626  0  0  0.025912  -0.077358  0  3.855586  0
C  C30  1  0.86967239  0.16743727  0.55476234  1  0  0.272171  0  3.782004  0  0  0.239304  0  4.049145  0  0  0.257401  0  4.065388  0  0  0.232116  0.233505  0  4.038134  0
C  C31  1  0.63032835  0.66744276  0.44523532  1  0  0.272432  0  3.781758  0  0  0.239633  0  4.048799  0  0  0.257753  0  4.065024  0  0  0.232269  0.233845  0  4.037774  0
C  C32  1  0.13032998  0.83255991  0.44523857  1  0  0.272208  0  3.782006  0  0  0.239304  0  4.049174  0  0  0.257425  0  4.065401  0  0  0.232108  0.233511  0  4.038156  0
C  C33  1  0.36966820  0.33255627  0.55476224  1  0  0.272175  0  3.782123  0  0  0.239418  0  4.049048  0  0  0.257531  0  4.065273  0  0  0.232174  0.233614  0  4.038045  0
C  C34  1  0.86676217  0.24190370  0.38355094  1  0  0.080901  0  3.688049  0  0  0.063128  0  3.939388  0  0  0.063816  0  3.959745  0  0  0.049695  0.062507  0  3.926167  0
C  C35  1  0.63323249  0.74190353  0.61644784  1  0  0.080894  0  3.687966  0  0  0.063121  0  3.939338  0  0  0.063813  0  3.95969  0  0  0.049669  0.062482  0  3.926125  0
C  C36  1  0.13324020  0.75809440  0.61644997  1  0  0.080944  0  3.687979  0  0  0.063148  0  3.93934  0  0  0.063837  0  3.959695  0  0  0.049693  0.062509  0  3.926123  0
C  C37  1  0.36676257  0.25809087  0.38355110  1  0  0.080888  0  3.688001  0  0  0.063094  0  3.939389  0  0  0.06378  0  3.959747  0  0  0.04968  0.062466  0  3.926171  0
C  C38  1  0.78985724  0.12948917  0.33536437  1  0  0.059577  0  3.696892  0  0  0.031942  0  3.955513  0  0  0.032737  0  3.974549  0  0  0.047723  0.031196  0  3.943126  0
C  C39  1  0.71013918  0.62948871  0.66463358  1  0  0.059621  0  3.69683  0  0  0.031949  0  3.955471  0  0  0.032743  0  3.974505  0  0  0.04773  0.03121  0  3.943079  0
C  C40  1  0.21014512  0.87050987  0.66463654  1  0  0.059591  0  3.696844  0  0  0.031963  0  3.955475  0  0  0.032758  0  3.974511  0  0  0.047725  0.031218  0  3.943088  0
C  C41  1  0.28985295  0.37050662  0.33536488  1  0  0.059712  0  3.696757  0  0  0.032044  0  3.955415  0  0  0.032863  0  3.974443  0  0  0.047809  0.031303  0  3.94302  0
C  C42  1  0.78078366  0.05704126  0.50731066  1  0  0.015179  0  3.682389  0  0  -0.021319  0  3.956374  0  0  -0.019485  0  3.967801  0  0  0.055592  -0.022572  0  3.947689  0
C  C43  1  0.71921586  0.55704555  0.49268810  1  0  0.014903  0  3.682399  0  0  -0.021609  0  3.956392  0  0  -0.019781  0  3.967817  0  0  0.055473  -0.022865  0  3.947711  0
C  C44  1  0.21921724  0.94295777  0.49269001  1  0  0.015225  0  3.682411  0  0  -0.021237  0  3.956351  0  0  -0.019408  0  3.967776  0  0  0.055612  -0.022495  0  3.947669  0
C  C45  1  0.28078068  0.44295349  0.50731026  1  0  0.015034  0  3.682532  0  0  -0.021459  0  3.956446  0  0  -0.019633  0  3.967876  0  0  0.055514  -0.022703  0  3.947757  0
C  C46  1  0.87336814  0.27811298  0.08949127  1  0  0.30456  0  3.987889  0  0  0.286137  0  4.28736  0  0  0.307711  0  4.301605  0  0  0.148056  0.271218  0  4.276515  0
C  C47  1  0.62663949  0.77811381  0.91051587  1  0  0.304425  0  3.988337  0  0  0.285998  0  4.28781  0  0  0.30757  0  4.302054  0  0  0.147943  0.271074  0  4.276965  0
C  C48  1  0.12663420  0.72188976  0.91051125  1  0  0.304487  0  3.988061  0  0  0.28606  0  4.28754  0  0  0.307634  0  4.301782  0  0  0.148025  0.271143  0  4.276691  0
C  C49  1  0.37336138  0.22189357  0.08948641  1  0  0.304621  0  3.988131  0  0  0.2862  0  4.287586  0  0  0.307773  0  4.301833  0  0  0.148081  0.271276  0  4.276743  0
S  S50  1  0.87205855  0.42696686  0.11159832  1  0  -0.337716  0  2.183258  0  0  -0.310393  0  2.524761  0  0  -0.327755  0  2.518375  0  0  -0.141146  -0.296602  0  2.529206  0
S  S51  1  0.62794423  0.92696505  0.88841221  1  0  -0.337645  0  2.183373  0  0  -0.310321  0  2.524875  0  0  -0.327687  0  2.51851  0  0  -0.141095  -0.296515  0  2.529306  0
S  S52  1  0.12794377  0.57303495  0.88840500  1  0  -0.337737  0  2.183303  0  0  -0.310432  0  2.524843  0  0  -0.327787  0  2.518452  0  0  -0.141184  -0.296644  0  2.52929  0
S  S53  1  0.37205953  0.07304141  0.11159215  1  0  -0.337771  0  2.183341  0  0  -0.310465  0  2.524873  0  0  -0.327827  0  2.518498  0  0  -0.141194  -0.296673  0  2.529327  0
N  N54  1  0.98252847  0.13085157  0.84278339  1  0  -0.207991  0  3.220394  0  0  -0.146255  0  3.508618  0  0  -0.157905  0  3.523875  0  0  -0.205152  -0.137911  0  3.496198  0
N  N55  1  0.51747380  0.63085508  0.15721629  1  0  -0.208098  0  3.220341  0  0  -0.146371  0  3.508579  0  0  -0.158023  0  3.523841  0  0  -0.205197  -0.138024  0  3.496155  0
N  N56  1  0.01747390  0.86914932  0.15721752  1  0  -0.208069  0  3.220478  0  0  -0.146332  0  3.508691  0  0  -0.157982  0  3.523944  0  0  -0.205202  -0.137987  0  3.496271  0
N  N57  1  0.48252860  0.36914489  0.84278301  1  0  -0.208037  0  3.220206  0  0  -0.146299  0  3.508428  0  0  -0.157951  0  3.523688  0  0  -0.205192  -0.137951  0  3.496001  0
N  N58  1  0.93768876  0.08565605  0.74114182  1  0  -0.084509  0  2.845632  0  0  -0.099581  0  3.117315  0  0  -0.087707  0  3.135492  0  0  -0.080889  -0.101022  0  3.108986  0
N  N59  1  0.56231215  0.58565895  0.25885785  1  0  -0.084416  0  2.845696  0  0  -0.099465  0  3.117395  0  0  -0.087588  0  3.135576  0  0  -0.080845  -0.100909  0  3.109068  0
N  N60  1  0.06231506  0.91434298  0.25886013  1  0  -0.084494  0  2.845809  0  0  -0.099578  0  3.117481  0  0  -0.087693  0  3.135662  0  0  -0.0809  -0.101017  0  3.10915  0
N  N61  1  0.43769173  0.41434101  0.74114089  1  0  -0.084472  0  2.845725  0  0  -0.099541  0  3.117403  0  0  -0.087666  0  3.13558  0  0  -0.080894  -0.10098  0  3.109073  0
N  N62  1  0.91886601  0.18496486  0.67209849  1  0  0.004413  0  3.580265  0  0  0.113426  0  3.767521  0  0  0.074594  0  3.826408  0  0  -0.108937  0.119725  0  3.752262  0
N  N63  1  0.58113324  0.68497012  0.32789805  1  0  0.004393  0  3.580126  0  0  0.113316  0  3.767444  0  0  0.074463  0  3.826349  0  0  -0.108925  0.119618  0  3.752179  0
N  N64  1  0.08113783  0.81503325  0.32790185  1  0  0.004385  0  3.580215  0  0  0.113453  0  3.767431  0  0  0.074584  0  3.826353  0  0  -0.108867  0.119753  0  3.752167  0
N  N65  1  0.41886776  0.31503169  0.67209780  1  0  0.004428  0  3.580293  0  0  0.113403  0  3.767522  0  0  0.074563  0  3.826407  0  0  -0.108899  0.1197  0  3.752269  0
N  N66  1  0.90932833  0.26074887  0.49439502  1  0  -0.318569  0  3.05299  0  0  -0.288916  0  3.321912  0  0  -0.297955  0  3.334753  0  0  -0.298322  -0.282151  0  3.311081  0
N  N67  1  0.59066923  0.76075307  0.50560333  1  0  -0.318675  0  3.05292  0  0  -0.289052  0  3.321841  0  0  -0.298094  0  3.33467  0  0  -0.298417  -0.282297  0  3.31103  0
N  N68  1  0.09067403  0.73924924  0.50560589  1  0  -0.31864  0  3.053015  0  0  -0.288982  0  3.32195  0  0  -0.298029  0  3.334792  0  0  -0.298341  -0.282217  0  3.311121  0
N  N69  1  0.40932730  0.23924411  0.49439584  1  0  -0.318553  0  3.05301  0  0  -0.288945  0  3.321905  0  0  -0.297985  0  3.334738  0  0  -0.298341  -0.282188  0  3.311096  0
N  N70  1  0.74349541  0.03833054  0.39748870  1  0  -0.245809  0  3.111819  0  0  -0.205513  0  3.382062  0  0  -0.213906  0  3.398289  0  0  -0.294161  -0.19952  0  3.37153  0
N  N71  1  0.75650269  0.53833231  0.60250993  1  0  -0.245639  0  3.111683  0  0  -0.205359  0  3.381971  0  0  -0.213752  0  3.3982  0  0  -0.29409  -0.199374  0  3.371444  0
N  N72  1  0.25650694  0.96166757  0.60251302  1  0  -0.245763  0  3.11178  0  0  -0.205489  0  3.382021  0  0  -0.213882  0  3.398249  0  0  -0.294143  -0.199499  0  3.371495  0
N  N73  1  0.24349240  0.46166580  0.39748740  1  0  -0.245699  0  3.111688  0  0  -0.205413  0  3.381925  0  0  -0.213807  0  3.39815  0  0  -0.294144  -0.199424  0  3.371391  0
N  N74  1  0.87775461  0.16956573  0.07537693  1  0  -0.537583  0  2.859416  0  0  -0.483774  0  3.135343  0  0  -0.503781  0  3.141653  0  0  -0.392029  -0.46952  0  3.131633  0
N  N75  1  0.62225188  0.66956833  0.92462729  1  0  -0.537514  0  2.859656  0  0  -0.483703  0  3.135561  0  0  -0.503708  0  3.141871  0  0  -0.39198  -0.469443  0  3.131845  0
N  N76  1  0.12224771  0.83043609  0.92462639  1  0  -0.537467  0  2.859449  0  0  -0.483649  0  3.135351  0  0  -0.503654  0  3.141664  0  0  -0.391952  -0.469398  0  3.131645  0
N  N77  1  0.37774461  0.33044090  0.07537349  1  0  -0.537596  0  2.85956  0  0  -0.483791  0  3.135472  0  0  -0.503798  0  3.141779  0  0  -0.392008  -0.46953  0  3.131757  0
