# generated using pymatgen
data_CuH11C12IN2
_symmetry_space_group_name_H-M   'P 1'
_cell_length_a   7.09487063
_cell_length_b   8.63734343
_cell_length_c   10.39231513
_cell_angle_alpha   66.50909565
_cell_angle_beta   88.31668181
_cell_angle_gamma   76.63532205
_symmetry_Int_Tables_number   1
_chemical_formula_structural   CuH11C12IN2
_chemical_formula_sum   'Cu2 H22 C24 I2 N4'
_cell_volume   566.84490706
_cell_formula_units_Z   2
loop_
 _symmetry_equiv_pos_site_id
 _symmetry_equiv_pos_as_xyz
  1  'x, y, z'
loop_
 _atom_site_type_symbol
 _atom_site_label
 _atom_site_symmetry_multiplicity
 _atom_site_fract_x
 _atom_site_fract_y
 _atom_site_fract_z
 _atom_site_occupancy
 _atom_site_hle17_bader_spin_density
 _atom_site_hle17_ddec_charge
 _atom_site_hle17_ddec_spin_density
 _atom_site_hle17_ddec_sum_bond_order
 _atom_site_hle17_magmom
 _atom_site_hse06_10hf_bader_spin_density
 _atom_site_hse06_10hf_ddec_charge
 _atom_site_hse06_10hf_ddec_spin_density
 _atom_site_hse06_10hf_ddec_sum_bond_order
 _atom_site_hse06_10hf_magmom
 _atom_site_hse06_bader_spin_density
 _atom_site_hse06_ddec_charge
 _atom_site_hse06_ddec_spin_density
 _atom_site_hse06_ddec_sum_bond_order
 _atom_site_hse06_magmom
 _atom_site_pbe_bader_spin_density
 _atom_site_pbe_cm5_charge
 _atom_site_pbe_ddec_charge
 _atom_site_pbe_ddec_spin_density
 _atom_site_pbe_ddec_sum_bond_order
 _atom_site_pbe_magmom
Cu  Cu0  1  0.42572374  0.90032986  0.09345967  1  0  0.303417  0  2.003175  0  0  0.217324  0  2.473534  0  0  0.235589  0  2.415553  0  0  0.285353  0.205977  0  2.512402  0
Cu  Cu1  1  0.57427164  0.09966822  0.90654098  1  0  0.303395  0  2.003189  0  0  0.217268  0  2.473563  0  0  0.235502  0  2.415558  0  0  0.285334  0.205921  0  2.512444  0
H  H2  1  0.20487802  0.39234367  0.67748843  1  0  0.100727  0  0.978183  0  0  0.1059  0  1.052905  0  0  0.109338  0  1.050677  0  0  0.09137  0.103553  0  1.05444  0
H  H3  1  0.79513387  0.60766184  0.32251424  1  0  0.100831  0  0.97813  0  0  0.105999  0  1.052849  0  0  0.109436  0  1.050622  0  0  0.091385  0.103653  0  1.054386  0
H  H4  1  0.16942072  0.63070799  0.76038744  1  0  0.086388  0  0.977019  0  0  0.096538  0  1.041138  0  0  0.097501  0  1.04332  0  0  0.0944  0.09544  0  1.040177  0
H  H5  1  0.83058947  0.36929883  0.23961773  1  0  0.086391  0  0.977149  0  0  0.096508  0  1.041269  0  0  0.097471  0  1.043451  0  0  0.094416  0.095402  0  1.040313  0
H  H6  1  0.19102283  0.92506428  0.59922755  1  0  0.083271  0  0.994445  0  0  0.095736  0  1.055732  0  0  0.098002  0  1.055674  0  0  0.083868  0.094209  0  1.05552  0
H  H7  1  0.80897986  0.07494407  0.40076670  1  0  0.083276  0  0.994444  0  0  0.095716  0  1.055761  0  0  0.097999  0  1.055682  0  0  0.083876  0.094189  0  1.055546  0
H  H8  1  0.26617036  0.99150539  0.34740580  1  0  0.098783  0  0.959687  0  0  0.110031  0  1.023357  0  0  0.112996  0  1.021431  0  0  0.098313  0.108013  0  1.024749  0
H  H9  1  0.73382952  0.00849140  0.65258747  1  0  0.098747  0  0.959768  0  0  0.109995  0  1.023436  0  0  0.11298  0  1.02149  0  0  0.098308  0.107978  0  1.024832  0
H  H10  1  0.25039222  0.23143703  0.54092222  1  0  0.106485  0  0.967041  0  0  0.126045  0  1.032805  0  0  0.12758  0  1.031905  0  0  0.097537  0.124763  0  1.033625  0
H  H11  1  0.74961975  0.76855682  0.45908521  1  0  0.106533  0  0.967043  0  0  0.126094  0  1.032817  0  0  0.127631  0  1.031916  0  0  0.097563  0.124813  0  1.033635  0
H  H12  1  0.41398533  0.20805666  0.41346827  1  0  0.095492  0  0.961642  0  0  0.1148  0  1.028404  0  0  0.114804  0  1.029806  0  0  0.099954  0.114413  0  1.027863  0
H  H13  1  0.58601964  0.79194255  0.58653277  1  0  0.095456  0  0.96166  0  0  0.114778  0  1.028402  0  0  0.114781  0  1.029805  0  0  0.099936  0.11439  0  1.027863  0
H  H14  1  0.15628512  0.27254394  0.37006127  1  0  0.095755  0  0.97384  0  0  0.11622  0  1.03754  0  0  0.11579  0  1.039908  0  0  0.100287  0.116359  0  1.035906  0
H  H15  1  0.84372322  0.72744741  0.62994514  1  0  0.09567  0  0.973917  0  0  0.116146  0  1.037611  0  0  0.115714  0  1.039983  0  0  0.10026  0.116287  0  1.035975  0
H  H16  1  0.28767641  0.24987963  0.06753216  1  0  0.066097  0  1.020511  0  0  0.069474  0  1.103387  0  0  0.074661  0  1.09728  0  0  0.07668  0.065626  0  1.107957  0
H  H17  1  0.71231813  0.75012753  0.93246555  1  0  0.066083  0  1.020497  0  0  0.069507  0  1.103315  0  0  0.074697  0  1.097209  0  0  0.076681  0.065658  0  1.107885  0
H  H18  1  0.00509725  0.75777375  0.04953459  1  0  0.090585  0  0.982986  0  0  0.095859  0  1.055787  0  0  0.099153  0  1.054286  0  0  0.084268  0.093566  0  1.056852  0
H  H19  1  0.99490108  0.24222947  0.95046336  1  0  0.090633  0  0.983015  0  0  0.095881  0  1.055827  0  0  0.099174  0  1.054331  0  0  0.084269  0.093584  0  1.056892  0
H  H20  1  0.45529432  0.38237816  0.17045180  1  0  0.103382  0  0.945223  0  0  0.116266  0  1.011939  0  0  0.118228  0  1.011534  0  0  0.099218  0.114848  0  1.012304  0
H  H21  1  0.54470779  0.61762113  0.82954542  1  0  0.103427  0  0.94523  0  0  0.116296  0  1.011961  0  0  0.118261  0  1.011554  0  0  0.099226  0.114878  0  1.01233  0
H  H22  1  0.42146996  0.60444582  0.05390400  1  0  0.103592  0  0.95422  0  0  0.118135  0  1.021175  0  0  0.120111  0  1.019772  0  0  0.096606  0.116806  0  1.022074  0
H  H23  1  0.57852435  0.39555096  0.94609999  1  0  0.103551  0  0.954232  0  0  0.118104  0  1.021185  0  0  0.120064  0  1.019799  0  0  0.096586  0.116803  0  1.022051  0
C  C24  1  0.27595698  0.72866054  0.37280251  1  0  0.144697  0  3.8372  0  0  0.140131  0  4.086286  0  0  0.143458  0  4.109663  0  0  0.079857  0.13787  0  4.070916  0
C  C25  1  0.72404404  0.27133748  0.62719515  1  0  0.144826  0  3.837171  0  0  0.140195  0  4.086249  0  0  0.143519  0  4.109633  0  0  0.079877  0.137936  0  4.070879  0
C  C26  1  0.25418295  0.56168145  0.46439844  1  0  0.101373  0  3.769821  0  0  0.090481  0  4.013563  0  0  0.094534  0  4.036049  0  0  0.091531  0.087746  0  3.99881  0
C  C27  1  0.74582269  0.43831514  0.53560536  1  0  0.101293  0  3.769904  0  0  0.090515  0  4.013548  0  0  0.094578  0  4.036017  0  0  0.091572  0.087782  0  3.998793  0
C  C28  1  0.21759543  0.52149812  0.60553061  1  0  -0.133063  0  3.734711  0  0  -0.153942  0  3.992329  0  0  -0.15657  0  4.011392  0  0  -0.097961  -0.152539  0  3.979675  0
C  C29  1  0.78241143  0.47850492  0.39447106  1  0  -0.133285  0  3.734907  0  0  -0.15417  0  3.992455  0  0  -0.1568  0  4.011515  0  0  -0.098048  -0.152764  0  3.9798  0
C  C30  1  0.19833840  0.65584238  0.65104469  1  0  -0.083765  0  3.784709  0  0  -0.095932  0  4.036395  0  0  -0.097762  0  4.058799  0  0  -0.104169  -0.094372  0  4.021193  0
C  C31  1  0.80166673  0.34416197  0.34895755  1  0  -0.083711  0  3.784933  0  0  -0.095846  0  4.036672  0  0  -0.097683  0  4.059085  0  0  -0.104121  -0.094288  0  4.021466  0
C  C32  1  0.21196838  0.82402847  0.55896762  1  0  -0.093003  0  3.807985  0  0  -0.108856  0  4.058238  0  0  -0.111219  0  4.079913  0  0  -0.10807  -0.106888  0  4.042938  0
C  C33  1  0.78803421  0.17597467  0.44103122  1  0  -0.093033  0  3.807983  0  0  -0.108872  0  4.058221  0  0  -0.111247  0  4.079895  0  0  -0.10812  -0.106898  0  4.04292  0
C  C34  1  0.25180239  0.86277513  0.41901327  1  0  -0.140561  0  3.756108  0  0  -0.156744  0  4.003033  0  0  -0.158739  0  4.022084  0  0  -0.097355  -0.155661  0  3.990231  0
C  C35  1  0.74819327  0.13722169  0.58098393  1  0  -0.140545  0  3.756098  0  0  -0.156736  0  4.003065  0  0  -0.158732  0  4.02208  0  0  -0.097383  -0.155656  0  3.99027  0
C  C36  1  0.31922940  0.56851541  0.25135705  1  0  0.359902  0  3.656464  0  0  0.331442  0  3.922555  0  0  0.349448  0  3.93561  0  0  0.233592  0.320107  0  3.913001  0
C  C37  1  0.68076204  0.43148146  0.74864313  1  0  0.359905  0  3.656549  0  0  0.331436  0  3.92267  0  0  0.349443  0  3.935728  0  0  0.233584  0.320102  0  3.913117  0
C  C38  1  0.27477748  0.28354283  0.42871245  1  0  -0.155218  0  3.634974  0  0  -0.256419  0  3.876213  0  0  -0.2534  0  3.886312  0  0  -0.13257  -0.257969  0  3.869562  0
C  C39  1  0.72522881  0.71645113  0.57129507  1  0  -0.155227  0  3.635102  0  0  -0.256431  0  3.876356  0  0  -0.253413  0  3.886458  0  0  -0.132569  -0.25798  0  3.869707  0
C  C40  1  0.16792653  0.50399313  0.06744015  1  0  0.099994  0  3.731329  0  0  0.120209  0  3.964447  0  0  0.120559  0  3.988739  0  0  -0.014287  0.1202  0  3.947592  0
C  C41  1  0.83206500  0.49600896  0.93255447  1  0  0.100025  0  3.731162  0  0  0.120323  0  3.964153  0  0  0.120689  0  3.988419  0  0  -0.014256  0.120314  0  3.947299  0
C  C42  1  0.16121142  0.36028878  0.03831857  1  0  -0.127066  0  3.763972  0  0  -0.140877  0  4.00791  0  0  -0.14376  0  4.027227  0  0  -0.101988  -0.138745  0  3.994753  0
C  C43  1  0.83877731  0.63971332  0.96167900  1  0  -0.127041  0  3.763817  0  0  -0.140908  0  4.007728  0  0  -0.143796  0  4.027035  0  0  -0.101959  -0.138776  0  3.99458  0
C  C44  1  0.00419496  0.64399106  0.02835749  1  0  -0.117589  0  3.747286  0  0  -0.136363  0  3.992673  0  0  -0.138484  0  4.013563  0  0  -0.100097  -0.134694  0  3.978213  0
C  C45  1  0.99579625  0.35601232  0.97163671  1  0  -0.117681  0  3.747305  0  0  -0.136441  0  3.992647  0  0  -0.138566  0  4.01353  0  0  -0.100084  -0.13477  0  3.978181  0
C  C46  1  0.35217531  0.51055674  0.13399079  1  0  -0.248822  0  3.723389  0  0  -0.289106  0  3.950753  0  0  -0.292255  0  3.960013  0  0  -0.151077  -0.286863  0  3.943912  0
C  C47  1  0.64781755  0.48944009  0.86601033  1  0  -0.248904  0  3.723479  0  0  -0.289189  0  3.950769  0  0  -0.292334  0  3.960045  0  0  -0.151092  -0.286967  0  3.943921  0
I  I48  1  0.29558873  0.99485107  0.83796453  1  0  -0.396449  0  1.465468  0  0  -0.334485  0  1.869396  0  0  -0.351471  0  1.830844  0  0  -0.169958  -0.322984  0  1.895595  0
I  I49  1  0.70440775  0.00514828  0.16203665  1  0  -0.39644  0  1.465446  0  0  -0.334458  0  1.869349  0  0  -0.351443  0  1.830795  0  0  -0.169948  -0.322962  0  1.895551  0
N  N50  1  0.31968312  0.72757476  0.24185851  1  0  -0.421674  0  3.313678  0  0  -0.362779  0  3.628374  0  0  -0.381606  0  3.634222  0  0  -0.395523  -0.350648  0  3.624463  0
N  N51  1  0.68031255  0.27242206  0.75813966  1  0  -0.421672  0  3.313587  0  0  -0.362692  0  3.628198  0  0  -0.381511  0  3.63403  0  0  -0.395449  -0.350563  0  3.624291  0
N  N52  1  0.28067832  0.46456140  0.38327462  1  0  -0.122677  0  3.496224  0  0  -0.02906  0  3.713042  0  0  -0.046459  0  3.73834  0  0  -0.239803  -0.018105  0  3.695996  0
N  N53  1  0.71932621  0.53543392  0.61672865  1  0  -0.122554  0  3.496342  0  0  -0.029044  0  3.713243  0  0  -0.046445  0  3.738541  0  0  -0.239818  -0.018093  0  3.696196  0
