# generated using pymatgen
data_CdH12C10(IN2)2
_symmetry_space_group_name_H-M   'P 1'
_cell_length_a   4.15388124
_cell_length_b   8.33609908
_cell_length_c   22.02390952
_cell_angle_alpha   90.00047385
_cell_angle_beta   89.99967805
_cell_angle_gamma   97.12309829
_symmetry_Int_Tables_number   1
_chemical_formula_structural   CdH12C10(IN2)2
_chemical_formula_sum   'Cd2 H24 C20 I4 N8'
_cell_volume   756.73963972
_cell_formula_units_Z   2
loop_
 _symmetry_equiv_pos_site_id
 _symmetry_equiv_pos_as_xyz
  1  'x, y, z'
loop_
 _atom_site_type_symbol
 _atom_site_label
 _atom_site_symmetry_multiplicity
 _atom_site_fract_x
 _atom_site_fract_y
 _atom_site_fract_z
 _atom_site_occupancy
 _atom_site_hle17_bader_spin_density
 _atom_site_hle17_ddec_charge
 _atom_site_hle17_ddec_spin_density
 _atom_site_hle17_ddec_sum_bond_order
 _atom_site_hle17_magmom
 _atom_site_hse06_10hf_bader_spin_density
 _atom_site_hse06_10hf_ddec_charge
 _atom_site_hse06_10hf_ddec_spin_density
 _atom_site_hse06_10hf_ddec_sum_bond_order
 _atom_site_hse06_10hf_magmom
 _atom_site_hse06_bader_spin_density
 _atom_site_hse06_ddec_charge
 _atom_site_hse06_ddec_spin_density
 _atom_site_hse06_ddec_sum_bond_order
 _atom_site_hse06_magmom
 _atom_site_pbe_bader_spin_density
 _atom_site_pbe_cm5_charge
 _atom_site_pbe_ddec_charge
 _atom_site_pbe_ddec_spin_density
 _atom_site_pbe_ddec_sum_bond_order
 _atom_site_pbe_magmom
Cd  Cd0  1  0.50000040  0.00000508  0.50000001  1  0  0.738168  0  2.072709  0  0  0.586275  0  2.499072  0  0  0.636719  0  2.467091  0  0  0.468778  0.55098  0  2.521316  0
Cd  Cd1  1  0.99999860  0.50001598  0.00000442  1  0  0.73816  0  2.072739  0  0  0.586256  0  2.499107  0  0  0.636707  0  2.467128  0  0  0.468791  0.550968  0  2.521349  0
H  H2  1  0.34642905  0.98090352  0.35351403  1  0  0.085969  0  0.966984  0  0  0.092008  0  1.036732  0  0  0.095413  0  1.033997  0  0  0.100704  0.089461  0  1.038953  0
H  H3  1  0.15351648  0.51909501  0.85352406  1  0  0.085878  0  0.967  0  0  0.091982  0  1.036743  0  0  0.095392  0  1.033999  0  0  0.100676  0.089436  0  1.038959  0
H  H4  1  0.65358650  0.01909983  0.64648077  1  0  0.08606  0  0.967028  0  0  0.092059  0  1.036794  0  0  0.095464  0  1.034061  0  0  0.100693  0.089512  0  1.039011  0
H  H5  1  0.84634843  0.48088961  0.14648709  1  0  0.08607  0  0.967002  0  0  0.092076  0  1.036779  0  0  0.095485  0  1.034039  0  0  0.100676  0.089528  0  1.039003  0
H  H6  1  0.59735598  0.62075670  0.46784318  1  0  0.078616  0  0.976781  0  0  0.083929  0  1.049977  0  0  0.087203  0  1.047129  0  0  0.097743  0.081495  0  1.052209  0
H  H7  1  0.90267938  0.87928520  0.96784868  1  0  0.078672  0  0.976401  0  0  0.084004  0  1.049609  0  0  0.087282  0  1.046755  0  0  0.097754  0.081569  0  1.051843  0
H  H8  1  0.40271317  0.37927383  0.53215798  1  0  0.07842  0  0.976929  0  0  0.083876  0  1.050001  0  0  0.087147  0  1.047157  0  0  0.097756  0.081443  0  1.052234  0
H  H9  1  0.09733256  0.12076030  0.03214975  1  0  0.078549  0  0.976734  0  0  0.083803  0  1.049993  0  0  0.087074  0  1.047149  0  0  0.097704  0.08137  0  1.052225  0
H  H10  1  0.60064619  0.43137359  0.37836375  1  0  0.081087  0  0.964162  0  0  0.087678  0  1.031554  0  0  0.090893  0  1.028966  0  0  0.097598  0.085174  0  1.033874  0
H  H11  1  0.89939750  0.06864349  0.87836418  1  0  0.081109  0  0.964205  0  0  0.087637  0  1.031654  0  0  0.09085  0  1.029066  0  0  0.09756  0.085135  0  1.033971  0
H  H12  1  0.39942223  0.56864125  0.62164149  1  0  0.081034  0  0.964069  0  0  0.087604  0  1.031504  0  0  0.090818  0  1.028916  0  0  0.097552  0.085101  0  1.033821  0
H  H13  1  0.10065088  0.93136749  0.12162472  1  0  0.081069  0  0.964204  0  0  0.087615  0  1.031618  0  0  0.09083  0  1.029032  0  0  0.097543  0.085109  0  1.033935  0
H  H14  1  0.22925788  0.70279888  0.21822794  1  0  0.122302  0  0.940549  0  0  0.141545  0  1.002533  0  0  0.143575  0  1.001242  0  0  0.091854  0.140068  0  1.00346  0
H  H15  1  0.27073134  0.79716735  0.71823240  1  0  0.122173  0  0.940703  0  0  0.141426  0  1.002682  0  0  0.143455  0  1.001392  0  0  0.091894  0.139951  0  1.003604  0
H  H16  1  0.77076684  0.29719011  0.78177140  1  0  0.12221  0  0.940631  0  0  0.141453  0  1.002621  0  0  0.143483  0  1.00133  0  0  0.091821  0.139977  0  1.003545  0
H  H17  1  0.72920863  0.20277117  0.28176831  1  0  0.122385  0  0.940672  0  0  0.141643  0  1.002616  0  0  0.143675  0  1.001323  0  0  0.091869  0.140167  0  1.003545  0
H  H18  1  0.55967597  0.85846740  0.22381333  1  0  0.125529  0  0.955413  0  0  0.14211  0  1.023369  0  0  0.143315  0  1.023453  0  0  0.094268  0.141249  0  1.023279  0
H  H19  1  0.94031976  0.64150526  0.72382167  1  0  0.125383  0  0.955588  0  0  0.141957  0  1.023568  0  0  0.143161  0  1.023653  0  0  0.094194  0.141096  0  1.023472  0
H  H20  1  0.44035671  0.14152530  0.77618374  1  0  0.125443  0  0.955418  0  0  0.142043  0  1.023382  0  0  0.14325  0  1.023463  0  0  0.094199  0.141183  0  1.023289  0
H  H21  1  0.05962576  0.35843695  0.27618403  1  0  0.125365  0  0.955554  0  0  0.141988  0  1.023462  0  0  0.143184  0  1.023552  0  0  0.094183  0.141128  0  1.023374  0
H  H22  1  0.16994248  0.90039342  0.24531294  1  0  0.121908  0  0.982469  0  0  0.133434  0  1.054624  0  0  0.136037  0  1.053162  0  0  0.090948  0.131541  0  1.05567  0
H  H23  1  0.33003848  0.59958410  0.74532398  1  0  0.121926  0  0.982433  0  0  0.133446  0  1.054575  0  0  0.136044  0  1.053117  0  0  0.090998  0.131556  0  1.055613  0
H  H24  1  0.83008537  0.09959923  0.75468413  1  0  0.121968  0  0.982454  0  0  0.133501  0  1.05459  0  0  0.136105  0  1.053127  0  0  0.091003  0.131609  0  1.055632  0
H  H25  1  0.66990005  0.40037128  0.25468808  1  0  0.12194  0  0.982482  0  0  0.133463  0  1.054628  0  0  0.136065  0  1.053166  0  0  0.090984  0.131568  0  1.055677  0
C  C26  1  0.40093616  0.75220309  0.30848758  1  0  0.268541  0  3.724835  0  0  0.286146  0  3.963849  0  0  0.289913  0  3.985194  0  0  0.12891  0.2834  0  3.949513  0
C  C27  1  0.09906014  0.74780119  0.80849113  1  0  0.26859  0  3.724933  0  0  0.286277  0  3.963837  0  0  0.290042  0  3.985188  0  0  0.128895  0.283529  0  3.949491  0
C  C28  1  0.59911101  0.24780184  0.69151177  1  0  0.268606  0  3.72484  0  0  0.286119  0  3.963942  0  0  0.289886  0  3.985292  0  0  0.128963  0.28337  0  3.949595  0
C  C29  1  0.90088394  0.25218199  0.19150867  1  0  0.2684  0  3.724941  0  0  0.285935  0  3.964021  0  0  0.289702  0  3.985369  0  0  0.12878  0.283185  0  3.949682  0
C  C30  1  0.40249805  0.85692245  0.35851610  1  0  0.0169  0  3.649759  0  0  -0.017464  0  3.894733  0  0  -0.016099  0  3.913956  0  0  0.040761  -0.018461  0  3.881857  0
C  C31  1  0.09746736  0.64308004  0.85852113  1  0  0.016862  0  3.649437  0  0  -0.01765  0  3.894509  0  0  -0.01628  0  3.913717  0  0  0.040719  -0.018653  0  3.881644  0
C  C32  1  0.59751991  0.14308092  0.64148097  1  0  0.016587  0  3.650043  0  0  -0.017711  0  3.895041  0  0  -0.016342  0  3.914251  0  0  0.040687  -0.018706  0  3.882161  0
C  C33  1  0.90244969  0.35691246  0.14148139  1  0  0.016705  0  3.650055  0  0  -0.01761  0  3.895051  0  0  -0.01624  0  3.914259  0  0  0.040796  -0.018608  0  3.882176  0
C  C34  1  0.53904007  0.65773976  0.42205303  1  0  0.061446  0  3.706155  0  0  0.026696  0  3.964806  0  0  0.028914  0  3.983699  0  0  0.034339  0.025138  0  3.952015  0
C  C35  1  0.96098163  0.84228659  0.92205337  1  0  0.061295  0  3.706142  0  0  0.026481  0  3.964846  0  0  0.028694  0  3.983743  0  0  0.034172  0.024924  0  3.952053  0
C  C36  1  0.46099601  0.34228192  0.57794859  1  0  0.061586  0  3.706181  0  0  0.026698  0  3.964865  0  0  0.028916  0  3.983756  0  0  0.034262  0.025136  0  3.952079  0
C  C37  1  0.03900930  0.15773815  0.07794008  1  0  0.06154  0  3.7061  0  0  0.026863  0  3.964716  0  0  0.029081  0  3.983608  0  0  0.034347  0.025303  0  3.951923  0
C  C38  1  0.54085103  0.55433968  0.37235506  1  0  0.078651  0  3.727973  0  0  0.056966  0  3.985552  0  0  0.058842  0  4.002791  0  0  0.043746  0.055658  0  3.974001  0
C  C39  1  0.95917040  0.94567724  0.87235845  1  0  0.078641  0  3.727852  0  0  0.057046  0  3.98543  0  0  0.058923  0  4.002671  0  0  0.043893  0.055737  0  3.973873  0
C  C40  1  0.45921883  0.44567036  0.62764611  1  0  0.078712  0  3.727933  0  0  0.057039  0  3.98558  0  0  0.058916  0  4.002819  0  0  0.043855  0.055729  0  3.974022  0
C  C41  1  0.04083067  0.05433798  0.12763545  1  0  0.078674  0  3.728246  0  0  0.057053  0  3.985792  0  0  0.058927  0  4.003038  0  0  0.04394  0.055743  0  3.974234  0
C  C42  1  0.33228337  0.80613433  0.24575723  1  0  -0.380525  0  3.720975  0  0  -0.459156  0  3.954313  0  0  -0.462428  0  3.962081  0  0  -0.245912  -0.456538  0  3.948854  0
C  C43  1  0.16770192  0.69384084  0.74576282  1  0  -0.380252  0  3.721008  0  0  -0.458891  0  3.954364  0  0  -0.462155  0  3.962133  0  0  -0.245976  -0.456295  0  3.948936  0
C  C44  1  0.66774690  0.19385834  0.75424211  1  0  -0.38038  0  3.720898  0  0  -0.459011  0  3.95427  0  0  -0.462284  0  3.962032  0  0  -0.245865  -0.456408  0  3.948851  0
C  C45  1  0.83222863  0.30611082  0.25424198  1  0  -0.380446  0  3.721143  0  0  -0.459106  0  3.954419  0  0  -0.462369  0  3.962198  0  0  -0.245864  -0.456487  0  3.948972  0
I  I46  1  0.97175483  0.80438297  0.56376541  1  0  -0.455544  0  1.185303  0  0  -0.406289  0  1.517053  0  0  -0.427327  0  1.496798  0  0  -0.200872  -0.391067  0  1.532202  0
I  I47  1  0.52825879  0.69564098  0.06376339  1  0  -0.455539  0  1.185459  0  0  -0.406289  0  1.517254  0  0  -0.427335  0  1.497004  0  0  -0.200836  -0.391071  0  1.532405  0
I  I48  1  0.02827593  0.19562418  0.43623711  1  0  -0.455488  0  1.18531  0  0  -0.406267  0  1.517088  0  0  -0.427303  0  1.496836  0  0  -0.200853  -0.391045  0  1.53224  0
I  I49  1  0.47174591  0.30440443  0.93623368  1  0  -0.455511  0  1.185273  0  0  -0.406252  0  1.517021  0  0  -0.427295  0  1.496773  0  0  -0.200873  -0.39103  0  1.532169  0
N  N50  1  0.47071172  0.60003655  0.31615669  1  0  -0.305984  0  3.032544  0  0  -0.26901  0  3.281474  0  0  -0.277905  0  3.296763  0  0  -0.294294  -0.262753  0  3.271099  0
N  N51  1  0.02929667  0.89995718  0.81615671  1  0  -0.306053  0  3.032591  0  0  -0.269101  0  3.281475  0  0  -0.277998  0  3.296769  0  0  -0.294326  -0.262836  0  3.271093  0
N  N52  1  0.52932990  0.39996470  0.68384402  1  0  -0.306035  0  3.032532  0  0  -0.269024  0  3.281487  0  0  -0.277921  0  3.296779  0  0  -0.294392  -0.26276  0  3.271104  0
N  N53  1  0.97068314  0.10002402  0.18383673  1  0  -0.305939  0  3.032882  0  0  -0.268958  0  3.281832  0  0  -0.277855  0  3.297129  0  0  -0.294342  -0.262703  0  3.271455  0
N  N54  1  0.47034078  0.80953249  0.41468449  1  0  -0.268021  0  3.312733  0  0  -0.191758  0  3.566113  0  0  -0.208734  0  3.59125  0  0  -0.314212  -0.179873  0  3.548597  0
N  N55  1  0.02964742  0.69049671  0.91469065  1  0  -0.26778  0  3.312563  0  0  -0.191456  0  3.565924  0  0  -0.208433  0  3.591068  0  0  -0.313988  -0.179572  0  3.548402  0
N  N56  1  0.52969698  0.19048559  0.58531349  1  0  -0.267781  0  3.312647  0  0  -0.191506  0  3.565991  0  0  -0.208483  0  3.591133  0  0  -0.31406  -0.179621  0  3.548473  0
N  N57  1  0.97029982  0.30952629  0.08531142  1  0  -0.267851  0  3.312918  0  0  -0.191622  0  3.566269  0  0  -0.208597  0  3.591409  0  0  -0.314145  -0.179738  0  3.548749  0
