# generated using pymatgen
data_Cu2H8C13N5
_symmetry_space_group_name_H-M   'P 1'
_cell_length_a   8.19430342
_cell_length_b   10.67074967
_cell_length_c   13.88673511
_cell_angle_alpha   90.00183279
_cell_angle_beta   90.00009389
_cell_angle_gamma   91.44596768
_symmetry_Int_Tables_number   1
_chemical_formula_structural   Cu2H8C13N5
_chemical_formula_sum   'Cu8 H32 C52 N20'
_cell_volume   1213.86057999
_cell_formula_units_Z   4
loop_
 _symmetry_equiv_pos_site_id
 _symmetry_equiv_pos_as_xyz
  1  'x, y, z'
loop_
 _atom_site_type_symbol
 _atom_site_label
 _atom_site_symmetry_multiplicity
 _atom_site_fract_x
 _atom_site_fract_y
 _atom_site_fract_z
 _atom_site_occupancy
 _atom_site_hle17_ddec_charge
 _atom_site_hle17_ddec_spin_density
 _atom_site_hle17_ddec_sum_bond_order
 _atom_site_hle17_magmom
 _atom_site_hse06_10hf_ddec_charge
 _atom_site_hse06_10hf_ddec_spin_density
 _atom_site_hse06_10hf_ddec_sum_bond_order
 _atom_site_hse06_10hf_magmom
 _atom_site_hse06_ddec_charge
 _atom_site_hse06_ddec_spin_density
 _atom_site_hse06_ddec_sum_bond_order
 _atom_site_hse06_magmom
 _atom_site_pbe_cm5_charge
 _atom_site_pbe_ddec_charge
 _atom_site_pbe_ddec_spin_density
 _atom_site_pbe_ddec_sum_bond_order
 _atom_site_pbe_magmom
Cu  Cu0  1  0.92475608  0.48209754  0.57686409  1  0.252072  0.104066  2.797144  0.084  0.161225  0.012759  3.347317  0.013  0.123255  -0.00076  3.324426  0.002  0.39098  0.202121  0.045518  3.343662  0.039
Cu  Cu1  1  0.57521413  0.01786098  0.07684290  1  0.250558  0.014145  2.798448  0.011  0.161301  0.001642  3.34797  0.001  0.123281  -0.000122  3.325217  0.0  0.391114  0.202548  0.008973  3.343877  0.007
Cu  Cu2  1  0.07508684  0.51797067  0.42316635  1  0.250773  0.02271  2.799494  0.018  0.161521  0.004673  3.348941  0.004  0.123451  0.000551  3.326226  0.001  0.391283  0.202729  0.01863  3.344815  0.015
Cu  Cu3  1  0.42485104  0.98208900  0.92316521  1  0.251966  0.104526  2.799321  0.084  0.161345  0.012127  3.349622  0.012  0.123278  -0.001219  3.326908  0.001  0.391306  0.202307  0.043536  3.345873  0.038
Cu  Cu4  1  0.55150872  0.24244913  0.38702439  1  0.788579  -0.739654  2.125629  -0.489  0.775274  -0.864592  2.535908  -0.626  0.861246  -0.969481  2.469965  -0.722  0.80379  0.717433  -0.755201  2.584053  -0.543
Cu  Cu5  1  0.94863488  0.25752461  0.88707896  1  0.788191  0.659146  2.126721  0.491  0.775777  0.795745  2.536299  0.627  0.861509  0.880142  2.470499  0.722  0.804946  0.719265  0.709604  2.583529  0.548
Cu  Cu6  1  0.44868732  0.75757780  0.61289587  1  0.789009  0.660045  2.12664  0.492  0.775979  0.795571  2.536454  0.627  0.861752  0.879962  2.470456  0.722  0.805285  0.719668  0.709819  2.583648  0.548
Cu  Cu7  1  0.05142921  0.74237007  0.11290755  1  0.788983  0.659055  2.126634  0.491  0.775626  0.795357  2.536759  0.627  0.861072  0.87997  2.471275  0.722  0.805198  0.719078  0.708281  2.584153  0.547
H  H8  1  0.74684391  0.03290291  0.29012009  1  0.084402  -0.001439  0.970968  -0.002  0.095482  -0.001395  1.032247  -0.002  0.095897  -0.001001  1.03266  -0.001  0.116499  0.093977  -0.001577  1.032916  -0.002
H  H9  1  0.75316996  0.46706858  0.79013209  1  0.084379  0.001044  0.97103  0.002  0.095582  0.001123  1.032164  0.002  0.095998  0.000752  1.032626  0.001  0.116583  0.094151  0.001341  1.032766  0.002
H  H10  1  0.25318855  0.96705994  0.70987434  1  0.084445  0.001033  0.971035  0.002  0.095668  0.00112  1.032127  0.002  0.096097  0.000744  1.03257  0.001  0.116608  0.094208  0.001352  1.032747  0.002
H  H11  1  0.24680935  0.53292197  0.20987602  1  0.084557  0.001282  0.970823  0.002  0.09566  0.001269  1.032033  0.002  0.096038  0.000892  1.032542  0.001  0.116602  0.094247  0.001475  1.032626  0.002
H  H12  1  0.90232664  0.84849272  0.34643789  1  0.118952  -0.000613  0.967486  -0.001  0.130952  -0.000551  1.021765  -0.001  0.13282  -0.000398  1.023213  0.0  0.108595  0.128975  -0.000621  1.02139  -0.001
H  H13  1  0.59768481  0.65150672  0.84643261  1  0.118769  0.000342  0.967468  0.001  0.130832  0.000417  1.021747  0.001  0.132682  0.000268  1.02323  0.0  0.108587  0.128903  0.000513  1.02132  0.001
H  H14  1  0.09768933  0.15149999  0.65358174  1  0.118913  0.000332  0.96741  0.001  0.130957  0.000411  1.021649  0.001  0.132806  0.000259  1.023134  0.0  0.108653  0.12905  0.00051  1.021177  0.001
H  H15  1  0.40230970  0.34851206  0.15357046  1  0.118818  0.000568  0.967274  0.001  0.130773  0.000525  1.021635  0.001  0.132618  0.00038  1.023127  0.0  0.108627  0.128909  0.000602  1.021144  0.001
H  H16  1  0.90889630  0.80142789  0.52387715  1  0.098474  -0.000199  0.939107  0.0  0.112496  -1e-06  0.997138  0.0  0.114421  -1e-06  0.995815  0.0  0.110226  0.110198  3e-06  0.998832  0.0
H  H17  1  0.59113150  0.69858731  0.02387123  1  0.098425  0.000148  0.93916  0.0  0.112436  -1.6e-05  0.997225  0.0  0.114361  -5.2e-05  0.995896  0.0  0.110213  0.110161  4.1e-05  0.998895  0.0
H  H18  1  0.09113315  0.19856774  0.47614176  1  0.098612  0.00026  0.93898  0.0  0.112546  4.7e-05  0.997111  0.0  0.11447  1.8e-05  0.995785  0.0  0.110301  0.110309  0.000102  0.998701  0.0
H  H19  1  0.40887300  0.30144280  0.97612680  1  0.098559  0.000169  0.939107  0.0  0.112514  -6e-06  0.997221  0.0  0.114449  -4.4e-05  0.995868  0.0  0.110272  0.110269  4.6e-05  0.998848  0.0
H  H20  1  0.76533555  0.94396652  0.63697957  1  0.108506  -0.000785  0.955379  -0.001  0.119655  -0.000794  1.017372  -0.001  0.122388  -0.000572  1.016186  -0.001  0.111497  0.116956  -0.000897  1.019372  -0.001
H  H21  1  0.73471266  0.55607510  0.13699189  1  0.108514  0.000554  0.955219  0.001  0.119568  0.000538  1.017373  0.001  0.12229  0.000334  1.016198  0.001  0.111543  0.116941  0.000667  1.019273  0.001
H  H22  1  0.23471056  0.05606954  0.36301486  1  0.10856  0.000736  0.955286  0.001  0.119654  0.000795  1.017349  0.001  0.122378  0.000563  1.016177  0.001  0.111596  0.117034  0.000925  1.019236  0.001
H  H23  1  0.26531776  0.44397021  0.86300974  1  0.108458  0.000516  0.955256  0.001  0.119529  0.000473  1.01736  0.001  0.122252  0.000293  1.016183  0.001  0.111523  0.11692  0.000578  1.019261  0.001
H  H24  1  0.65367468  0.08068975  0.72418306  1  0.113032  -0.000792  0.956772  -0.001  0.124664  -0.000736  1.015152  -0.001  0.126588  -0.000503  1.015568  -0.001  0.110232  0.12248  -0.000855  1.015907  -0.001
H  H25  1  0.84625554  0.41925866  0.22416842  1  0.113006  0.000679  0.95684  0.001  0.124757  0.000698  1.015057  0.001  0.126625  0.000457  1.015548  0.001  0.110374  0.122683  0.000827  1.015702  0.001
H  H26  1  0.34634227  0.91929079  0.27585530  1  0.113204  0.000692  0.956577  0.001  0.124862  0.000683  1.014911  0.001  0.126734  0.000475  1.015396  0.001  0.110492  0.122807  0.000791  1.015513  0.001
H  H27  1  0.15369653  0.58071200  0.77582097  1  0.113021  0.000697  0.956588  0.001  0.124711  0.000695  1.014903  0.001  0.126585  0.000464  1.015379  0.001  0.110345  0.122621  0.00081  1.015559  0.001
H  H28  1  0.51421025  0.24647654  0.81155834  1  0.096169  -0.000259  0.956907  0.0  0.109153  -5.1e-05  1.014826  0.0  0.1104  -3.5e-05  1.014767  0.0  0.106726  0.107692  -5.6e-05  1.015456  0.0
H  H29  1  0.98578436  0.25350506  0.31153112  1  0.096105  0.000244  0.956861  0.0  0.109205  6.2e-05  1.014618  0.0  0.11046  3.7e-05  1.014559  0.0  0.106822  0.107822  7.3e-05  1.015145  0.0
H  H30  1  0.48579305  0.75349264  0.18847930  1  0.0961  0.000109  0.956755  0.0  0.109177  -5.6e-05  1.014576  0.0  0.110425  -8.8e-05  1.01452  0.0  0.106838  0.10776  -6e-06  1.01514  0.0
H  H31  1  0.01422687  0.74649511  0.68846187  1  0.096202  0.000139  0.956787  0.0  0.109143  -4.1e-05  1.01471  0.0  0.110435  -7.9e-05  1.014604  0.0  0.10678  0.10775  1.1e-05  1.015257  0.0
H  H32  1  0.38398527  0.42211971  0.71572509  1  0.106894  -0.000568  0.945972  -0.001  0.119599  -0.000578  0.99988  -0.001  0.121557  -0.000405  1.000501  0.0  0.10993  0.117659  -0.000659  1.000259  -0.001
H  H33  1  0.11602597  0.07788284  0.21568454  1  0.106928  0.000524  0.945674  0.001  0.119671  0.000549  0.999582  0.001  0.121618  0.000378  1.000223  0.0  0.109984  0.117803  0.000646  0.999864  0.001
H  H34  1  0.61598995  0.57784925  0.28432263  1  0.106975  0.00053  0.945653  0.001  0.119795  0.000567  0.999461  0.001  0.121743  0.000389  1.000101  0.0  0.110032  0.117943  0.000671  0.999736  0.001
H  H35  1  0.88398306  0.92212950  0.78429477  1  0.10703  0.000514  0.945566  0.001  0.119696  0.000531  0.999574  0.001  0.12165  0.000365  1.000194  0.0  0.109972  0.117843  0.000619  0.999855  0.001
H  H36  1  0.39620053  0.41352362  0.53816994  1  0.088775  -0.001624  0.966891  -0.002  0.101546  -0.001551  1.023515  -0.002  0.10106  -0.001065  1.025146  -0.001  0.119773  0.100551  -0.00179  1.023768  -0.002
H  H37  1  0.10383439  0.08647079  0.03813031  1  0.089038  0.00147  0.966849  0.002  0.101716  0.001482  1.023518  0.002  0.101239  0.000997  1.025146  0.001  0.119798  0.100747  0.00175  1.023757  0.002
H  H38  1  0.60384071  0.58645055  0.46187346  1  0.088923  0.001447  0.966691  0.002  0.101577  0.001434  1.023448  0.002  0.101093  0.00097  1.025093  0.001  0.11983  0.100669  0.001695  1.023627  0.002
H  H39  1  0.89621278  0.91355778  0.96184828  1  0.089186  0.00147  0.96665  0.002  0.101838  0.001478  1.023343  0.002  0.101361  0.000996  1.024976  0.001  0.119924  0.100874  0.001741  1.023561  0.002
C  C40  1  0.75495802  0.59215739  0.61499239  1  -0.027459  0.004945  3.398352  0.013  -0.030855  0.000742  3.771873  0.007  -0.004408  -0.003512  3.771066  0.002  -0.022556  -0.048992  0.00623  3.76715  0.012
C  C41  1  0.74511340  0.90795193  0.11503858  1  -0.028248  -0.000766  3.400275  0.007  -0.03188  -0.000363  3.773602  0.006  -0.005518  -0.003711  3.772926  0.002  -0.023096  -0.049901  0.003354  3.768543  0.01
C  C42  1  0.24496115  0.40800327  0.38492355  1  -0.028722  0.002269  3.398923  -0.004  -0.032503  -3e-06  3.772554  -0.006  -0.006113  0.002908  3.771942  -0.002  -0.023531  -0.050847  -0.001836  3.767661  -0.007
C  C43  1  0.25498105  0.09206015  0.88495873  1  -0.028655  0.007019  3.398798  0.015  -0.031609  0.001134  3.771946  0.008  -0.005128  -0.003416  3.771147  0.002  -0.022992  -0.049928  0.007264  3.767249  0.013
C  C44  1  0.95544574  0.36424461  0.67815284  1  -0.026458  0.002825  3.3863  0.011  -0.033136  0.000395  3.76395  0.007  -0.00514  -0.004076  3.762814  0.002  -0.031748  -0.051973  0.006195  3.75781  0.012
C  C45  1  0.54462988  0.13565804  0.17817125  1  -0.025015  -0.000504  3.38565  -0.007  -0.032417  -0.000579  3.763627  -0.007  -0.004369  0.003051  3.762477  -0.002  -0.031373  -0.051458  -0.003845  3.757438  -0.01
C  C46  1  0.04453033  0.63564282  0.32175014  1  -0.025418  0.000416  3.385836  0.009  -0.032968  9.5e-05  3.763788  0.007  -0.004985  -0.003879  3.762672  0.002  -0.031331  -0.051648  0.004785  3.757362  0.012
C  C47  1  0.45551367  0.86424382  0.82186855  1  -0.025555  0.000864  3.385992  0.009  -0.032687  -0.000132  3.76388  0.007  -0.004732  -0.004256  3.762806  0.002  -0.031579  -0.051314  0.004887  3.757492  0.011
C  C48  1  0.75678179  0.01136397  0.36646751  1  0.136971  0.005198  3.682498  0.006  0.111665  0.00092  3.928741  0.002  0.121401  0.001823  3.948311  0.003  0.051112  0.105309  0.000224  3.917555  0.002
C  C49  1  0.74323498  0.48861823  0.86647427  1  0.137119  -0.006646  3.682588  -0.007  0.11183  -0.001826  3.92862  -0.003  0.121534  -0.002714  3.94816  -0.004  0.05129  0.105553  -0.001122  3.917273  -0.002
C  C50  1  0.24323741  0.98860722  0.63353197  1  0.137301  -0.006321  3.682409  -0.007  0.11191  -0.001376  3.928568  -0.002  0.121616  -0.002347  3.948106  -0.003  0.051386  0.105606  -0.000577  3.917243  -0.002
C  C51  1  0.25674590  0.51139014  0.13352953  1  0.137162  -0.006622  3.682356  -0.007  0.111825  -0.001775  3.928607  -0.003  0.121547  -0.002651  3.948146  -0.004  0.051322  0.105523  -0.001083  3.917227  -0.002
C  C52  1  0.84278137  0.90842263  0.39846595  1  -0.111879  -0.007509  3.69568  -0.007  -0.120342  -0.004071  3.931441  -0.004  -0.127902  -0.003552  3.952767  -0.004  -0.079069  -0.116291  -0.004091  3.918977  -0.004
C  C53  1  0.65722903  0.59157710  0.89846717  1  -0.111694  0.006663  3.695359  0.007  -0.120121  0.003674  3.930943  0.004  -0.127694  0.003194  3.952295  0.004  -0.078821  -0.115989  0.003851  3.918286  0.005
C  C54  1  0.15723076  0.09156162  0.60154433  1  -0.111876  0.00661  3.695621  0.007  -0.120351  0.003659  3.931319  0.004  -0.127938  0.003109  3.952687  0.004  -0.078879  -0.116134  0.003843  3.918517  0.004
C  C55  1  0.34276196  0.40844916  0.10153446  1  -0.111664  0.00688  3.69506  0.008  -0.120103  0.003797  3.930867  0.005  -0.127673  0.003337  3.95222  0.004  -0.078843  -0.115937  0.003924  3.918093  0.005
C  C56  1  0.84614632  0.88315105  0.49685737  1  0.014128  0.005708  3.705645  0.006  -0.004387  0.002329  3.952004  0.002  0.000836  0.002412  3.969612  0.002  -0.061  -0.00843  0.002146  3.942196  0.002
C  C57  1  0.65386088  0.61685557  0.99685778  1  0.014037  -0.006958  3.705565  -0.006  -0.004306  -0.003102  3.951709  -0.003  0.000908  -0.003234  3.969334  -0.003  -0.060955  -0.008254  -0.002857  3.94172  -0.003
C  C58  1  0.15386243  0.11684723  0.50315290  1  0.013915  -0.006431  3.70559  -0.006  -0.004493  -0.002536  3.951934  -0.002  0.000715  -0.00267  3.969579  -0.002  -0.060922  -0.008341  -0.0023  3.941721  -0.002
C  C59  1  0.34613228  0.38315665  0.00314457  1  0.014133  -0.007012  3.705716  -0.006  -0.00443  -0.003082  3.952193  -0.003  0.000786  -0.003209  3.969832  -0.003  -0.060889  -0.008323  -0.002853  3.942066  -0.002
C  C60  1  0.76626438  0.96257563  0.55992281  1  -0.144169  -0.005624  3.700939  -0.005  -0.170889  -0.003257  3.963986  -0.003  -0.178046  -0.002924  3.98171  -0.002  -0.077863  -0.166493  -0.003238  3.953884  -0.003
C  C61  1  0.73375399  0.53745131  0.05993683  1  -0.143963  0.004564  3.700534  0.005  -0.170685  0.002275  3.963395  0.003  -0.177843  0.001995  3.981149  0.003  -0.07773  -0.166225  0.002407  3.953103  0.003
C  C62  1  0.23375572  0.03744149  0.44007162  1  -0.143924  0.005065  3.700716  0.005  -0.170701  0.003056  3.96365  0.003  -0.177873  0.002702  3.98142  0.002  -0.07774  -0.166122  0.003114  3.953201  0.003
C  C63  1  0.26626139  0.46257420  0.94007992  1  -0.143999  0.004559  3.700772  0.005  -0.170848  0.002198  3.96391  0.003  -0.17802  0.001944  3.981678  0.003  -0.077718  -0.166335  0.002331  3.953533  0.003
C  C64  1  0.68501210  0.06600869  0.52330990  1  0.178485  0.001443  3.749162  0.002  0.175405  -0.001384  3.995121  -0.001  0.184445  -0.000222  4.015015  0.001  0.118644  0.169527  -0.002015  3.981989  -0.001
C  C65  1  0.81499077  0.43400597  0.02331720  1  0.177995  -0.002711  3.750496  -0.002  0.175394  0.0004  3.99577  0.0  0.184416  -0.000703  4.015678  -0.001  0.118795  0.169533  0.001139  3.982631  0.001
C  C66  1  0.31500309  0.93400651  0.47668669  1  0.178132  -0.002202  3.750541  -0.002  0.175465  0.000984  3.995986  0.001  0.184482  -0.000179  4.015921  -0.001  0.118785  0.169586  0.001707  3.982782  0.001
C  C67  1  0.18499638  0.56601089  0.97668731  1  0.178563  -0.002745  3.749492  -0.003  0.17571  0.000402  3.995181  0.0  0.184747  -0.000706  4.015061  -0.001  0.11888  0.16982  0.001127  3.982027  0.001
C  C68  1  0.60023970  0.15765401  0.58325525  1  0.164858  0.001794  3.757734  0.003  0.164237  -0.001299  3.996036  0.0  0.171941  1.1e-05  4.017508  0.001  0.118256  0.159766  -0.001912  3.981595  -0.001
C  C69  1  0.89977176  0.34235290  0.08323229  1  0.16515  -0.002652  3.758012  -0.003  0.16436  0.000824  3.996287  0.0  0.17209  -0.000451  4.017732  -0.001  0.118362  0.159849  0.001698  3.981873  0.001
C  C70  1  0.39980464  0.84235392  0.41677303  1  0.164614  -0.002673  3.758268  -0.003  0.163823  0.000871  3.996629  0.0  0.171527  -0.000477  4.018076  -0.001  0.118165  0.159392  0.00166  3.982097  0.001
C  C71  1  0.10022142  0.65766025  0.91675062  1  0.164808  -0.002616  3.758042  -0.002  0.16403  0.000824  3.996452  0.0  0.171737  -0.000505  4.017894  -0.001  0.118174  0.159545  0.001766  3.981974  0.002
C  C72  1  0.59556102  0.15454709  0.68373311  1  -0.115385  -0.006337  3.670369  -0.006  -0.132582  -0.003435  3.90972  -0.003  -0.139938  -0.003084  3.931897  -0.003  -0.069423  -0.1284  -0.003448  3.896667  -0.003
C  C73  1  0.90442801  0.34541978  0.18371743  1  -0.115432  0.005558  3.670432  0.006  -0.132731  0.003048  3.909913  0.003  -0.140078  0.002654  3.932156  0.003  -0.06948  -0.128494  0.003089  3.896634  0.003
C  C74  1  0.40449249  0.84543093  0.31629733  1  -0.115261  0.005866  3.669987  0.006  -0.132586  0.00319  3.909663  0.003  -0.139922  0.002782  3.93188  0.003  -0.069408  -0.128324  0.003369  3.896324  0.004
C  C75  1  0.09554150  0.65456882  0.81627844  1  -0.115212  0.005671  3.670364  0.006  -0.132536  0.00308  3.90985  0.003  -0.139868  0.00264  3.932087  0.003  -0.06942  -0.12829  0.003209  3.896576  0.003
C  C76  1  0.51679033  0.24904729  0.73329231  1  0.010137  0.006535  3.703114  0.006  -0.008073  0.002744  3.946849  0.003  -0.004265  0.002849  3.966189  0.003  -0.060604  -0.011592  0.002455  3.935884  0.002
C  C77  1  0.98321252  0.25093206  0.23326431  1  0.010221  -0.007255  3.703298  -0.006  -0.008045  -0.002836  3.947041  -0.003  -0.004276  -0.003062  3.966422  -0.003  -0.060476  -0.011401  -0.002523  3.935762  -0.002
C  C78  1  0.48322508  0.75091730  0.26674244  1  0.010521  -0.007537  3.702475  -0.007  -0.007773  -0.003023  3.946307  -0.003  -0.003966  -0.00324  3.965642  -0.003  -0.06055  -0.011191  -0.002626  3.935122  -0.002
C  C79  1  0.01680115  0.74906813  0.76672436  1  0.010081  -0.007421  3.703173  -0.006  -0.008096  -0.002937  3.946966  -0.003  -0.004347  -0.003204  3.966313  -0.003  -0.060475  -0.01149  -0.00256  3.935731  -0.002
C  C80  1  0.44511060  0.34456922  0.68143173  1  -0.100696  -0.0086  3.69731  -0.008  -0.110581  -0.004557  3.938848  -0.005  -0.118231  -0.004009  3.960735  -0.004  -0.072378  -0.106223  -0.004567  3.926428  -0.005
C  C81  1  0.05490417  0.15543193  0.18138727  1  -0.100748  0.007759  3.697819  0.009  -0.110621  0.004189  3.939228  0.005  -0.118288  0.003618  3.961178  0.004  -0.072263  -0.106175  0.004283  3.926531  0.005
C  C82  1  0.55488676  0.65540836  0.31862319  1  -0.101238  0.007699  3.69761  0.009  -0.111229  0.0042  3.939181  0.005  -0.118895  0.003618  3.96111  0.004  -0.072418  -0.106775  0.004356  3.926455  0.005
C  C83  1  0.94510116  0.84457850  0.81859492  1  -0.100688  0.007627  3.697427  0.008  -0.110612  0.004162  3.938962  0.005  -0.118279  0.003576  3.96092  0.004  -0.072289  -0.10617  0.004266  3.926261  0.005
C  C84  1  0.45235569  0.34149078  0.58134842  1  0.147143  0.006181  3.669773  0.008  0.121763  0.001232  3.91193  0.003  0.131033  0.002286  3.933224  0.004  0.057962  0.114946  0.000461  3.900842  0.002
C  C85  1  0.04768704  0.15852142  0.08130618  1  0.147076  -0.007507  3.670409  -0.008  0.121847  -0.001666  3.912438  -0.003  0.13109  -0.002817  3.933781  -0.004  0.058218  0.115058  -0.000723  3.901252  -0.002
C  C86  1  0.54768718  0.65850495  0.41870578  1  0.147463  -0.007503  3.670109  -0.008  0.122166  -0.001737  3.912285  -0.003  0.13138  -0.002841  3.933647  -0.004  0.058256  0.115434  -0.000875  3.900942  -0.002
C  C87  1  0.95234905  0.84150145  0.91867457  1  0.146926  -0.007493  3.66996  -0.008  0.12162  -0.001697  3.912075  -0.003  0.130856  -0.002843  3.933396  -0.004  0.058056  0.114846  -0.000744  3.900824  -0.002
C  C88  1  0.85576711  0.42152822  0.44340717  1  -0.084937  0.003969  3.604126  0.004  -0.075682  0.001972  4.008602  0.002  -0.039211  0.001684  3.989393  0.002  -0.075526  -0.105575  0.002585  4.01773  0.002
C  C89  1  0.64424186  0.07841681  0.94339150  1  -0.08552  -0.000924  3.604451  -0.001  -0.076232  -0.001399  4.009128  -0.002  -0.03981  -0.001818  3.989983  -0.002  -0.075501  -0.105959  -0.000554  4.018124  -0.001
C  C90  1  0.14418536  0.57858771  0.55652965  1  -0.085679  -0.005285  3.60419  -0.005  -0.076126  -0.002421  4.008653  -0.002  -0.039729  -0.002188  3.98954  -0.002  -0.075587  -0.105775  -0.002485  4.017568  -0.003
C  C91  1  0.35581039  0.92137187  0.05650139  1  -0.085563  -0.002447  3.60417  -0.002  -0.076402  -0.001646  4.009  -0.002  -0.039998  -0.001898  3.989835  -0.002  -0.075651  -0.106175  -0.00106  4.018072  -0.001
N  N92  1  0.67997395  0.08803462  0.42709173  1  -0.325495  -0.075513  3.302384  -0.087  -0.281854  -0.062187  3.588928  -0.077  -0.313112  -0.050954  3.61103  -0.066  -0.332791  -0.264971  -0.063672  3.577635  -0.077
N  N93  1  0.82000676  0.41196574  0.92710893  1  -0.325923  0.067158  3.303333  0.087  -0.282165  0.057465  3.589429  0.078  -0.313399  0.04633  3.611575  0.066  -0.332885  -0.265324  0.060185  3.578027  0.079
N  N94  1  0.32002389  0.91196732  0.57289118  1  -0.325726  0.067453  3.303372  0.088  -0.282058  0.057443  3.589642  0.078  -0.313301  0.046255  3.611785  0.066  -0.332896  -0.265174  0.060287  3.57823  0.079
N  N95  1  0.17994340  0.58803208  0.07289343  1  -0.325821  0.067466  3.303766  0.088  -0.282291  0.05726  3.590304  0.077  -0.313457  0.046194  3.612374  0.066  -0.333093  -0.265322  0.060021  3.578872  0.078
N  N96  1  0.52648882  0.24992623  0.53375875  1  -0.316784  -0.085989  3.320733  -0.099  -0.268491  -0.070789  3.596694  -0.088  -0.301574  -0.057939  3.622581  -0.075  -0.329805  -0.251004  -0.07132  3.58334  -0.086
N  N97  1  0.97356552  0.25009770  0.03372351  1  -0.316968  0.076728  3.322259  0.099  -0.268911  0.064944  3.598369  0.087  -0.302033  0.052228  3.624258  0.074  -0.329993  -0.251303  0.067023  3.584901  0.087
N  N98  1  0.47354568  0.75007788  0.46628321  1  -0.316777  0.076975  3.322474  0.1  -0.268646  0.06498  3.598525  0.088  -0.301729  0.052277  3.624386  0.074  -0.329688  -0.250886  0.067253  3.584881  0.087
N  N99  1  0.02651726  0.74994146  0.96624860  1  -0.316549  0.076992  3.321734  0.1  -0.268435  0.065062  3.597813  0.088  -0.301475  0.052345  3.623691  0.074  -0.329707  -0.250752  0.067208  3.584235  0.087
N  N100  1  0.75140118  0.37222056  0.39736761  1  -0.414078  0.003548  3.039272  0.003  -0.39588  0.000871  3.352167  0.0  -0.425262  0.000217  3.353496  -0.001  -0.395233  -0.370486  0.001731  3.349839  0.001
N  N101  1  0.74861595  0.12777510  0.89739719  1  -0.413212  0.003399  3.03887  0.006  -0.395314  0.001433  3.351749  0.003  -0.42466  0.000879  3.353138  0.003  -0.395106  -0.370114  0.002006  3.34928  0.004
N  N102  1  0.24854337  0.62780252  0.60263186  1  -0.41361  0.002115  3.038357  0.004  -0.395416  0.000589  3.350911  0.002  -0.424744  0.00037  3.35231  0.002  -0.394986  -0.37035  0.000903  3.348472  0.002
N  N103  1  0.25141931  0.87220558  0.10260157  1  -0.413432  0.002933  3.038347  0.005  -0.395232  0.001327  3.351148  0.003  -0.424493  0.00086  3.352536  0.003  -0.395093  -0.370134  0.001775  3.348779  0.003
N  N104  1  0.64049297  0.65367616  0.62969417  1  -0.417903  0.062741  3.181985  0.081  -0.39374  0.050394  3.514392  0.066  -0.429437  0.04272  3.522015  0.058  -0.413536  -0.368404  0.052273  3.507938  0.066
N  N105  1  0.85932991  0.84607754  0.12945883  1  -0.417215  0.059472  3.182699  0.077  -0.392636  0.048966  3.514764  0.064  -0.428252  0.04202  3.522495  0.057  -0.412754  -0.367113  0.04967  3.508081  0.063
N  N106  1  0.35929119  0.34619571  0.37062719  1  -0.41643  -0.068094  3.181705  -0.078  -0.392018  -0.053592  3.513988  -0.064  -0.427787  -0.046736  3.521759  -0.057  -0.412267  -0.366287  -0.053218  3.507499  -0.063
N  N107  1  0.14051304  0.15361765  0.87038149  1  -0.417346  0.061886  3.182032  0.08  -0.39307  0.050395  3.513938  0.066  -0.428754  0.042741  3.521581  0.058  -0.413236  -0.367647  0.052104  3.507492  0.066
N  N108  1  0.95697822  0.31073481  0.75226968  1  -0.422111  0.064315  3.197897  0.083  -0.397293  0.051585  3.532767  0.067  -0.432992  0.044064  3.538672  0.059  -0.415313  -0.371996  0.05316  3.527142  0.068
N  N109  1  0.54275005  0.18955340  0.25212450  1  -0.423276  -0.068271  3.196547  -0.078  -0.398087  -0.05496  3.531644  -0.065  -0.433816  -0.048202  3.537472  -0.059  -0.415775  -0.372528  -0.054113  3.526124  -0.064
N  N110  1  0.04306066  0.68949333  0.24777589  1  -0.422653  0.060641  3.196813  0.078  -0.397515  0.050464  3.531922  0.066  -0.433135  0.043584  3.537836  0.059  -0.41579  -0.372206  0.050908  3.52618  0.065
N  N111  1  0.45682487  0.81078919  0.74771943  1  -0.422638  0.065407  3.197913  0.084  -0.397837  0.051691  3.533109  0.067  -0.433575  0.044128  3.539034  0.059  -0.415309  -0.372411  0.053497  3.527247  0.068
