# generated using pymatgen
data_CdH8C6(N8O)2
_symmetry_space_group_name_H-M   'P 1'
_cell_length_a   7.72133226
_cell_length_b   14.70496623
_cell_length_c   15.32846555
_cell_angle_alpha   63.47811596
_cell_angle_beta   75.93752778
_cell_angle_gamma   74.99399557
_symmetry_Int_Tables_number   1
_chemical_formula_structural   CdH8C6(N8O)2
_chemical_formula_sum   'Cd4 H32 C24 N64 O8'
_cell_volume   1487.74076733
_cell_formula_units_Z   4
loop_
 _symmetry_equiv_pos_site_id
 _symmetry_equiv_pos_as_xyz
  1  'x, y, z'
loop_
 _atom_site_type_symbol
 _atom_site_label
 _atom_site_symmetry_multiplicity
 _atom_site_fract_x
 _atom_site_fract_y
 _atom_site_fract_z
 _atom_site_occupancy
 _atom_site_hle17_bader_spin_density
 _atom_site_hle17_ddec_charge
 _atom_site_hle17_ddec_spin_density
 _atom_site_hle17_ddec_sum_bond_order
 _atom_site_hle17_magmom
 _atom_site_hse06_10hf_bader_spin_density
 _atom_site_hse06_10hf_ddec_charge
 _atom_site_hse06_10hf_ddec_spin_density
 _atom_site_hse06_10hf_ddec_sum_bond_order
 _atom_site_hse06_10hf_magmom
 _atom_site_hse06_bader_spin_density
 _atom_site_hse06_ddec_charge
 _atom_site_hse06_ddec_spin_density
 _atom_site_hse06_ddec_sum_bond_order
 _atom_site_hse06_magmom
 _atom_site_pbe_bader_charge
 _atom_site_pbe_bader_spin_density
 _atom_site_pbe_cm5_charge
 _atom_site_pbe_ddec_charge
 _atom_site_pbe_ddec_spin_density
 _atom_site_pbe_ddec_sum_bond_order
 _atom_site_pbe_magmom
Cd  Cd0  1  0.70728217  0.75321401  0.71110373  1  0  0.94382  0  1.826568  0  0  0.725682  0  2.284538  0  0  0.773575  0  2.246445  0  1.214453  0  0.793684  0.691926  0  2.310489  0
Cd  Cd1  1  0.17221265  0.74656966  0.78926142  1  0  0.944157  0  1.826705  0  0  0.725671  0  2.284635  0  0  0.773591  0  2.246554  0  1.216003  0  0.793814  0.6919  0  2.310575  0
Cd  Cd2  1  0.29271853  0.24678634  0.28889529  1  0  0.943825  0  1.826592  0  0  0.725671  0  2.284573  0  0  0.773563  0  2.246482  0  1.214402  0  0.793672  0.691913  0  2.310525  0
Cd  Cd3  1  0.82778582  0.25342991  0.21073902  1  0  0.944118  0  1.826758  0  0  0.725642  0  2.284679  0  0  0.773561  0  2.246599  0  1.216019  0  0.793802  0.691871  0  2.310621  0
H  H4  1  0.80359021  0.60196511  0.29043205  1  0  0.335179  0  0.923508  0  0  0.307427  0  1.004619  0  0  0.316359  0  0.99648  0  0.533324  0  0.298  0.3012  0  1.010216  0
H  H5  1  0.69422829  0.89817045  0.20855303  1  0  0.337  0  0.91966  0  0  0.310234  0  0.999147  0  0  0.319078  0  0.991042  0  0.52983  0  0.299262  0.304047  0  1.004765  0
H  H6  1  0.19640761  0.39803446  0.70956904  1  0  0.335204  0  0.923486  0  0  0.307457  0  1.004581  0  0  0.316388  0  0.996441  0  0.533331  0  0.298004  0.301231  0  1.010176  0
H  H7  1  0.30577124  0.10182989  0.79144581  1  0  0.337019  0  0.919655  0  0  0.310251  0  0.999129  0  0  0.319094  0  0.991027  0  0.529876  0  0.299285  0.304064  0  1.004748  0
H  H8  1  0.71684507  0.60006750  0.19378530  1  0  0.337658  0  0.875856  0  0  0.321719  0  0.934465  0  0  0.328713  0  0.928669  0  0.477277  0  0.314532  0.316757  0  0.938639  0
H  H9  1  0.50950753  0.90019077  0.30370556  1  0  0.33924  0  0.87449  0  0  0.324288  0  0.931363  0  0  0.331212  0  0.925662  0  0.493294  0  0.315959  0.319375  0  0.935483  0
H  H10  1  0.28315163  0.39993362  0.80621583  1  0  0.337644  0  0.875789  0  0  0.321705  0  0.934403  0  0  0.328698  0  0.928608  0  0.477466  0  0.314511  0.316743  0  0.938578  0
H  H11  1  0.49049234  0.09980804  0.69629535  1  0  0.339248  0  0.874483  0  0  0.324297  0  0.931352  0  0  0.331221  0  0.925651  0  0.4933  0  0.315964  0.319384  0  0.935472  0
H  H12  1  0.96150996  0.89207941  0.60735805  1  0  0.272215  0  0.944091  0  0  0.243052  0  1.038657  0  0  0.249899  0  1.032865  0  0.472612  0  0.291164  0.238126  0  1.042837  0
H  H13  1  0.46397458  0.60737706  0.89302131  1  0  0.271098  0  0.949372  0  0  0.241751  0  1.043997  0  0  0.248725  0  1.038068  0  0.480181  0  0.290452  0.236758  0  1.048214  0
H  H14  1  0.03849107  0.10791939  0.39264305  1  0  0.272234  0  0.944048  0  0  0.243072  0  1.038614  0  0  0.24992  0  1.032821  0  0.472595  0  0.29117  0.238145  0  1.042795  0
H  H15  1  0.53602482  0.39262329  0.10697900  1  0  0.271068  0  0.949336  0  0  0.241723  0  1.043961  0  0  0.248697  0  1.03803  0  0.480187  0  0.29042  0.236731  0  1.048175  0
H  H16  1  0.76877550  0.96216227  0.63462715  1  0  0.272499  0  0.94048  0  0  0.252028  0  1.014702  0  0  0.259224  0  1.009083  0  0.472687  0  0.287661  0.246899  0  1.018738  0
H  H17  1  0.36673266  0.53761368  0.86521359  1  0  0.272409  0  0.937654  0  0  0.252552  0  1.011206  0  0  0.259662  0  1.005639  0  0.460239  0  0.287862  0.247475  0  1.015223  0
H  H18  1  0.23122362  0.03783730  0.36537264  1  0  0.272509  0  0.940464  0  0  0.252038  0  1.014678  0  0  0.259233  0  1.009059  0  0.472684  0  0.287663  0.246909  0  1.018713  0
H  H19  1  0.63326832  0.46238743  0.13478595  1  0  0.272409  0  0.937642  0  0  0.252554  0  1.011207  0  0  0.259662  0  1.005645  0  0.460221  0  0.287861  0.247476  0  1.015225  0
H  H20  1  0.82608291  0.87650956  0.80366951  1  0  0.270161  0  0.955469  0  0  0.23994  0  1.05077  0  0  0.247142  0  1.044351  0  0.480693  0  0.28863  0.23476  0  1.055376  0
H  H21  1  0.50300803  0.62328646  0.69661889  1  0  0.269354  0  0.96021  0  0  0.239116  0  1.055596  0  0  0.246459  0  1.049084  0  0.481941  0  0.288177  0.233847  0  1.060252  0
H  H22  1  0.17391621  0.12349002  0.19633028  1  0  0.270154  0  0.955478  0  0  0.239937  0  1.050771  0  0  0.247139  0  1.044352  0  0.480693  0  0.28863  0.234756  0  1.05538  0
H  H23  1  0.49699137  0.37671389  0.30338143  1  0  0.269368  0  0.960268  0  0  0.239147  0  1.055651  0  0  0.246493  0  1.049131  0  0.481915  0  0.288183  0.233878  0  1.060305  0
H  H24  1  0.97158757  0.95295124  0.72787631  1  0  0.270032  0  0.930058  0  0  0.251133  0  1.000686  0  0  0.257368  0  0.996558  0  0.452449  0  0.293103  0.24673  0  1.003639  0
H  H25  1  0.65073423  0.54699680  0.77259761  1  0  0.268869  0  0.932255  0  0  0.250071  0  1.002896  0  0  0.25626  0  0.998869  0  0.426189  0  0.293018  0.245708  0  1.00576  0
H  H26  1  0.02841336  0.04704834  0.27212301  1  0  0.270058  0  0.92997  0  0  0.251161  0  1.0006  0  0  0.257396  0  0.996473  0  0.452458  0  0.293114  0.246759  0  1.003553  0
H  H27  1  0.34926424  0.45300277  0.22740283  1  0  0.268879  0  0.93225  0  0  0.250079  0  1.002879  0  0  0.256265  0  0.998865  0  0.426193  0  0.293018  0.245716  0  1.005742  0
H  H28  1  0.18280107  0.61678333  0.31361388  1  0  0.329506  0  0.922571  0  0  0.303713  0  1.00146  0  0  0.312005  0  0.993898  0  0.516137  0  0.295883  0.297894  0  1.006725  0
H  H29  1  0.11497889  0.88339777  0.18737668  1  0  0.330471  0  0.918143  0  0  0.305601  0  0.99596  0  0  0.313836  0  0.98838  0  0.506654  0  0.296633  0.299814  0  1.001255  0
H  H30  1  0.81720062  0.38321547  0.68638656  1  0  0.329503  0  0.922536  0  0  0.303711  0  1.001422  0  0  0.312002  0  0.993861  0  0.516147  0  0.295887  0.297893  0  1.006686  0
H  H31  1  0.88502012  0.11660258  0.81262134  1  0  0.330456  0  0.91814  0  0  0.30559  0  0.995953  0  0  0.313825  0  0.988373  0  0.506629  0  0.296635  0.299804  0  1.001247  0
H  H32  1  0.26158480  0.61435247  0.41472309  1  0  0.343635  0  0.879036  0  0  0.323535  0  0.945789  0  0  0.331267  0  0.93847  0  0.494706  0  0.310566  0.318022  0  0.951012  0
H  H33  1  0.29142199  0.88619210  0.08742203  1  0  0.343748  0  0.878827  0  0  0.323799  0  0.945019  0  0  0.33145  0  0.93782  0  0.503543  0  0.310995  0.318341  0  0.950163  0
H  H34  1  0.73841763  0.38564556  0.58527847  1  0  0.343591  0  0.879056  0  0  0.323488  0  0.945819  0  0  0.33122  0  0.938501  0  0.494712  0  0.310549  0.317975  0  0.951041  0
H  H35  1  0.70857679  0.11380902  0.91257568  1  0  0.34377  0  0.878808  0  0  0.323839  0  0.944975  0  0  0.331491  0  0.937776  0  0.50358  0  0.311025  0.318381  0  0.950118  0
C  C36  1  0.90799958  0.61886692  0.00584355  1  0  0.267683  0  3.825902  0  0  0.239852  0  4.102592  0  0  0.248239  0  4.118666  0  0.938462  0  0.214813  0.234145  0  4.091895  0
C  C37  1  0.53201407  0.88113745  0.49359222  1  0  0.269027  0  3.825618  0  0  0.242904  0  4.099836  0  0  0.25162  0  4.115729  0  1.05415  0  0.215755  0.236992  0  4.0892  0
C  C38  1  0.09199828  0.38113419  0.99415776  1  0  0.267559  0  3.825957  0  0  0.239916  0  4.102474  0  0  0.24831  0  4.118548  0  0.938636  0  0.214805  0.234201  0  4.091789  0
C  C39  1  0.46798621  0.11886212  0.50640775  1  0  0.269138  0  3.825666  0  0  0.242993  0  4.099871  0  0  0.25171  0  4.115762  0  1.054145  0  0.215773  0.23708  0  4.089237  0
C  C40  1  0.02931020  0.61068843  0.06829281  1  0  0.002788  0  3.772218  0  0  -0.004679  0  4.0416  0  0  -0.001689  0  4.052998  0  0.602023  0  0.116804  -0.006783  0  4.033965  0
C  C41  1  0.70653563  0.88920482  0.43195634  1  0  0.001199  0  3.769566  0  0  -0.00775  0  4.040095  0  0  -0.005078  0  4.051799  0  0.533429  0  0.116021  -0.009578  0  4.032122  0
C  C42  1  0.97068626  0.38931346  0.93170802  1  0  0.002757  0  3.772264  0  0  -0.004911  0  4.041798  0  0  -0.001943  0  4.053229  0  0.602065  0  0.116745  -0.007012  0  4.034161  0
C  C43  1  0.29346460  0.11079321  0.56804340  1  0  0.001138  0  3.769651  0  0  -0.007752  0  4.040102  0  0  -0.005078  0  4.051802  0  0.533446  0  0.116063  -0.009582  0  4.03213  0
C  C44  1  0.98558544  0.60084229  0.16901817  1  0  0.396969  0  3.864141  0  0  0.357253  0  4.154175  0  0  0.374135  0  4.165308  0  1.120059  0  0.228212  0.346164  0  4.146169  0
C  C45  1  0.75337285  0.89896685  0.33122880  1  0  0.400237  0  3.862028  0  0  0.360994  0  4.152475  0  0  0.377975  0  4.163565  0  1.125348  0  0.228336  0.349816  0  4.1445  0
C  C46  1  0.01441173  0.39915729  0.83098357  1  0  0.397016  0  3.864059  0  0  0.357349  0  4.154095  0  0  0.374237  0  4.165225  0  1.120057  0  0.228259  0.34626  0  4.146089  0
C  C47  1  0.24662842  0.10103118  0.66877259  1  0  0.400222  0  3.862104  0  0  0.360963  0  4.152545  0  0  0.377944  0  4.163634  0  1.125362  0  0.22835  0.34979  0  4.144563  0
C  C48  1  0.04847580  0.63955470  0.58129884  1  0  0.259415  0  3.835023  0  0  0.234346  0  4.112399  0  0  0.242321  0  4.128461  0  0.955253  0  0.211588  0.228888  0  4.101653  0
C  C49  1  0.27001913  0.86047437  0.91941146  1  0  0.257171  0  3.831469  0  0  0.232547  0  4.10817  0  0  0.240567  0  4.124207  0  0.985061  0  0.209912  0.227106  0  4.097433  0
C  C50  1  0.95152806  0.36044719  0.41869862  1  0  0.259608  0  3.834761  0  0  0.234458  0  4.112223  0  0  0.242433  0  4.128282  0  0.955448  0  0.211634  0.228999  0  4.101478  0
C  C51  1  0.72997993  0.13952752  0.08058677  1  0  0.257117  0  3.831577  0  0  0.232565  0  4.108182  0  0  0.240583  0  4.124218  0  0.98504  0  0.209909  0.227124  0  4.097443  0
C  C52  1  0.93512484  0.63244656  0.52314804  1  0  -0.001951  0  3.796829  0  0  -0.009132  0  4.065248  0  0  -0.006468  0  4.078323  0  0.591917  0  0.112279  -0.010899  0  4.056366  0
C  C53  1  0.09249164  0.86746058  0.97679722  1  0  -0.000422  0  3.792535  0  0  -0.007911  0  4.061088  0  0  -0.00509  0  4.073884  0  0.560259  0  0.113193  -0.009891  0  4.052514  0
C  C54  1  0.06488574  0.36755070  0.47685128  1  0  -0.002043  0  3.796683  0  0  -0.009126  0  4.06502  0  0  -0.006467  0  4.07809  0  0.592042  0  0.11231  -0.010896  0  4.056139  0
C  C55  1  0.90750636  0.13254053  0.02320262  1  0  -0.000414  0  3.792518  0  0  -0.007945  0  4.061078  0  0  -0.005118  0  4.073866  0  0.560264  0  0.113144  -0.009924  0  4.052506  0
C  C56  1  0.99073414  0.62735024  0.42818219  1  0  0.382808  0  3.882255  0  0  0.343855  0  4.172379  0  0  0.359216  0  4.185839  0  1.08753  0  0.221978  0.333673  0  4.162894  0
C  C57  1  0.04836105  0.87263484  0.07180964  1  0  0.38214  0  3.881444  0  0  0.342803  0  4.172816  0  0  0.358152  0  4.186121  0  1.107246  0  0.220188  0.332682  0  4.163405  0
C  C58  1  0.00926931  0.37264702  0.57181755  1  0  0.382808  0  3.882237  0  0  0.343837  0  4.172345  0  0  0.359218  0  4.185775  0  1.087785  0  0.221961  0.333656  0  4.162861  0
C  C59  1  0.95163853  0.12736705  0.92818942  1  0  0.382084  0  3.881414  0  0  0.342774  0  4.172767  0  0  0.35812  0  4.186071  0  1.107301  0  0.220212  0.332652  0  4.163359  0
N  N60  1  0.94457141  0.65644725  0.90687967  1  0  -0.30671  0  3.131232  0  0  -0.252822  0  3.414967  0  0  -0.268257  0  3.432493  0  -0.682926  0  -0.230536  -0.242281  0  3.403017  0
N  N61  1  0.50843526  0.84369680  0.59261203  1  0  -0.308531  0  3.138787  0  0  -0.2537  0  3.42172  0  0  -0.269548  0  3.439388  0  -0.74166  0  -0.232453  -0.242894  0  3.409663  0
N  N62  1  0.05542827  0.34355387  0.09312117  1  0  -0.306595  0  3.131183  0  0  -0.252742  0  3.41486  0  0  -0.268177  0  3.432384  0  -0.682937  0  -0.230483  -0.242198  0  3.402912  0
N  N63  1  0.49156502  0.15630277  0.40738793  1  0  -0.308524  0  3.138741  0  0  -0.253689  0  3.421682  0  0  -0.269536  0  3.439349  0  -0.741647  0  -0.232433  -0.242883  0  3.409625  0
N  N64  1  0.79679393  0.65263042  0.87835749  1  0  -0.115775  0  3.126877  0  0  -0.073968  0  3.419075  0  0  -0.080971  0  3.436199  0  -0.171123  0  -0.110842  -0.068961  0  3.407258  0
N  N65  1  0.32909323  0.84791184  0.62042593  1  0  -0.116742  0  3.118311  0  0  -0.076536  0  3.41113  0  0  -0.083198  0  3.428068  0  -0.203487  0  -0.109509  -0.071751  0  3.399441  0
N  N66  1  0.20320664  0.34736993  0.12164300  1  0  -0.115822  0  3.126876  0  0  -0.07403  0  3.419111  0  0  -0.081033  0  3.436235  0  -0.171104  0  -0.110868  -0.069022  0  3.407293  0
N  N67  1  0.67090822  0.15208774  0.37957421  1  0  -0.11675  0  3.11832  0  0  -0.076548  0  3.411136  0  0  -0.083211  0  3.428073  0  -0.203523  0  -0.109521  -0.071764  0  3.399447  0
N  N68  1  0.67556721  0.61470668  0.95621514  1  0  -0.058248  0  2.967949  0  0  -0.054247  0  3.271603  0  0  -0.052903  0  3.282051  0  -0.127722  0  -0.0879  -0.054896  0  3.26447  0
N  N69  1  0.24703056  0.88593589  0.54206890  1  0  -0.059498  0  2.964125  0  0  -0.056603  0  3.269558  0  0  -0.055179  0  3.279862  0  -0.109844  0  -0.089783  -0.057302  0  3.262528  0
N  N70  1  0.32443196  0.38529444  0.04378487  1  0  -0.058249  0  2.9679  0  0  -0.054253  0  3.271565  0  0  -0.052909  0  3.282013  0  -0.127716  0  -0.087903  -0.054903  0  3.264431  0
N  N71  1  0.75296949  0.11406445  0.45793076  1  0  -0.059503  0  2.96414  0  0  -0.056606  0  3.269574  0  0  -0.05518  0  3.279877  0  -0.109831  0  -0.089793  -0.057304  0  3.262544  0
N  N72  1  0.74169400  0.59249865  0.03807804  1  0  -0.2992  0  2.939787  0  0  -0.276042  0  3.227888  0  0  -0.284211  0  3.236469  0  -0.66893  0  -0.209566  -0.27049  0  3.222221  0
N  N73  1  0.37152834  0.90777737  0.46060639  1  0  -0.301589  0  2.941388  0  0  -0.278406  0  3.229138  0  0  -0.286724  0  3.23768  0  -0.666057  0  -0.211037  -0.27277  0  3.223495  0
N  N74  1  0.25830218  0.40750247  0.96192227  1  0  -0.299151  0  2.939751  0  0  -0.276025  0  3.227779  0  0  -0.284194  0  3.236357  0  -0.669088  0  -0.209558  -0.270472  0  3.222116  0
N  N75  1  0.62847194  0.09222221  0.53939357  1  0  -0.301651  0  2.941437  0  0  -0.278473  0  3.229202  0  0  -0.286792  0  3.237743  0  -0.666058  0  -0.211064  -0.272837  0  3.22356  0
N  N76  1  0.20182527  0.61681188  0.03686809  1  0  -0.131303  0  2.811108  0  0  -0.130016  0  3.100105  0  0  -0.126667  0  3.106147  0  -0.492794  0  -0.186213  -0.131977  0  3.096055  0
N  N77  1  0.85336581  0.88325269  0.46453004  1  0  -0.130019  0  2.815908  0  0  -0.128326  0  3.105669  0  0  -0.124895  0  3.111828  0  -0.473127  0  -0.184625  -0.130347  0  3.101516  0
N  N78  1  0.79817119  0.38319001  0.96313274  1  0  -0.131237  0  2.811175  0  0  -0.129833  0  3.100182  0  0  -0.126474  0  3.10623  0  -0.492345  0  -0.186141  -0.131792  0  3.096128  0
N  N79  1  0.14663517  0.11674457  0.53547083  1  0  -0.13  0  2.815936  0  0  -0.12834  0  3.105675  0  0  -0.124912  0  3.111834  0  -0.473137  0  -0.184666  -0.13036  0  3.101524  0
N  N80  1  0.13621739  0.60041322  0.19692490  1  0  -0.307308  0  2.670725  0  0  -0.286415  0  2.943429  0  0  -0.29382  0  2.948331  0  -0.603382  0  -0.228683  -0.281751  0  2.940394  0
N  N81  1  0.93064108  0.89955411  0.30458117  1  0  -0.310867  0  2.670772  0  0  -0.291136  0  2.944161  0  0  -0.298492  0  2.949048  0  -0.617345  0  -0.230155  -0.286489  0  2.941136  0
N  N82  1  0.86377978  0.39958635  0.80307684  1  0  -0.307349  0  2.670667  0  0  -0.286434  0  2.943389  0  0  -0.293836  0  2.948289  0  -0.603354  0  -0.228681  -0.281773  0  2.940356  0
N  N83  1  0.06936033  0.10044392  0.69541875  1  0  -0.310818  0  2.670827  0  0  -0.2911  0  2.944207  0  0  -0.298466  0  2.949112  0  -0.617252  0  -0.230151  -0.286453  0  2.941179  0
N  N84  1  0.82296990  0.59346019  0.22547300  1  0  -0.634754  0  3.123553  0  0  -0.602347  0  3.365384  0  0  -0.62256  0  3.362637  0  -1.303625  0  -0.569169  -0.588172  0  3.366772  0
N  N85  1  0.64050843  0.90598162  0.27359129  1  0  -0.637639  0  3.12476  0  0  -0.60656  0  3.365221  0  0  -0.626677  0  3.362374  0  -1.30495  0  -0.569931  -0.592444  0  3.366718  0
N  N86  1  0.17702791  0.40653938  0.77452809  1  0  -0.634798  0  3.12342  0  0  -0.602394  0  3.365238  0  0  -0.622606  0  3.362484  0  -1.303758  0  -0.569181  -0.58822  0  3.366627  0
N  N87  1  0.35949185  0.09401796  0.72640868  1  0  -0.637646  0  3.124781  0  0  -0.606564  0  3.365258  0  0  -0.626678  0  3.362412  0  -1.30498  0  -0.569957  -0.592449  0  3.366753  0
N  N88  1  0.13917573  0.66640375  0.68665988  1  0  -0.125619  0  3.154515  0  0  -0.080121  0  3.445237  0  0  -0.088182  0  3.463062  0  -0.197928  0  -0.119227  -0.074415  0  3.432896  0
N  N89  1  0.49079302  0.83415240  0.81439870  1  0  -0.126138  0  3.144732  0  0  -0.082493  0  3.436231  0  0  -0.090185  0  3.45384  0  -0.181786  0  -0.117713  -0.077032  0  3.424044  0
N  N90  1  0.86082554  0.33359428  0.31334151  1  0  -0.125677  0  3.154625  0  0  -0.08017  0  3.445331  0  0  -0.088231  0  3.463159  0  -0.197787  0  -0.119291  -0.074464  0  3.43299  0
N  N91  1  0.50920768  0.16584795  0.18560032  1  0  -0.126105  0  3.144737  0  0  -0.082455  0  3.436242  0  0  -0.090146  0  3.453851  0  -0.181759  0  -0.117681  -0.076994  0  3.424054  0
N  N92  1  0.28404783  0.63685143  0.63213455  1  0  -0.065099  0  2.989467  0  0  -0.055776  0  3.292017  0  0  -0.054406  0  3.301406  0  -0.124269  0  -0.091903  -0.056436  0  3.285554  0
N  N93  1  0.55219789  0.86378960  0.86944514  1  0  -0.068587  0  2.98454  0  0  -0.060582  0  3.2892  0  0  -0.059141  0  3.298389  0  -0.142909  0  -0.094154  -0.061278  0  3.282868  0
N  N94  1  0.71595419  0.36314583  0.36786797  1  0  -0.065096  0  2.989441  0  0  -0.05577  0  3.291989  0  0  -0.054401  0  3.301378  0  -0.123991  0  -0.091857  -0.056429  0  3.285526  0
N  N95  1  0.44780397  0.13621075  0.13055405  1  0  -0.068556  0  2.984581  0  0  -0.060551  0  3.289243  0  0  -0.05911  0  3.298432  0  -0.142884  0  -0.094131  -0.061247  0  3.282911  0
N  N96  1  0.23127683  0.61956840  0.56486211  1  0  -0.279075  0  2.907648  0  0  -0.270933  0  3.203472  0  0  -0.276285  0  3.20946  0  -0.620403  0  -0.213825  -0.267308  0  3.19952  0
N  N97  1  0.41625477  0.88074234  0.93651066  1  0  -0.27866  0  2.903465  0  0  -0.270259  0  3.19915  0  0  -0.275665  0  3.205145  0  -0.623164  0  -0.214256  -0.266598  0  3.195171  0
N  N98  1  0.76872830  0.38043272  0.43513730  1  0  -0.279194  0  2.907713  0  0  -0.271037  0  3.203579  0  0  -0.276388  0  3.209567  0  -0.621015  0  -0.213931  -0.267412  0  3.199628  0
N  N99  1  0.58374569  0.11925878  0.06348806  1  0  -0.27868  0  2.903529  0  0  -0.270306  0  3.199199  0  0  -0.275713  0  3.205196  0  -0.623223  0  -0.214289  -0.266645  0  3.19522  0
N  N100  1  0.85563012  0.89292906  0.66303210  1  0  -0.462425  0  3.095135  0  0  -0.41548  0  3.34923  0  0  -0.43164  0  3.350321  0  -0.842063  0  -0.545098  -0.404045  0  3.348205  0
N  N101  1  0.41260864  0.60678979  0.83718968  1  0  -0.464811  0  3.095594  0  0  -0.417717  0  3.34929  0  0  -0.433934  0  3.350463  0  -0.839918  0  -0.545846  -0.406273  0  3.348269  0
N  N102  1  0.14436993  0.10707129  0.33696756  1  0  -0.462456  0  3.095115  0  0  -0.415499  0  3.349202  0  0  -0.43166  0  3.350293  0  -0.84204  0  -0.545098  -0.404063  0  3.348176  0
N  N103  1  0.58739257  0.39321055  0.16281016  1  0  -0.464766  0  3.095526  0  0  -0.417692  0  3.349235  0  0  -0.433909  0  3.350408  0  -0.839906  0  -0.545812  -0.406247  0  3.348213  0
N  N104  1  0.92899286  0.88573139  0.74461585  1  0  -0.46693  0  3.108292  0  0  -0.419025  0  3.36358  0  0  -0.43465  0  3.36443  0  -0.833971  0  -0.546927  -0.407997  0  3.362749  0
N  N105  1  0.55802824  0.61419967  0.75567799  1  0  -0.466194  0  3.109166  0  0  -0.41895  0  3.364803  0  0  -0.434662  0  3.365584  0  -0.810153  0  -0.547062  -0.407867  0  3.364026  0
N  N106  1  0.07100719  0.11426895  0.25538381  1  0  -0.466961  0  3.108269  0  0  -0.41907  0  3.363563  0  0  -0.434694  0  3.364412  0  -0.833995  0  -0.546943  -0.408041  0  3.362732  0
N  N107  1  0.44197139  0.38579990  0.24432263  1  0  -0.466227  0  3.109202  0  0  -0.418991  0  3.364797  0  0  -0.434707  0  3.365572  0  -0.81015  0  -0.547066  -0.407906  0  3.364021  0
N  N108  1  0.98843945  0.66912863  0.65646802  1  0  -0.310138  0  3.140268  0  0  -0.256812  0  3.423632  0  0  -0.272128  0  3.441417  0  -0.708703  0  -0.234588  -0.246332  0  3.411497  0
N  N109  1  0.31354526  0.83107485  0.84405214  1  0  -0.31134  0  3.148488  0  0  -0.25637  0  3.431254  0  0  -0.272079  0  3.449263  0  -0.708573  0  -0.235946  -0.24563  0  3.418941  0
N  N110  1  0.01156236  0.33087404  0.34352962  1  0  -0.310132  0  3.140296  0  0  -0.25679  0  3.42369  0  0  -0.272105  0  3.441475  0  -0.708643  0  -0.234538  -0.246311  0  3.411554  0
N  N111  1  0.68645520  0.16892627  0.15594657  1  0  -0.311299  0  3.148482  0  0  -0.256359  0  3.431238  0  0  -0.272068  0  3.449247  0  -0.708593  0  -0.23593  -0.245618  0  3.418926  0
N  N112  1  0.75946215  0.63336257  0.54868544  1  0  -0.147719  0  2.813772  0  0  -0.144508  0  3.102237  0  0  -0.141079  0  3.107494  0  -0.496878  0  -0.192445  -0.146568  0  3.098666  0
N  N113  1  0.94366924  0.86650831  0.95006275  1  0  -0.149243  0  2.81834  0  0  -0.14553  0  3.107234  0  0  -0.142209  0  3.112526  0  -0.498591  0  -0.192626  -0.147457  0  3.103672  0
N  N114  1  0.24054649  0.36663469  0.45131583  1  0  -0.147713  0  2.813605  0  0  -0.144558  0  3.102084  0  0  -0.14113  0  3.107342  0  -0.497002  0  -0.192461  -0.146616  0  3.098512  0
N  N115  1  0.05633033  0.13349358  0.04993631  1  0  -0.149189  0  2.818247  0  0  -0.145473  0  3.107161  0  0  -0.142154  0  3.112453  0  -0.498584  0  -0.192615  -0.147398  0  3.103601  0
N  N116  1  0.84461708  0.62529520  0.39827751  1  0  -0.296513  0  2.708782  0  0  -0.277327  0  2.986878  0  0  -0.284373  0  2.992736  0  -0.576529  0  -0.225879  -0.272852  0  2.983158  0
N  N117  1  0.87111265  0.87469683  0.10047126  1  0  -0.296883  0  2.707073  0  0  -0.278711  0  2.98556  0  0  -0.285576  0  2.991335  0  -0.597623  0  -0.226245  -0.274324  0  2.981871  0
N  N118  1  0.15538344  0.37470360  0.60172276  1  0  -0.296558  0  2.70887  0  0  -0.277369  0  2.986942  0  0  -0.284419  0  2.99279  0  -0.5767  0  -0.225895  -0.272896  0  2.983223  0
N  N119  1  0.12888874  0.12530506  0.89952732  1  0  -0.296853  0  2.707021  0  0  -0.278688  0  2.985491  0  0  -0.285552  0  2.991265  0  -0.597668  0  -0.226263  -0.274298  0  2.981803  0
N  N120  1  0.15923159  0.62758561  0.37724611  1  0  -0.646334  0  3.112474  0  0  -0.614553  0  3.353368  0  0  -0.63409  0  3.34973  0  -1.309418  0  -0.575198  -0.600761  0  3.355431  0
N  N121  1  0.16577545  0.87237710  0.12403814  1  0  -0.646188  0  3.110608  0  0  -0.614663  0  3.350262  0  0  -0.634133  0  3.346562  0  -1.305725  0  -0.574308  -0.600919  0  3.352355  0
N  N122  1  0.84077074  0.37241319  0.62275368  1  0  -0.646263  0  3.112385  0  0  -0.61448  0  3.353269  0  0  -0.634024  0  3.349628  0  -1.309424  0  -0.575194  -0.600689  0  3.355329  0
N  N123  1  0.83422543  0.12762479  0.87595962  1  0  -0.646205  0  3.110649  0  0  -0.61469  0  3.350244  0  0  -0.634159  0  3.346544  0  -1.305724  0  -0.574347  -0.600946  0  3.352339  0
O  O124  1  0.27118869  0.61167775  0.11327914  1  0  -0.016128  0  2.279542  0  0  0.042411  0  2.530553  0  0  0.029114  0  2.535301  0  -0.331179  0  0.04521  0.051238  0  2.527294  0
O  O125  1  0.99312443  0.88844084  0.38899892  1  0  -0.015236  0  2.283991  0  0  0.043919  0  2.535542  0  0  0.030557  0  2.54043  0  -0.331719  0  0.045584  0.052764  0  2.532205  0
O  O126  1  0.72880759  0.38832259  0.88672295  1  0  -0.016115  0  2.279455  0  0  0.042334  0  2.530525  0  0  0.02903  0  2.535274  0  -0.331742  0  0.045159  0.051161  0  2.527267  0
O  O127  1  0.00687451  0.11155719  0.61100212  1  0  -0.015294  0  2.284026  0  0  0.043881  0  2.535569  0  0  0.030526  0  2.540453  0  -0.331837  0  0.045568  0.052726  0  2.532233  0
O  O128  1  0.69996454  0.62955885  0.47335538  1  0  -0.005398  0  2.279343  0  0  0.046837  0  2.53273  0  0  0.034346  0  2.536621  0  -0.31383  0  0.046876  0.055087  0  2.530002  0
O  O129  1  0.80586780  0.87030662  0.02459498  1  0  -0.005274  0  2.282731  0  0  0.047368  0  2.536427  0  0  0.034775  0  2.540459  0  -0.310674  0  0.047503  0.055629  0  2.533627  0
O  O130  1  0.30003589  0.37044150  0.52664658  1  0  -0.00531  0  2.279185  0  0  0.046946  0  2.532563  0  0  0.034453  0  2.536456  0  -0.313899  0  0.046942  0.055195  0  2.529834  0
O  O131  1  0.19413201  0.12969450  0.97540438  1  0  -0.005296  0  2.282673  0  0  0.047339  0  2.536373  0  0  0.034746  0  2.540406  0  -0.310676  0  0.047514  0.055597  0  2.533575  0
