# generated using pymatgen
data_ZnH15C15N2O3
_symmetry_space_group_name_H-M   'P 1'
_cell_length_a   9.39528691
_cell_length_b   10.05641110
_cell_length_c   15.62600000
_cell_angle_alpha   90.00000000
_cell_angle_beta   90.00000000
_cell_angle_gamma   102.84084357
_symmetry_Int_Tables_number   1
_chemical_formula_structural   ZnH15C15N2O3
_chemical_formula_sum   'Zn4 H60 C60 N8 O12'
_cell_volume   1439.46652570
_cell_formula_units_Z   4
loop_
 _symmetry_equiv_pos_site_id
 _symmetry_equiv_pos_as_xyz
  1  'x, y, z'
loop_
 _atom_site_type_symbol
 _atom_site_label
 _atom_site_symmetry_multiplicity
 _atom_site_fract_x
 _atom_site_fract_y
 _atom_site_fract_z
 _atom_site_occupancy
 _atom_site_hle17_bader_spin_density
 _atom_site_hle17_ddec_charge
 _atom_site_hle17_ddec_spin_density
 _atom_site_hle17_ddec_sum_bond_order
 _atom_site_hle17_magmom
 _atom_site_hse06_10hf_bader_spin_density
 _atom_site_hse06_10hf_ddec_charge
 _atom_site_hse06_10hf_ddec_spin_density
 _atom_site_hse06_10hf_ddec_sum_bond_order
 _atom_site_hse06_10hf_magmom
 _atom_site_hse06_bader_spin_density
 _atom_site_hse06_ddec_charge
 _atom_site_hse06_ddec_spin_density
 _atom_site_hse06_ddec_sum_bond_order
 _atom_site_hse06_magmom
 _atom_site_pbe_bader_charge
 _atom_site_pbe_bader_spin_density
 _atom_site_pbe_cm5_charge
 _atom_site_pbe_ddec_charge
 _atom_site_pbe_ddec_spin_density
 _atom_site_pbe_ddec_sum_bond_order
 _atom_site_pbe_magmom
Zn  Zn0  1  0.63113897  0.98699712  0.93638615  1  0  0.99715  0  1.863728  0  0  0.810256  0  2.32238  0  0  0.856916  0  2.270299  0  1.26764  0  0.679706  0.777619  0  2.357742  0
Zn  Zn1  1  0.63114115  0.48699570  0.56361385  1  0  0.997154  0  1.863627  0  0  0.81028  0  2.322237  0  0  0.856937  0  2.270161  0  1.267663  0  0.679722  0.777642  0  2.357596  0
Zn  Zn2  1  0.36885996  0.01300471  0.06361385  1  0  0.997153  0  1.863664  0  0  0.810267  0  2.322299  0  0  0.856926  0  2.270223  0  1.267696  0  0.679707  0.777626  0  2.357663  0
Zn  Zn3  1  0.36885919  0.51300307  0.43638615  1  0  0.99712  0  1.863706  0  0  0.81025  0  2.322328  0  0  0.856907  0  2.27025  0  1.267706  0  0.679718  0.777614  0  2.357686  0
H  H4  1  0.67923077  0.04822787  0.76070268  1  0  0.271858  0  0.934887  0  0  0.261262  0  0.993019  0  0  0.268159  0  0.988309  0  0.470474  0  0.286558  0.256185  0  0.996738  0
H  H5  1  0.67923237  0.54822725  0.73929732  1  0  0.271881  0  0.934818  0  0  0.26129  0  0.992956  0  0  0.268188  0  0.988248  0  0.470424  0  0.286558  0.256214  0  0.996677  0
H  H6  1  0.32076923  0.95177396  0.23929732  1  0  0.271857  0  0.934853  0  0  0.261271  0  0.992983  0  0  0.268168  0  0.988275  0  0.470493  0  0.286559  0.256195  0  0.996703  0
H  H7  1  0.32077116  0.45177152  0.26070204  1  0  0.27186  0  0.934853  0  0  0.261274  0  0.992984  0  0  0.268172  0  0.988274  0  0.470434  0  0.28656  0.256198  0  0.996703  0
H  H8  1  0.24899959  0.19149789  0.93113017  1  0  0.106089  0  1.003709  0  0  0.11339  0  1.0729  0  0  0.11721  0  1.070708  0  0.098514  0  0.090982  0.110879  0  1.074062  0
H  H9  1  0.24899393  0.69148912  0.56886983  1  0  0.106066  0  1.003626  0  0  0.113366  0  1.072823  0  0  0.117185  0  1.070633  0  0.098549  0  0.090954  0.110855  0  1.073983  0
H  H10  1  0.75100433  0.80850700  0.06886919  1  0  0.106052  0  1.0037  0  0  0.113349  0  1.072894  0  0  0.117168  0  1.070705  0  0.098508  0  0.090962  0.110839  0  1.074054  0
H  H11  1  0.75100142  0.30850659  0.43113017  1  0  0.10607  0  1.003656  0  0  0.11337  0  1.072851  0  0  0.117189  0  1.07066  0  0.098528  0  0.09096  0.11086  0  1.074011  0
H  H12  1  0.60643081  0.26913143  0.93611417  1  0  0.092424  0  0.930487  0  0  0.100799  0  0.99155  0  0  0.103754  0  0.988948  0  0.11803  0  0.124844  0.098404  0  0.993765  0
H  H13  1  0.60643086  0.76912877  0.56388391  1  0  0.092426  0  0.9304  0  0  0.100799  0  0.991474  0  0  0.103752  0  0.988874  0  0.118055  0  0.124837  0.098404  0  0.993688  0
H  H14  1  0.39357074  0.73087244  0.06388327  1  0  0.092497  0  0.93049  0  0  0.100863  0  0.991557  0  0  0.103818  0  0.988955  0  0.118041  0  0.124853  0.098467  0  0.993773  0
H  H15  1  0.39356972  0.23087101  0.43611481  1  0  0.092449  0  0.930463  0  0  0.100826  0  0.991521  0  0  0.10378  0  0.988921  0  0.11804  0  0.124853  0.098431  0  0.993735  0
H  H16  1  0.69198200  0.80562477  0.72474722  1  0  0.049838  0  0.924338  0  0  0.061005  0  0.988205  0  0  0.062198  0  0.988062  0  0.024322  0  0.102677  0.059945  0  0.989024  0
H  H17  1  0.69198180  0.30562232  0.77525278  1  0  0.049835  0  0.924299  0  0  0.060978  0  0.988188  0  0  0.062166  0  0.988044  0  0.024317  0  0.10268  0.059922  0  0.989001  0
H  H18  1  0.30801800  0.19437706  0.27525342  1  0  0.049817  0  0.924331  0  0  0.060993  0  0.988219  0  0  0.062184  0  0.988077  0  0.024304  0  0.10267  0.059932  0  0.989035  0
H  H19  1  0.30801200  0.69437135  0.22474722  1  0  0.049815  0  0.924361  0  0  0.060993  0  0.988189  0  0  0.062186  0  0.988048  0  0.024233  0  0.102661  0.05993  0  0.989014  0
H  H20  1  0.90375498  0.00781547  0.72282798  1  0  0.118162  0  0.958011  0  0  0.136402  0  1.022191  0  0  0.138386  0  1.022176  0  0.040157  0  0.091585  0.135245  0  1.021975  0
H  H21  1  0.90375339  0.50781485  0.77717394  1  0  0.118134  0  0.958098  0  0  0.136376  0  1.022262  0  0  0.138354  0  1.022267  0  0.040121  0  0.091599  0.13522  0  1.022045  0
H  H22  1  0.09624584  0.99218534  0.27717266  1  0  0.118155  0  0.958044  0  0  0.136405  0  1.0222  0  0  0.138386  0  1.022195  0  0.040154  0  0.091613  0.135248  0  1.021984  0
H  H23  1  0.09624573  0.49217881  0.22282478  1  0  0.11821  0  0.95796  0  0  0.136449  0  1.022141  0  0  0.138428  0  1.022141  0  0.040027  0  0.091645  0.135293  0  1.021921  0
H  H24  1  0.95566963  0.86044015  0.76467298  1  0  0.112547  0  0.946924  0  0  0.134929  0  1.004548  0  0  0.136296  0  1.004851  0  0.048424  0  0.092325  0.133857  0  1.004784  0
H  H25  1  0.95567204  0.36043974  0.73532958  1  0  0.112573  0  0.946972  0  0  0.134964  0  1.004579  0  0  0.136339  0  1.004874  0  0.048438  0  0.092328  0.133891  0  1.004815  0
H  H26  1  0.04433013  0.13956066  0.23532766  1  0  0.112539  0  0.946924  0  0  0.134928  0  1.004538  0  0  0.136308  0  1.004827  0  0.048488  0  0.092317  0.133855  0  1.004775  0
H  H27  1  0.04432553  0.63955189  0.26466978  1  0  0.112594  0  0.9469  0  0  0.134992  0  1.004509  0  0  0.136372  0  1.004797  0  0.048424  0  0.092335  0.133919  0  1.004747  0
H  H28  1  0.92770456  0.99129191  0.83462242  1  0  0.092423  0  0.96756  0  0  0.110543  0  1.038346  0  0  0.111199  0  1.039555  0  0.037387  0  0.083147  0.110118  0  1.037442  0
H  H29  1  0.92770591  0.49129150  0.66537950  1  0  0.09244  0  0.967552  0  0  0.110552  0  1.038345  0  0  0.111209  0  1.039555  0  0.037416  0  0.083152  0.110126  0  1.037442  0
H  H30  1  0.07229627  0.00870890  0.16537758  1  0  0.092435  0  0.967565  0  0  0.11055  0  1.038354  0  0  0.111206  0  1.039565  0  0.037403  0  0.08315  0.110123  0  1.037452  0
H  H31  1  0.07228954  0.50870013  0.33461858  1  0  0.092453  0  0.967539  0  0  0.110568  0  1.038322  0  0  0.111216  0  1.039543  0  0.037368  0  0.083147  0.110146  0  1.037415  0
H  H32  1  0.44201935  0.81854176  0.81244080  1  0  0.063237  0  0.948807  0  0  0.080041  0  1.012842  0  0  0.080214  0  1.013359  0  0.057203  0  0.100247  0.079771  0  1.013515  0
H  H33  1  0.44202046  0.31854034  0.68755984  1  0  0.063251  0  0.948822  0  0  0.080066  0  1.012844  0  0  0.080232  0  1.013358  0  0.057191  0  0.100258  0.079793  0  1.013516  0
H  H34  1  0.55798065  0.18146007  0.18756048  1  0  0.063272  0  0.948802  0  0  0.080077  0  1.012828  0  0  0.080243  0  1.013342  0  0.057195  0  0.100267  0.079805  0  1.013501  0
H  H35  1  0.55797824  0.68146047  0.31244144  1  0  0.063249  0  0.94888  0  0  0.080064  0  1.012898  0  0  0.080232  0  1.013415  0  0.057172  0  0.100267  0.079791  0  1.01357  0
H  H36  1  0.48150138  0.87267891  0.70590554  1  0  0.057447  0  0.931706  0  0  0.073341  0  0.998145  0  0  0.073616  0  0.998427  0  0.055464  0  0.097318  0.073095  0  0.998462  0
H  H37  1  0.48150380  0.37267851  0.79409574  1  0  0.05747  0  0.931748  0  0  0.07336  0  0.998191  0  0  0.073628  0  0.998468  0  0.055434  0  0.097318  0.07311  0  0.998509  0
H  H38  1  0.51849920  0.12732088  0.29409574  1  0  0.057467  0  0.931762  0  0  0.073352  0  0.998206  0  0  0.073618  0  0.998483  0  0.055439  0  0.097317  0.073103  0  0.998523  0
H  H39  1  0.51849727  0.62732332  0.20590490  1  0  0.057451  0  0.931738  0  0  0.07335  0  0.998183  0  0  0.073622  0  0.99846  0  0.055439  0  0.09732  0.073101  0  0.9985  0
H  H40  1  0.16001200  0.15431449  0.65970306  1  0  0.075001  0  0.979918  0  0  0.084333  0  1.044116  0  0  0.086623  0  1.044758  0  0.030969  0  0.086886  0.082993  0  1.043444  0
H  H41  1  0.16001515  0.65431591  0.84029822  1  0  0.075034  0  0.979862  0  0  0.084347  0  1.044078  0  0  0.086641  0  1.044719  0  0.030958  0  0.086889  0.083006  0  1.043408  0
H  H42  1  0.83998964  0.84568530  0.34029694  1  0  0.074979  0  0.979953  0  0  0.084323  0  1.044138  0  0  0.086614  0  1.044781  0  0.030961  0  0.086888  0.082982  0  1.043467  0
H  H43  1  0.83998828  0.34568693  0.15970242  1  0  0.074972  0  0.979931  0  0  0.084321  0  1.044112  0  0  0.086612  0  1.044754  0  0.030976  0  0.086885  0.082981  0  1.04344  0
H  H44  1  0.11755404  0.31514204  0.02205171  1  0  0.123753  0  0.975486  0  0  0.12998  0  1.038992  0  0  0.133786  0  1.037308  0  0.125865  0  0.113978  0.126974  0  1.040823  0
H  H45  1  0.11755612  0.81514347  0.47795085  1  0  0.123723  0  0.975475  0  0  0.129938  0  1.038998  0  0  0.133739  0  1.03732  0  0.125856  0  0.113975  0.126951  0  1.040806  0
H  H46  1  0.88244441  0.68485775  0.97795085  1  0  0.123749  0  0.975442  0  0  0.129949  0  1.038981  0  0  0.13375  0  1.037301  0  0.125847  0  0.11398  0.126958  0  1.040796  0
H  H47  1  0.88244519  0.18485938  0.52205107  1  0  0.123755  0  0.97542  0  0  0.129975  0  1.038935  0  0  0.133776  0  1.037257  0  0.125857  0  0.113978  0.126973  0  1.040762  0
H  H48  1  0.33575225  0.00201736  0.64749008  1  0  0.083965  0  0.95041  0  0  0.096299  0  1.009606  0  0  0.099147  0  1.00804  0  0.057539  0  0.094428  0.094714  0  1.010382  0
H  H49  1  0.33576039  0.50202184  0.85251120  1  0  0.083968  0  0.95036  0  0  0.096326  0  1.009532  0  0  0.099175  0  1.007963  0  0.05767  0  0.094419  0.094729  0  1.010321  0
H  H50  1  0.66424571  0.99798039  0.35250992  1  0  0.083944  0  0.950391  0  0  0.096284  0  1.009585  0  0  0.099132  0  1.008018  0  0.057552  0  0.094423  0.094699  0  1.010362  0
H  H51  1  0.66424779  0.49798305  0.14748944  1  0  0.083909  0  0.950423  0  0  0.096246  0  1.009623  0  0  0.099094  0  1.008056  0  0.057532  0  0.094412  0.094661  0  1.010399  0
H  H52  1  0.75689158  0.50205244  0.95578011  1  0  0.127457  0  0.964124  0  0  0.132936  0  1.026495  0  0  0.138075  0  1.022652  0  0.139313  0  0.11374  0.129211  0  1.029427  0
H  H53  1  0.75689162  0.00205101  0.54422053  1  0  0.127454  0  0.96414  0  0  0.13292  0  1.026529  0  0  0.138063  0  1.022686  0  0.139327  0  0.113726  0.129195  0  1.029459  0
H  H54  1  0.24310973  0.49795041  0.04422053  1  0  0.127461  0  0.964095  0  0  0.132923  0  1.026497  0  0  0.138063  0  1.022653  0  0.139349  0  0.113728  0.129198  0  1.029427  0
H  H55  1  0.24310813  0.99794980  0.45577947  1  0  0.127523  0  0.964077  0  0  0.132931  0  1.026532  0  0  0.138075  0  1.022688  0  0.139343  0  0.113732  0.129206  0  1.029464  0
H  H56  1  0.95458141  0.09283612  0.99085691  1  0  0.071015  0  0.94028  0  0  0.080407  0  1.005799  0  0  0.082783  0  1.003475  0  0.07071  0  0.117626  0.079737  0  1.005778  0
H  H57  1  0.95458456  0.59283755  0.50914245  1  0  0.070999  0  0.940306  0  0  0.080419  0  1.005804  0  0  0.082797  0  1.003477  0  0.070666  0  0.117599  0.079748  0  1.005783  0
H  H58  1  0.04541728  0.90716469  0.00914181  1  0  0.071031  0  0.940237  0  0  0.080438  0  1.005742  0  0  0.082816  0  1.003414  0  0.070642  0  0.11762  0.079767  0  1.005721  0
H  H59  1  0.04541888  0.40716530  0.49085819  1  0  0.071019  0  0.940285  0  0  0.080418  0  1.005794  0  0  0.082794  0  1.003471  0  0.070658  0  0.117615  0.079747  0  1.005774  0
H  H60  1  0.11583676  0.24800732  0.80292077  1  0  0.070936  0  0.9634  0  0  0.084087  0  1.022228  0  0  0.086366  0  1.021561  0  0.019989  0  0.091457  0.081984  0  1.024042  0
H  H61  1  0.11583502  0.74800161  0.69707923  1  0  0.070964  0  0.963402  0  0  0.084127  0  1.022214  0  0  0.086405  0  1.021546  0  0.019998  0  0.091484  0.082022  0  1.024031  0
H  H62  1  0.88416406  0.75199349  0.19707859  1  0  0.070954  0  0.963421  0  0  0.084104  0  1.022252  0  0  0.086383  0  1.021584  0  0.019986  0  0.091461  0.082  0  1.024066  0
H  H63  1  0.88416246  0.25199410  0.30292077  1  0  0.070976  0  0.963429  0  0  0.084131  0  1.022247  0  0  0.08641  0  1.021579  0  0.02  0  0.091478  0.082027  0  1.024061  0
C  C64  1  0.38855397  0.00892002  0.78126456  1  0  -0.065257  0  3.736217  0  0  -0.044681  0  3.975791  0  0  -0.050987  0  4.001751  0  -0.030058  0  -0.037513  -0.03955  0  3.958957  0
C  C65  1  0.38855760  0.50892348  0.71873608  1  0  -0.06508  0  3.73606  0  0  -0.044461  0  3.975597  0  0  -0.050786  0  4.001557  0  -0.029973  0  -0.037453  -0.039338  0  3.958759  0
C  C66  1  0.61144530  0.99107875  0.21873480  1  0  -0.065216  0  3.736195  0  0  -0.044627  0  3.975769  0  0  -0.050942  0  4.001722  0  -0.030029  0  -0.037486  -0.039498  0  3.958933  0
C  C67  1  0.61144583  0.49107937  0.28126520  1  0  -0.065225  0  3.736222  0  0  -0.044578  0  3.975733  0  0  -0.050896  0  4.001696  0  -0.029951  0  -0.037473  -0.039454  0  3.958901  0
C  C68  1  0.36357560  0.06245135  0.86256880  1  0  0.306188  0  3.859573  0  0  0.290987  0  4.111005  0  0  0.303979  0  4.129638  0  0.535561  0  0.066991  0.281872  0  4.098288  0
C  C69  1  0.36357541  0.56244768  0.63743056  1  0  0.306131  0  3.859513  0  0  0.290926  0  4.110945  0  0  0.30392  0  4.129588  0  0.535554  0  0.066989  0.281812  0  4.098228  0
C  C70  1  0.63642653  0.93755048  0.13742992  1  0  0.306209  0  3.859487  0  0  0.290983  0  4.110949  0  0  0.303974  0  4.129582  0  0.535576  0  0.066995  0.281867  0  4.098231  0
C  C71  1  0.63642493  0.43755109  0.36257008  1  0  0.306245  0  3.859469  0  0  0.29102  0  4.110903  0  0  0.304013  0  4.12954  0  0.535518  0  0.067027  0.281905  0  4.098186  0
C  C72  1  0.26440729  0.14879481  0.86861321  1  0  -0.239659  0  3.774089  0  0  -0.258203  0  4.029916  0  0  -0.266304  0  4.051213  0  -0.093045  0  -0.129001  -0.252114  0  4.014955  0
C  C73  1  0.26440473  0.64879011  0.63138679  1  0  -0.239606  0  3.773855  0  0  -0.258151  0  4.029695  0  0  -0.266254  0  4.050996  0  -0.093079  0  -0.128961  -0.25206  0  4.014733  0
C  C74  1  0.73559508  0.85120804  0.13138615  1  0  -0.239557  0  3.773986  0  0  -0.258078  0  4.029807  0  0  -0.266182  0  4.051106  0  -0.093002  0  -0.128959  -0.25199  0  4.014844  0
C  C75  1  0.73559430  0.35120764  0.36861257  1  0  -0.239654  0  3.773966  0  0  -0.258198  0  4.029807  0  0  -0.266302  0  4.051107  0  -0.093053  0  -0.128979  -0.252108  0  4.014847  0
C  C76  1  0.72146863  0.28517339  0.95352233  1  0  0.134756  0  3.675715  0  0  0.105049  0  3.926613  0  0  0.112072  0  3.943097  0  0.446567  0  0.055831  0.100538  0  3.915281  0
C  C77  1  0.72146999  0.78517175  0.54647703  1  0  0.1347  0  3.675727  0  0  0.105006  0  3.926615  0  0  0.112027  0  3.943107  0  0.4466  0  0.055813  0.100496  0  3.915282  0
C  C78  1  0.27853161  0.71482946  0.04647703  1  0  0.134657  0  3.675788  0  0  0.104984  0  3.926673  0  0  0.112007  0  3.943158  0  0.446862  0  0.055799  0.100474  0  3.91534  0
C  C79  1  0.27853083  0.21482906  0.45352233  1  0  0.134692  0  3.6757  0  0  0.105014  0  3.926581  0  0  0.112035  0  3.943072  0  0.446605  0  0.055802  0.100503  0  3.915248  0
C  C80  1  0.72752447  0.86338459  0.78396071  1  0  0.050677  0  3.664893  0  0  0.038823  0  3.904118  0  0  0.038191  0  3.918569  0  0.317191  0  -0.00868  0.038704  0  3.895286  0
C  C81  1  0.72752557  0.36338317  0.71603993  1  0  0.050807  0  3.664793  0  0  0.038976  0  3.904078  0  0  0.038354  0  3.918524  0  0.317094  0  -0.008623  0.03886  0  3.895245  0
C  C82  1  0.27247660  0.13661724  0.21603993  1  0  0.050804  0  3.664717  0  0  0.038864  0  3.904132  0  0  0.038232  0  3.91859  0  0.317164  0  -0.008617  0.038755  0  3.895286  0
C  C83  1  0.27247060  0.63661152  0.28396071  1  0  0.050779  0  3.664991  0  0  0.038994  0  3.904187  0  0  0.038364  0  3.918639  0  0.317259  0  -0.008631  0.038876  0  3.895358  0
C  C84  1  0.71095583  0.76019448  0.85774158  1  0  0.629143  0  3.87486  0  0  0.583446  0  4.175776  0  0  0.615258  0  4.170197  0  1.564924  0  0.202289  0.561747  0  4.179557  0
C  C85  1  0.71095428  0.26020427  0.64225650  1  0  0.628903  0  3.874661  0  0  0.58312  0  4.175733  0  0  0.614936  0  4.170154  0  1.564673  0  0.202165  0.561416  0  4.179516  0
C  C86  1  0.28904320  0.23980327  0.14225778  1  0  0.62897  0  3.874965  0  0  0.583252  0  4.175957  0  0  0.615068  0  4.170381  0  1.564687  0  0.20223  0.561551  0  4.179738  0
C  C87  1  0.28903942  0.73979348  0.35774286  1  0  0.628959  0  3.874851  0  0  0.583156  0  4.175926  0  0  0.61497  0  4.170349  0  1.564666  0  0.2022  0.561454  0  4.179708  0
C  C88  1  0.95287826  0.43158674  0.99216306  1  0  0.097097  0  3.723798  0  0  0.108903  0  3.953101  0  0  0.112623  0  3.974725  0  -0.094413  0  0.021545  0.106552  0  3.937985  0
C  C89  1  0.95287904  0.93158714  0.50783758  1  0  0.097165  0  3.723671  0  0  0.108951  0  3.95302  0  0  0.112671  0  3.974643  0  -0.094428  0  0.021586  0.106599  0  3.937907  0
C  C90  1  0.04712150  0.56841407  0.00783886  1  0  0.097214  0  3.723766  0  0  0.109026  0  3.95306  0  0  0.112747  0  3.974683  0  -0.058445  0  0.021623  0.106672  0  3.937947  0
C  C91  1  0.04712072  0.06841367  0.49216242  1  0  0.097218  0  3.723711  0  0  0.109023  0  3.953022  0  0  0.112744  0  3.974643  0  -0.058449  0  0.021606  0.106669  0  3.937907  0
C  C92  1  0.88824830  0.93479778  0.77593882  1  0  -0.324956  0  3.694239  0  0  -0.405771  0  3.934256  0  0  -0.408718  0  3.944945  0  -0.058693  0  -0.244007  -0.403235  0  3.927063  0
C  C93  1  0.88824834  0.43479635  0.72406310  1  0  -0.32498  0  3.694305  0  0  -0.405794  0  3.934342  0  0  -0.408751  0  3.945023  0  -0.058664  0  -0.244015  -0.403262  0  3.927148  0
C  C94  1  0.11175252  0.06520303  0.22406182  1  0  -0.324968  0  3.694214  0  0  -0.405755  0  3.93426  0  0  -0.408715  0  3.944941  0  -0.058748  0  -0.244025  -0.403224  0  3.927068  0
C  C95  1  0.11174817  0.56519528  0.27593626  1  0  -0.325067  0  3.694137  0  0  -0.405912  0  3.934188  0  0  -0.408869  0  3.944871  0  -0.058597  0  -0.244037  -0.403381  0  3.926997  0
C  C96  1  0.48466114  0.90892401  0.77260207  1  0  0.009428  0  3.697879  0  0  -0.055337  0  3.957151  0  0  -0.050193  0  3.969069  0  0.240528  0  -0.076091  -0.05947  0  3.950569  0
C  C97  1  0.48466331  0.40892259  0.72739857  1  0  0.009351  0  3.69794  0  0  -0.055434  0  3.957252  0  0  -0.050251  0  3.969125  0  0.240535  0  -0.07608  -0.059557  0  3.950658  0
C  C98  1  0.51533862  0.09107680  0.22739857  1  0  0.009338  0  3.697916  0  0  -0.055416  0  3.957205  0  0  -0.050235  0  3.969075  0  0.240512  0  -0.076078  -0.059542  0  3.950614  0
C  C99  1  0.51533751  0.59107822  0.27260207  1  0  0.00941  0  3.697927  0  0  -0.055394  0  3.957255  0  0  -0.05023  0  3.969152  0  0.240545  0  -0.076106  -0.059519  0  3.950664  0
C  C100  1  0.21613313  0.12842339  0.71624920  1  0  -0.114951  0  3.835454  0  0  -0.128469  0  4.089897  0  0  -0.132884  0  4.112186  0  -0.071018  0  -0.117144  -0.125388  0  4.075036  0
C  C101  1  0.21613604  0.62842379  0.78375272  1  0  -0.114918  0  3.835395  0  0  -0.128414  0  4.089828  0  0  -0.132832  0  4.112116  0  -0.07104  0  -0.117116  -0.125332  0  4.074964  0
C  C102  1  0.78386745  0.87157640  0.28375080  1  0  -0.114987  0  3.835351  0  0  -0.128513  0  4.089802  0  0  -0.132929  0  4.112089  0  -0.071029  0  -0.117172  -0.125432  0  4.07494  0
C  C103  1  0.78386822  0.37157804  0.21624856  1  0  -0.114942  0  3.835318  0  0  -0.128473  0  4.089769  0  0  -0.132887  0  4.112054  0  -0.070969  0  -0.11715  -0.125391  0  4.074908  0
C  C104  1  0.00616988  0.31228021  0.00154422  1  0  -0.14691  0  3.665778  0  0  -0.164142  0  3.908052  0  0  -0.171257  0  3.928668  0  0.039926  0  -0.071507  -0.15954  0  3.894648  0
C  C105  1  0.00617196  0.81228163  0.49845770  1  0  -0.14694  0  3.665804  0  0  -0.164146  0  3.908098  0  0  -0.171257  0  3.928717  0  0.040043  0  -0.071523  -0.159557  0  3.894681  0
C  C106  1  0.99382881  0.68772060  0.99845834  1  0  -0.14698  0  3.665798  0  0  -0.16419  0  3.908087  0  0  -0.171302  0  3.928707  0  0.040046  0  -0.071546  -0.159599  0  3.894673  0
C  C107  1  0.99382910  0.18772019  0.50154294  1  0  -0.146977  0  3.665729  0  0  -0.16419  0  3.908004  0  0  -0.171301  0  3.928623  0  0.040043  0  -0.071538  -0.15959  0  3.894598  0
C  C108  1  0.31491609  0.04373522  0.70967234  1  0  -0.101643  0  3.799239  0  0  -0.122338  0  4.04955  0  0  -0.122017  0  4.070779  0  -0.025114  0  -0.098052  -0.122578  0  4.035995  0
C  C109  1  0.31492268  0.54373767  0.79032830  1  0  -0.101746  0  3.79922  0  0  -0.122473  0  4.049517  0  0  -0.122149  0  4.070748  0  -0.025305  0  -0.098106  -0.1227  0  4.035966  0
C  C110  1  0.68508342  0.95626457  0.29032702  1  0  -0.101619  0  3.799216  0  0  -0.122315  0  4.049519  0  0  -0.121995  0  4.070751  0  -0.025109  0  -0.098069  -0.122557  0  4.035966  0
C  C111  1  0.68508207  0.45626620  0.20967298  1  0  -0.101603  0  3.799243  0  0  -0.122317  0  4.049549  0  0  -0.121993  0  4.070779  0  -0.025128  0  -0.098077  -0.122557  0  4.035995  0
C  C112  1  0.80604518  0.41524697  0.96749264  1  0  -0.134432  0  3.655748  0  0  -0.151026  0  3.898576  0  0  -0.157944  0  3.917688  0  0.029237  0  -0.067696  -0.146219  0  3.885284  0
C  C113  1  0.80604440  0.91524533  0.53250736  1  0  -0.134378  0  3.655644  0  0  -0.150971  0  3.898485  0  0  -0.157897  0  3.917602  0  0.029232  0  -0.067657  -0.146163  0  3.885193  0
C  C114  1  0.19395531  0.58475690  0.03250736  1  0  -0.134459  0  3.655788  0  0  -0.15107  0  3.898642  0  0  -0.157993  0  3.917757  0  0.028972  0  -0.0677  -0.146261  0  3.885348  0
C  C115  1  0.19395535  0.08475548  0.46749264  1  0  -0.134506  0  3.655769  0  0  -0.151061  0  3.898621  0  0  -0.157988  0  3.917737  0  0.029241  0  -0.067692  -0.146254  0  3.885331  0
C  C116  1  0.91476862  0.18626786  0.98490465  1  0  0.136537  0  3.706159  0  0  0.107283  0  3.956237  0  0  0.113618  0  3.974692  0  0.470147  0  0.05401  0.102549  0  3.943776  0
C  C117  1  0.91477128  0.68626725  0.51509535  1  0  0.13654  0  3.706074  0  0  0.107263  0  3.956145  0  0  0.113595  0  3.974602  0  0.470041  0  0.054021  0.102529  0  3.943688  0
C  C118  1  0.08523032  0.81373397  0.01509471  1  0  0.136523  0  3.706088  0  0  0.107275  0  3.956165  0  0  0.11361  0  3.974619  0  0.47001  0  0.054012  0.102539  0  3.943706  0
C  C119  1  0.08523060  0.31373356  0.48490529  1  0  0.136501  0  3.706127  0  0  0.107256  0  3.956205  0  0  0.113588  0  3.974661  0  0.470009  0  0.054003  0.102521  0  3.943745  0
C  C120  1  0.19148127  0.18048607  0.79644055  1  0  -0.044719  0  3.837013  0  0  -0.057672  0  4.086439  0  0  -0.056546  0  4.108147  0  -0.018408  0  -0.09859  -0.058871  0  4.072839  0
C  C121  1  0.19147943  0.68048443  0.70356009  1  0  -0.044765  0  3.836953  0  0  -0.057731  0  4.086385  0  0  -0.056606  0  4.108092  0  -0.018342  0  -0.098606  -0.058933  0  4.072786  0
C  C122  1  0.80852086  0.81951576  0.20355817  1  0  -0.04473  0  3.836912  0  0  -0.057695  0  4.086356  0  0  -0.056565  0  4.10806  0  -0.01841  0  -0.098556  -0.058891  0  4.072755  0
C  C123  1  0.80851984  0.31951434  0.29644119  1  0  -0.04473  0  3.836951  0  0  -0.057684  0  4.086385  0  0  -0.056559  0  4.10809  0  -0.018448  0  -0.098573  -0.058886  0  4.072787  0
N  N124  1  0.77457874  0.17169761  0.96092730  1  0  -0.319852  0  3.301568  0  0  -0.242271  0  3.580385  0  0  -0.259184  0  3.593788  0  -1.254114  0  -0.32468  -0.230919  0  3.571687  0
N  N125  1  0.77458034  0.67169700  0.53907206  1  0  -0.319853  0  3.301559  0  0  -0.242275  0  3.580373  0  0  -0.259188  0  3.59378  0  -1.254143  0  -0.324689  -0.230922  0  3.571675  0
N  N126  1  0.22542044  0.82830524  0.03907142  1  0  -0.319834  0  3.301556  0  0  -0.242295  0  3.580411  0  0  -0.259207  0  3.593813  0  -1.25419  0  -0.324671  -0.230935  0  3.571704  0
N  N127  1  0.22542072  0.32830483  0.46092858  1  0  -0.319809  0  3.301558  0  0  -0.242272  0  3.580411  0  0  -0.259185  0  3.593816  0  -1.254175  0  -0.324678  -0.230917  0  3.57171  0
N  N128  1  0.63819068  0.96442986  0.79896775  1  0  -0.460543  0  3.221022  0  0  -0.38852  0  3.474995  0  0  -0.407701  0  3.482842  0  -1.106578  0  -0.484604  -0.375234  0  3.470218  0
N  N129  1  0.63819261  0.46442742  0.70103289  1  0  -0.460637  0  3.221107  0  0  -0.388625  0  3.475094  0  0  -0.407825  0  3.482944  0  -1.106447  0  -0.484652  -0.375334  0  3.470292  0
N  N130  1  0.36180826  0.03557197  0.20103289  1  0  -0.460563  0  3.221016  0  0  -0.388535  0  3.47503  0  0  -0.407729  0  3.482875  0  -1.106499  0  -0.484652  -0.375248  0  3.470234  0
N  N131  1  0.36180749  0.53557033  0.29896775  1  0  -0.460612  0  3.221082  0  0  -0.388626  0  3.475069  0  0  -0.407819  0  3.482919  0  -1.106522  0  -0.484656  -0.375331  0  3.470261  0
O  O132  1  0.43230876  0.03131798  0.93283054  1  0  -0.676138  0  2.206144  0  0  -0.577093  0  2.497093  0  0  -0.606922  0  2.484993  0  -1.198474  0  -0.360013  -0.555669  0  2.504159  0
O  O133  1  0.43230857  0.53131430  0.56716882  1  0  -0.676158  0  2.206079  0  0  -0.577143  0  2.497101  0  0  -0.606946  0  2.484937  0  -1.198555  0  -0.360053  -0.555724  0  2.504168  0
O  O134  1  0.56769279  0.96868589  0.06716882  1  0  -0.676203  0  2.206088  0  0  -0.577149  0  2.497069  0  0  -0.606967  0  2.484948  0  -1.198583  0  -0.360063  -0.555728  0  2.504135  0
O  O135  1  0.56769201  0.46868549  0.43283118  1  0  -0.676179  0  2.206096  0  0  -0.577156  0  2.497117  0  0  -0.606962  0  2.484958  0  -1.198525  0  -0.360069  -0.555737  0  2.504184  0
O  O136  1  0.68320550  0.80237742  0.93273199  1  0  -0.644829  0  2.038318  0  0  -0.573847  0  2.303313  0  0  -0.601352  0  2.287991  0  -1.17871  0  -0.333183  -0.554595  0  2.313343  0
O  O137  1  0.68322060  0.30238109  0.56726801  1  0  -0.644654  0  2.038652  0  0  -0.573623  0  2.303645  0  0  -0.601129  0  2.28833  0  -1.178614  0  -0.333092  -0.554372  0  2.313673  0
O  O138  1  0.31678051  0.19761931  0.06726737  1  0  -0.644789  0  2.038537  0  0  -0.573773  0  2.303512  0  0  -0.60128  0  2.288198  0  -1.178594  0  -0.333157  -0.55452  0  2.31354  0
O  O139  1  0.31677630  0.69761666  0.43273199  1  0  -0.644727  0  2.038663  0  0  -0.57368  0  2.303647  0  0  -0.601186  0  2.288333  0  -1.178611  0  -0.333122  -0.554431  0  2.313676  0
O  O140  1  0.73349600  0.64414448  0.84334699  1  0  -0.603248  0  1.946401  0  0  -0.555141  0  2.16508  0  0  -0.578467  0  2.157728  0  -1.195359  0  -0.31743  -0.539321  0  2.16996  0
O  O141  1  0.73349386  0.14413388  0.65665429  1  0  -0.603231  0  1.945791  0  0  -0.555083  0  2.164509  0  0  -0.578416  0  2.15716  0  -1.195259  0  -0.317414  -0.539258  0  2.16939  0
O  O142  1  0.26651135  0.35586143  0.15665365  1  0  -0.603179  0  1.946306  0  0  -0.555059  0  2.165005  0  0  -0.578387  0  2.157656  0  -1.19532  0  -0.317424  -0.539238  0  2.169881  0
O  O143  1  0.26650313  0.85585979  0.34334571  1  0  -0.603206  0  1.945846  0  0  -0.555084  0  2.164601  0  0  -0.578414  0  2.157254  0  -1.195223  0  -0.317427  -0.53926  0  2.16948  0
