# generated using pymatgen
data_Cu2H2C8N12O
_symmetry_space_group_name_H-M   'P 1'
_cell_length_a   6.93669458
_cell_length_b   8.79981299
_cell_length_c   11.37206150
_cell_angle_alpha   99.70110867
_cell_angle_beta   107.85298260
_cell_angle_gamma   89.90338954
_symmetry_Int_Tables_number   1
_chemical_formula_structural   Cu2H2C8N12O
_chemical_formula_sum   'Cu4 H4 C16 N24 O2'
_cell_volume   650.36917815
_cell_formula_units_Z   2
loop_
 _symmetry_equiv_pos_site_id
 _symmetry_equiv_pos_as_xyz
  1  'x, y, z'
loop_
 _atom_site_type_symbol
 _atom_site_label
 _atom_site_symmetry_multiplicity
 _atom_site_fract_x
 _atom_site_fract_y
 _atom_site_fract_z
 _atom_site_occupancy
 _atom_site_hle17_ddec_charge
 _atom_site_hle17_ddec_spin_density
 _atom_site_hle17_ddec_sum_bond_order
 _atom_site_hle17_magmom
 _atom_site_hse06_10hf_ddec_charge
 _atom_site_hse06_10hf_ddec_spin_density
 _atom_site_hse06_10hf_ddec_sum_bond_order
 _atom_site_hse06_10hf_magmom
 _atom_site_hse06_ddec_charge
 _atom_site_hse06_ddec_spin_density
 _atom_site_hse06_ddec_sum_bond_order
 _atom_site_hse06_magmom
 _atom_site_pbe_cm5_charge
 _atom_site_pbe_ddec_charge
 _atom_site_pbe_ddec_spin_density
 _atom_site_pbe_ddec_sum_bond_order
 _atom_site_pbe_magmom
Cu  Cu0  1  0.99999873  0.50000411  0.00000103  1  1.066233  -0.708107  1.882563  -0.536  1.089115  -0.837962  2.282069  -0.689  1.156328  -0.908854  2.226689  -0.767  0.848838  1.042776  -0.764655  2.320691  -0.618
Cu  Cu1  1  0.00000504  0.99999595  0.99999928  1  1.07095  -0.717212  1.884227  -0.542  1.092367  -0.839713  2.28416  -0.691  1.159153  -0.90929  2.228739  -0.768  0.850068  1.04604  -0.764655  2.322994  -0.618
Cu  Cu2  1  0.00000482  0.99999798  0.50000270  1  1.006847  0.673066  1.962756  0.494  1.029471  0.816633  2.361607  0.659  1.098831  0.892468  2.308947  0.743  0.858465  0.967868  0.740304  2.424505  0.585
Cu  Cu3  1  0.49999776  0.50000730  0.49999699  1  1.008313  0.682289  1.960958  0.501  1.023412  0.817028  2.373745  0.659  1.093367  0.891778  2.319488  0.742  0.858342  0.967383  0.737627  2.424057  0.582
H  H4  1  0.27541977  0.24284552  0.06907206  1  0.401094  -1.3e-05  0.896717  0.0  0.374052  3.6e-05  0.965849  0.0  0.383613  1.6e-05  0.952024  0.0  0.292354  0.367346  5.6e-05  0.975572  0.0
H  H5  1  0.20635393  0.25563791  0.93071146  1  0.398685  -3e-06  0.897723  0.0  0.372258  3.7e-05  0.967552  0.0  0.381781  1.7e-05  0.953779  0.0  0.291449  0.365573  5.9e-05  0.977255  0.0
H  H6  1  0.72457942  0.75715638  0.93092358  1  0.401024  -1.3e-05  0.896765  0.0  0.373998  3.6e-05  0.965917  0.0  0.383558  1.6e-05  0.952096  0.0  0.292332  0.367301  5.6e-05  0.975623  0.0
H  H7  1  0.79363781  0.74436515  0.06928648  1  0.39856  -3e-06  0.89773  0.0  0.372152  3.8e-05  0.967671  0.0  0.381675  1.7e-05  0.953899  0.0  0.291395  0.365466  5.9e-05  0.977377  0.0
C  C8  1  0.57364289  0.33116196  0.87740087  1  0.53675  -0.003371  3.938201  -0.009  0.508709  -0.000557  4.224836  -0.006  0.538153  0.001115  4.236191  -0.003  0.328378  0.48789  -0.001805  4.216925  -0.008
C  C9  1  0.69610787  0.16893823  0.12266576  1  0.536829  -0.003501  3.944091  -0.01  0.50762  -0.000362  4.22961  -0.006  0.537157  0.001285  4.240863  -0.003  0.327978  0.486614  -0.001658  4.221845  -0.008
C  C10  1  0.42636417  0.66884341  0.12260195  1  0.536718  -0.003383  3.938229  -0.009  0.508744  -0.000556  4.22486  -0.006  0.538186  0.001111  4.236218  -0.003  0.328361  0.487923  -0.001807  4.216959  -0.008
C  C11  1  0.30388530  0.83106368  0.87733229  1  0.536581  -0.003489  3.943842  -0.01  0.50737  -0.000368  4.229383  -0.006  0.536902  0.00129  4.240647  -0.003  0.327888  0.4864  -0.001657  4.221618  -0.008
C  C12  1  0.32085360  0.15744281  0.73652743  1  0.535138  -0.004991  3.93367  -0.005  0.510206  0.005576  4.216726  0.009  0.54019  0.004018  4.227227  0.007  0.327864  0.488465  0.006545  4.208708  0.01
C  C13  1  0.58304515  0.34174216  0.26358410  1  0.538969  -0.005456  3.935653  -0.005  0.512973  0.005622  4.217429  0.009  0.543094  0.004038  4.227875  0.007  0.3293  0.490948  0.006514  4.209961  0.01
C  C14  1  0.67915321  0.84255909  0.26347401  1  0.535396  -0.004994  3.933529  -0.005  0.510524  0.005577  4.216573  0.009  0.540511  0.004015  4.227069  0.007  0.327967  0.488794  0.006544  4.20857  0.01
C  C15  1  0.41695652  0.65825281  0.73640582  1  0.53879  -0.005447  3.935254  -0.005  0.512806  0.005622  4.217027  0.009  0.542923  0.004044  4.227488  0.007  0.329298  0.490811  0.00652  4.209552  0.01
C  C16  1  0.04108346  0.45793016  0.26556375  1  0.529684  -0.000311  3.916299  -0.001  0.510194  -0.00788  4.212147  -0.011  0.539002  -0.006185  4.225128  -0.009  0.324219  0.488991  -0.008797  4.201815  -0.012
C  C17  1  0.77669737  0.04249089  0.73432327  1  0.533214  0.000169  3.913402  0.0  0.513503  -0.007876  4.209692  -0.011  0.542218  -0.006198  4.222675  -0.009  0.325242  0.49219  -0.008879  4.19908  -0.012
C  C18  1  0.95892006  0.54206713  0.73444264  1  0.529632  -0.000329  3.916204  -0.001  0.510146  -0.007857  4.212038  -0.011  0.538949  -0.006185  4.225016  -0.009  0.324075  0.488939  -0.008796  4.201701  -0.012
C  C19  1  0.22328806  0.95750871  0.26567219  1  0.53287  0.000166  3.912582  0.0  0.513135  -0.007883  4.208891  -0.011  0.541851  -0.006201  4.221874  -0.009  0.325068  0.491813  -0.008886  4.198291  -0.012
C  C20  1  0.05413692  0.30234088  0.41250903  1  0.53868  0.009191  3.920441  0.014  0.516626  0.004434  4.219021  0.009  0.546281  0.002632  4.229874  0.007  0.329129  0.494804  0.005549  4.209205  0.011
C  C21  1  0.64195208  0.19784129  0.58714535  1  0.536867  0.009746  3.92217  0.014  0.514744  0.004713  4.220814  0.01  0.544371  0.002914  4.231701  0.007  0.327833  0.492712  0.005832  4.210746  0.011
C  C22  1  0.94586872  0.69766564  0.58749455  1  0.538765  0.009167  3.91997  0.014  0.516727  0.00445  4.218525  0.009  0.546381  0.002628  4.229384  0.007  0.329248  0.494914  0.005546  4.208701  0.011
C  C23  1  0.35805956  0.80214214  0.41286160  1  0.53685  0.009734  3.921662  0.014  0.514707  0.004718  4.220307  0.01  0.544337  0.002916  4.23119  0.007  0.327745  0.492671  0.005835  4.210246  0.011
N  N24  1  0.72523913  0.40705733  0.92480928  1  -0.563202  -0.0284  2.94781  -0.037  -0.550939  -0.040116  3.255185  -0.052  -0.58308  -0.035669  3.259371  -0.048  -0.392166  -0.529657  -0.040104  3.252814  -0.051
N  N25  1  0.80073013  0.09471167  0.07446887  1  -0.565148  -0.028668  2.954165  -0.037  -0.55164  -0.040418  3.261183  -0.053  -0.58356  -0.035853  3.265221  -0.048  -0.392629  -0.53028  -0.040205  3.258981  -0.052
N  N26  1  0.27477518  0.59294341  0.07519427  1  -0.563245  -0.02839  2.947695  -0.037  -0.550978  -0.040115  3.255011  -0.052  -0.583125  -0.035663  3.259211  -0.048  -0.392161  -0.529687  -0.0401  3.252637  -0.051
N  N27  1  0.19926304  0.90529024  0.92552919  1  -0.564931  -0.028674  2.954233  -0.037  -0.551418  -0.040406  3.26126  -0.053  -0.583335  -0.035851  3.265303  -0.048  -0.392579  -0.530064  -0.040202  3.259038  -0.052
N  N28  1  0.40132751  0.25369089  0.83869290  1  -0.44244  0.027544  3.341183  0.034  -0.391505  0.006315  3.591691  0.008  -0.420221  0.003418  3.596843  0.004  -0.288828  -0.370449  0.009822  3.587079  0.012
N  N29  1  0.56172766  0.24450559  0.16207691  1  -0.444367  0.029071  3.344902  0.036  -0.390522  0.006347  3.593382  0.008  -0.419324  0.003449  3.598453  0.004  -0.288161  -0.369317  0.009988  3.588882  0.012
N  N30  1  0.59866752  0.74631449  0.16131474  1  -0.442504  0.027552  3.341403  0.034  -0.391718  0.006317  3.592035  0.008  -0.42042  0.003422  3.59714  0.004  -0.288898  -0.370666  0.009819  3.58744  0.012
N  N31  1  0.43827880  0.75549284  0.83791434  1  -0.444192  0.029079  3.344572  0.036  -0.390352  0.006349  3.593042  0.008  -0.419135  0.003444  3.598082  0.004  -0.288133  -0.369241  0.009997  3.588604  0.012
N  N32  1  0.23289779  0.06124465  0.65134467  1  -0.578482  0.066372  2.917593  0.08  -0.573023  0.044287  3.229913  0.057  -0.603967  0.036333  3.233451  0.048  -0.402869  -0.549936  0.048391  3.229306  0.06
N  N33  1  0.57937439  0.43847959  0.34817422  1  -0.582582  0.068659  2.919963  0.083  -0.574936  0.044415  3.23337  0.057  -0.605926  0.036367  3.236667  0.048  -0.404761  -0.552724  0.048349  3.231915  0.06
N  N34  1  0.76710886  0.93875494  0.34865644  1  -0.578648  0.066368  2.917472  0.08  -0.573195  0.044279  3.229749  0.057  -0.60414  0.036329  3.233282  0.048  -0.402903  -0.550098  0.048386  3.229124  0.06
N  N35  1  0.42063025  0.56151537  0.65181008  1  -0.582477  0.06868  2.919711  0.083  -0.574844  0.044425  3.23314  0.057  -0.605839  0.03637  3.236447  0.048  -0.404787  -0.552635  0.048355  3.231672  0.06
N  N36  1  0.98093695  0.51285566  0.17401418  1  -0.557074  -0.054372  2.84816  -0.068  -0.559218  -0.036397  3.15051  -0.048  -0.591016  -0.029331  3.157224  -0.04  -0.391164  -0.536567  -0.040177  3.145455  -0.052
N  N37  1  0.80744100  0.98701611  0.82551807  1  -0.559301  -0.057266  2.847318  -0.072  -0.562138  -0.036468  3.150201  -0.048  -0.5939  -0.029216  3.156977  -0.04  -0.391878  -0.539497  -0.039822  3.145268  -0.051
N  N38  1  0.01906367  0.48714394  0.82598934  1  -0.557031  -0.054356  2.848429  -0.068  -0.559151  -0.036429  3.150751  -0.048  -0.590951  -0.02934  3.157483  -0.04  -0.391107  -0.536501  -0.040182  3.145687  -0.052
N  N39  1  0.19253799  0.01298002  0.17446345  1  -0.559098  -0.057251  2.847011  -0.072  -0.561908  -0.036463  3.1499  -0.048  -0.593674  -0.029215  3.156703  -0.04  -0.391783  -0.539269  -0.039816  3.14498  -0.051
N  N40  1  0.12044014  0.41301700  0.37144018  1  -0.446104  -0.021328  3.338348  -0.026  -0.424453  -0.004218  3.625287  -0.004  -0.45547  -0.002735  3.630726  -0.003  -0.293293  -0.398892  -0.006434  3.618399  -0.007
N  N41  1  0.75126841  0.08806677  0.62886080  1  -0.446953  -0.022817  3.340491  -0.028  -0.425985  -0.004341  3.627542  -0.005  -0.456896  -0.002789  3.63295  -0.003  -0.293  -0.399372  -0.006171  3.620532  -0.007
N  N42  1  0.87953970  0.58696760  0.62855406  1  -0.446209  -0.021315  3.337572  -0.026  -0.42456  -0.004208  3.624491  -0.004  -0.455581  -0.002724  3.629943  -0.003  -0.293284  -0.399004  -0.006439  3.617598  -0.007
N  N43  1  0.24871080  0.91194787  0.37116274  1  -0.446859  -0.022796  3.339511  -0.028  -0.425788  -0.004338  3.626449  -0.005  -0.456722  -0.002789  3.631921  -0.003  -0.29286  -0.399189  -0.006167  3.619473  -0.007
N  N44  1  0.00614545  0.20861378  0.46225088  1  -0.562307  0.024647  2.923344  0.031  -0.562045  0.038287  3.237213  0.05  -0.594286  0.033669  3.242137  0.045  -0.395332  -0.53682  0.038424  3.234637  0.049
N  N45  1  0.54267647  0.29073510  0.53671599  1  -0.561286  0.025711  2.922252  0.033  -0.559404  0.038328  3.236675  0.05  -0.591686  0.033467  3.241528  0.045  -0.394617  -0.534889  0.038066  3.232889  0.048
N  N46  1  0.99386384  0.79140083  0.53775882  1  -0.562319  0.024672  2.923415  0.031  -0.562056  0.038265  3.237309  0.05  -0.594294  0.03367  3.242234  0.045  -0.395419  -0.536847  0.038426  3.234742  0.049
N  N47  1  0.45734503  0.70923908  0.46328366  1  -0.561335  0.025764  2.922695  0.033  -0.559437  0.038334  3.237148  0.05  -0.591709  0.033476  3.241988  0.045  -0.394686  -0.534927  0.038078  3.233367  0.048
O  O48  1  0.15074995  0.24935144  0.99977828  1  -0.852755  0.004304  1.985037  0.003  -0.83224  0.002231  2.205591  0.001  -0.85035  0.002179  2.17259  0.001  -0.582811  -0.819138  0.002134  2.228589  0.001
O  O49  1  0.84924597  0.75064700  0.00021631  1  -0.85259  0.004305  1.985039  0.003  -0.832106  0.002231  2.205739  0.001  -0.850204  0.00218  2.172699  0.001  -0.582728  -0.818967  0.002134  2.228662  0.001
