# generated using pymatgen
data_Cd3H22C38(NO3)4
_symmetry_space_group_name_H-M   'P 1'
_cell_length_a   11.72625886
_cell_length_b   13.22935199
_cell_length_c   15.95869376
_cell_angle_alpha   71.36308861
_cell_angle_beta   68.45515562
_cell_angle_gamma   63.69670735
_symmetry_Int_Tables_number   1
_chemical_formula_structural   Cd3H22C38(NO3)4
_chemical_formula_sum   'Cd6 H44 C76 N8 O24'
_cell_volume   2027.44200366
_cell_formula_units_Z   2
loop_
 _symmetry_equiv_pos_site_id
 _symmetry_equiv_pos_as_xyz
  1  'x, y, z'
loop_
 _atom_site_type_symbol
 _atom_site_label
 _atom_site_symmetry_multiplicity
 _atom_site_fract_x
 _atom_site_fract_y
 _atom_site_fract_z
 _atom_site_occupancy
 _atom_site_pbe_bader_charge
 _atom_site_pbe_bader_spin_density
 _atom_site_pbe_cm5_charge
 _atom_site_pbe_ddec_charge
 _atom_site_pbe_ddec_spin_density
 _atom_site_pbe_ddec_sum_bond_order
 _atom_site_pbe_magmom
Cd  Cd0  1  0.53427303  0.02629969  0.86833189  1  1.290424  0  0.780027  0.887443  0  2.202544  0
Cd  Cd1  1  0.92895621  0.47370014  0.63163878  1  1.290134  0  0.780536  0.8879  0  2.202538  0
Cd  Cd2  1  0.46572597  0.97370150  0.13166851  1  1.290429  0  0.780037  0.887466  0  2.202502  0
Cd  Cd3  1  0.07104443  0.52629934  0.36836099  1  1.290122  0  0.780561  0.887967  0  2.202494  0
Cd  Cd4  1  0.56378763  0.74985551  0.75002779  1  1.287179  0  0.764483  0.99594  0  2.002895  0
Cd  Cd5  1  0.43621356  0.25014483  0.24997161  1  1.287185  0  0.764479  0.995945  0  2.002857  0
H  H6  1  0.28049579  0.28164632  0.12215371  1  0.084603  0  0.104072  0.111403  0  1.030171  0
H  H7  1  0.28635344  0.62299949  0.04814245  1  0.096448  0  0.106755  0.113551  0  1.003869  0
H  H8  1  0.46092950  0.41182214  0.84422785  1  0.09834  0  0.104168  0.111689  0  1.029517  0
H  H9  1  0.26196900  0.20786952  0.82879587  1  0.107726  0  0.116375  0.088233  0  1.012362  0
H  H10  1  0.05410524  0.21521934  0.81506492  1  0.107906  0  0.111914  0.129205  0  1.021124  0
H  H11  1  0.17330209  0.85250597  0.93773560  1  0.101393  0  0.111319  0.116839  0  1.008066  0
H  H12  1  0.37223300  0.86174640  0.94491550  1  0.114946  0  0.118846  0.097972  0  1.009496  0
H  H13  1  0.67306153  0.20245099  0.82442886  1  0.12342  0  0.118653  0.091266  0  1.017874  0
H  H14  1  0.87721829  0.21593554  0.82422435  1  0.113447  0  0.114102  0.130678  0  1.015288  0
H  H15  1  0.02768927  0.84522643  0.90698004  1  0.100756  0  0.114644  0.123238  0  0.994023  0
H  H16  1  0.81545730  0.84935818  0.90562921  1  0.119113  0  0.119726  0.095555  0  0.988273  0
H  H17  1  0.18446250  0.21850799  0.37785477  1  0.081466  0  0.103881  0.111675  0  1.029495  0
H  H18  1  0.45760831  0.87713819  0.45186377  1  0.096971  0  0.106382  0.112875  0  1.00437  0
H  H19  1  0.21712366  0.08822187  0.65583747  1  0.112098  0  0.104385  0.11127  0  1.029174  0
H  H20  1  0.79881417  0.29216506  0.67122304  1  0.135628  0  0.115885  0.087287  0  1.01338  0
H  H21  1  0.58458086  0.28466839  0.68502740  1  0.108314  0  0.112123  0.128826  0  1.02247  0
H  H22  1  0.46342265  0.64735710  0.56238984  1  0.108349  0  0.111555  0.11709  0  1.007516  0
H  H23  1  0.67879019  0.63827725  0.55500427  1  0.122567  0  0.119199  0.098333  0  1.010878  0
H  H24  1  0.20009069  0.29740099  0.67549359  1  0.113365  0  0.118803  0.091143  0  1.016678  0
H  H25  1  0.41751344  0.28392836  0.67574525  1  0.124667  0  0.114384  0.131504  0  1.013889  0
H  H26  1  0.28001781  0.65464402  0.59304941  1  0.082283  0  0.114549  0.122441  0  0.995008  0
H  H27  1  0.07063551  0.65049082  0.59440942  1  0.116683  0  0.119759  0.094997  0  0.987974  0
H  H28  1  0.71950338  0.71835230  0.87784544  1  0.084571  0  0.104079  0.111416  0  1.030087  0
H  H29  1  0.71364666  0.37699913  0.95186146  1  0.096768  0  0.106768  0.113522  0  1.004018  0
H  H30  1  0.53907188  0.58817992  0.15577355  1  0.098392  0  0.10416  0.111668  0  1.029487  0
H  H31  1  0.73803164  0.79212996  0.17120454  1  0.107741  0  0.116381  0.088265  0  1.01233  0
H  H32  1  0.94589632  0.78478014  0.18493399  1  0.107904  0  0.111921  0.129213  0  1.021099  0
H  H33  1  0.82669819  0.14749437  0.06226530  1  0.101381  0  0.111317  0.116844  0  1.008083  0
H  H34  1  0.62776673  0.13825308  0.05508515  1  0.11494  0  0.118864  0.098016  0  1.009448  0
H  H35  1  0.32693967  0.79754935  0.17557116  1  0.123468  0  0.118641  0.091253  0  1.017891  0
H  H36  1  0.12278291  0.78406480  0.17577442  1  0.113406  0  0.11407  0.13061  0  1.015327  0
H  H37  1  0.97231192  0.15477391  0.09301811  1  0.100756  0  0.114658  0.12324  0  0.993988  0
H  H38  1  0.18454389  0.15064216  0.09437019  1  0.119093  0  0.119731  0.095559  0  0.98828  0
H  H39  1  0.81553539  0.78149149  0.62214575  1  0.08148  0  0.103892  0.111685  0  1.029471  0
H  H40  1  0.54239069  0.12286301  0.54813663  1  0.096925  0  0.10637  0.112845  0  1.004392  0
H  H41  1  0.78287314  0.91178018  0.34416392  1  0.111982  0  0.104394  0.111246  0  1.029232  0
H  H42  1  0.20118812  0.70783271  0.32877549  1  0.135625  0  0.115895  0.087321  0  1.013338  0
H  H43  1  0.41541923  0.71533024  0.31497212  1  0.108326  0  0.112106  0.128814  0  1.022542  0
H  H44  1  0.53657672  0.35264324  0.43761131  1  0.108344  0  0.111557  0.117097  0  1.007519  0
H  H45  1  0.32121046  0.36172223  0.44499613  1  0.122669  0  0.11921  0.098305  0  1.010825  0
H  H46  1  0.79991050  0.70259935  0.32450393  1  0.113365  0  0.118793  0.091141  0  1.016675  0
H  H47  1  0.58248812  0.71607112  0.32425365  1  0.124672  0  0.114386  0.131512  0  1.013909  0
H  H48  1  0.71998247  0.34535631  0.40695149  1  0.082271  0  0.114561  0.122477  0  0.994998  0
H  H49  1  0.92936568  0.34950952  0.40558873  1  0.116685  0  0.119753  0.094986  0  0.988009  0
C  C50  1  0.41368240  0.22507990  0.95082864  1  1.562272  0  0.201843  0.574548  0  4.212403  0
C  C51  1  0.37016018  0.33639924  0.97950667  1  -0.034723  0  -0.019829  -0.029911  0  3.984614  0
C  C52  1  0.30411584  0.35168711  0.07018933  1  0.013861  0  -0.077895  -0.110611  0  3.926659  0
C  C53  1  0.27002554  0.45650722  0.09422448  1  -0.064125  0  -0.021894  -0.042514  0  3.994156  0
C  C54  1  0.30748031  0.54362982  0.02846756  1  0.017074  0  -0.068782  -0.08717  0  3.905629  0
C  C55  1  0.37904950  0.52626916  0.93906748  1  -0.00362  0  -0.017339  -0.024196  0  3.980148  0
C  C56  1  0.40643388  0.42418548  0.91428096  1  -0.043887  0  -0.071312  -0.089266  0  3.900823  0
C  C57  1  0.43785366  0.61017569  0.87155154  1  1.544669  0  0.185631  0.548971  0  4.250882  0
C  C58  1  0.20247845  0.47482169  0.19078253  1  1.570985  0  0.199776  0.578847  0  4.185763  0
C  C59  1  0.23718866  0.13133233  0.85157371  1  0.4385  0  0.047162  0.094722  0  3.944656  0
C  C60  1  0.12087586  0.13446141  0.84475639  1  -0.01273  0  -0.076376  -0.166372  0  3.912198  0
C  C61  1  0.09341145  0.03338276  0.87468524  1  0.001354  0  0.015874  0.100714  0  3.955304  0
C  C62  1  0.18553059  0.93468636  0.91254319  1  0.008184  0  -0.072093  -0.144109  0  3.916891  0
C  C63  1  0.29929097  0.93876780  0.91713991  1  0.512192  0  0.052056  0.109648  0  3.934025  0
C  C64  1  0.75505761  0.12538494  0.84190732  1  0.465834  0  0.047787  0.093409  0  3.939024  0
C  C65  1  0.87001293  0.13186688  0.84221223  1  -0.011492  0  -0.073561  -0.160943  0  3.903063  0
C  C66  1  0.97222097  0.03098763  0.86760752  1  0.009353  0  0.019507  0.112064  0  3.957029  0
C  C67  1  0.95252387  0.92738239  0.88842659  1  -0.047637  0  -0.076815  -0.167646  0  3.932131  0
C  C68  1  0.83428780  0.92842363  0.88703930  1  0.45241  0  0.049554  0.100521  0  3.955135  0
C  C69  1  0.08977866  0.27495072  0.54927846  1  1.538011  0  0.200925  0.573311  0  4.211174  0
C  C70  1  0.18643923  0.16373483  0.52050456  1  -0.027769  0  -0.021065  -0.032664  0  3.984767  0
C  C71  1  0.22629056  0.14852363  0.42979260  1  0.085661  0  -0.077269  -0.110176  0  3.927049  0
C  C72  1  0.32101889  0.04369801  0.40575328  1  -0.092496  0  -0.022147  -0.04426  0  3.993787  0
C  C73  1  0.37983734  0.95657272  0.47151446  1  0.023289  0  -0.068973  -0.086017  0  3.902913  0
C  C74  1  0.34474302  0.97387840  0.56094075  1  -0.030558  0  -0.017871  -0.026864  0  3.984037  0
C  C75  1  0.24522623  0.07592407  0.58575143  1  -0.036433  0  -0.070116  -0.08509  0  3.900128  0
C  C76  1  0.41978825  0.88977911  0.62848888  1  1.553069  0  0.185977  0.549765  0  4.250304  0
C  C77  1  0.36817674  0.02534617  0.30919711  1  1.537817  0  0.199468  0.579255  0  4.185278  0
C  C78  1  0.72019866  0.36867415  0.64848142  1  0.424984  0  0.045982  0.093119  0  3.945142  0
C  C79  1  0.60022837  0.36543585  0.65536307  1  -0.017878  0  -0.075666  -0.163833  0  3.911554  0
C  C80  1  0.50154155  0.46646356  0.62548319  1  -0.005204  0  0.016055  0.100481  0  3.952698  0
C  C81  1  0.53270171  0.56521371  0.58759342  1  0.006203  0  -0.072639  -0.144191  0  3.912529  0
C  C82  1  0.65514635  0.56124156  0.58286949  1  0.510245  0  0.052982  0.110424  0  3.93445  0
C  C83  1  0.22249615  0.37446417  0.65805093  1  0.452263  0  0.048701  0.095139  0  3.936426  0
C  C84  1  0.34421393  0.36799000  0.65780665  1  -0.03548  0  -0.074911  -0.163741  0  3.902532  0
C  C85  1  0.37092348  0.46885142  0.63249635  1  0.031428  0  0.019647  0.113058  0  3.956463  0
C  C86  1  0.26847191  0.57246634  0.61161857  1  -0.05948  0  -0.077418  -0.168516  0  3.934397  0
C  C87  1  0.14991210  0.57140866  0.61300956  1  0.493944  0  0.049132  0.10054  0  3.959516  0
C  C88  1  0.58631787  0.77492044  0.04917038  1  1.562258  0  0.201843  0.574574  0  4.212463  0
C  C89  1  0.62983698  0.66360196  0.02049360  1  -0.034544  0  -0.019868  -0.030043  0  3.984708  0
C  C90  1  0.69588186  0.64831066  0.92981107  1  0.013848  0  -0.077896  -0.11062  0  3.926649  0
C  C91  1  0.72997180  0.54349139  0.90577829  1  -0.064007  0  -0.021863  -0.042453  0  3.994167  0
C  C92  1  0.69251996  0.45636622  0.97153322  1  0.016412  0  -0.068818  -0.087084  0  3.905737  0
C  C93  1  0.62095206  0.47373032  0.06093268  1  -0.003367  0  -0.017288  -0.024234  0  3.980135  0
C  C94  1  0.59356329  0.57581571  0.08572118  1  -0.04412  0  -0.071302  -0.089167  0  3.900673  0
C  C95  1  0.56214717  0.38982550  0.12845212  1  1.544532  0  0.185743  0.549158  0  4.250561  0
C  C96  1  0.79752017  0.52517607  0.80921825  1  1.571004  0  0.199702  0.578797  0  4.185782  0
C  C97  1  0.76281290  0.86866715  0.14842708  1  0.438482  0  0.047164  0.094739  0  3.944567  0
C  C98  1  0.87912625  0.86553893  0.15524213  1  -0.012734  0  -0.076383  -0.166372  0  3.912238  0
C  C99  1  0.90658919  0.96661673  0.12531329  1  0.001324  0  0.015862  0.100678  0  3.955344  0
C  C100  1  0.81447060  0.06531398  0.08745558  1  0.008178  0  -0.072062  -0.144059  0  3.916963  0
C  C101  1  0.70070931  0.06123253  0.08286036  1  0.512205  0  0.05205  0.109636  0  3.934003  0
C  C102  1  0.24494304  0.87461454  0.15809246  1  0.465801  0  0.047763  0.093361  0  3.938872  0
C  C103  1  0.12998771  0.86813260  0.15778629  1  -0.011484  0  -0.073543  -0.16084  0  3.902923  0
C  C104  1  0.02778003  0.96901099  0.13239113  1  0.009394  0  0.019473  0.112025  0  3.956876  0
C  C105  1  0.04747824  0.07261795  0.11157194  1  -0.047605  0  -0.076813  -0.167633  0  3.932024  0
C  C106  1  0.16571248  0.07157671  0.11295972  1  0.452394  0  0.049566  0.100531  0  3.955152  0
C  C107  1  0.91022089  0.72505134  0.45071906  1  1.538402  0  0.200846  0.573222  0  4.211238  0
C  C108  1  0.81356233  0.83626464  0.47949559  1  -0.027719  0  -0.021149  -0.032805  0  3.984969  0
C  C109  1  0.77370733  0.85147585  0.57020666  1  0.085586  0  -0.077221  -0.110068  0  3.92704  0
C  C110  1  0.67897864  0.95630233  0.59424649  1  -0.092489  0  -0.022139  -0.044284  0  3.993744  0
C  C111  1  0.62015854  0.04342933  0.52848655  1  0.023279  0  -0.068962  -0.085922  0  3.903033  0
C  C112  1  0.65525342  0.02612451  0.43906113  1  -0.030555  0  -0.017921  -0.027062  0  3.984247  0
C  C113  1  0.75477496  0.92407627  0.41424859  1  -0.036252  0  -0.070071  -0.084924  0  3.900064  0
C  C114  1  0.58021038  0.11022294  0.37151076  1  1.55317  0  0.185951  0.549764  0  4.250402  0
C  C115  1  0.63182335  0.97465245  0.69080367  1  1.537638  0  0.199477  0.579272  0  4.185347  0
C  C116  1  0.27980271  0.63132362  0.35151736  1  0.425046  0  0.045962  0.093083  0  3.945121  0
C  C117  1  0.39977228  0.63456363  0.34463608  1  -0.017886  0  -0.07564  -0.163826  0  3.911647  0
C  C118  1  0.49845909  0.53353592  0.37451721  1  -0.005389  0  0.016077  0.100531  0  3.952728  0
C  C119  1  0.46729948  0.43478663  0.41240661  1  0.006206  0  -0.072649  -0.144205  0  3.912511  0
C  C120  1  0.34485522  0.43875792  0.41713066  1  0.510111  0  0.052937  0.110376  0  3.934349  0
C  C121  1  0.77750577  0.62553445  0.34194748  1  0.452282  0  0.048709  0.095118  0  3.936441  0
C  C122  1  0.65578635  0.63201034  0.34219237  1  -0.035475  0  -0.074941  -0.163797  0  3.902597  0
C  C123  1  0.62907625  0.53114806  0.36750493  1  0.031602  0  0.019674  0.113108  0  3.956493  0
C  C124  1  0.73152836  0.42753400  0.38838170  1  -0.05944  0  -0.077436  -0.168581  0  3.934407  0
C  C125  1  0.85008965  0.42859254  0.38698884  1  0.493552  0  0.049133  0.100531  0  3.959601  0
N  N126  1  0.32592244  0.03491926  0.88644642  1  -1.21024  0  -0.328495  -0.236457  0  3.518056  0
N  N127  1  0.73582229  0.02585868  0.86508068  1  -1.231189  0  -0.32582  -0.234909  0  3.49747  0
N  N128  1  0.74730931  0.46513623  0.61353928  1  -1.231484  0  -0.328747  -0.237162  0  3.519424  0
N  N129  1  0.12688674  0.47399980  0.63494623  1  -1.217508  0  -0.325299  -0.233977  0  3.499067  0
N  N130  1  0.67407784  0.96508107  0.11355448  1  -1.210191  0  -0.328513  -0.236535  0  3.518016  0
N  N131  1  0.26417890  0.97414166  0.13491872  1  -1.231187  0  -0.325784  -0.234889  0  3.497328  0
N  N132  1  0.25269170  0.53486239  0.38646000  1  -1.231503  0  -0.32872  -0.237131  0  3.519349  0
N  N133  1  0.87311482  0.52599968  0.36505268  1  -1.21718  0  -0.325309  -0.233937  0  3.499082  0
O  O134  1  0.42204250  0.13313950  0.01130555  1  -1.199066  0  -0.34236  -0.601348  0  2.34595  0
O  O135  1  0.44535880  0.22568480  0.86527310  1  -1.16888  0  -0.328233  -0.558658  0  2.235606  0
O  O136  1  0.50756357  0.58662298  0.79241250  1  -1.156837  0  -0.332937  -0.556662  0  2.196831  0
O  O137  1  0.42145913  0.69930582  0.89651944  1  -1.164933  0  -0.328473  -0.572908  0  2.229072  0
O  O138  1  0.12960738  0.57572063  0.20514971  1  -1.165024  0  -0.324245  -0.537904  0  2.17919  0
O  O139  1  0.22066722  0.38747082  0.25744963  1  -1.18488  0  -0.335563  -0.586939  0  2.271596  0
O  O140  1  0.06658860  0.36693619  0.48883979  1  -1.202974  0  -0.341647  -0.600424  0  2.34526  0
O  O141  1  0.03645306  0.27427324  0.63482885  1  -1.170339  0  -0.327345  -0.556914  0  2.234626  0
O  O142  1  0.38661328  0.91305007  0.70775855  1  -1.153375  0  -0.332789  -0.556188  0  2.195562  0
O  O143  1  0.51753945  0.80073419  0.60341985  1  -1.168119  0  -0.32863  -0.573024  0  2.227443  0
O  O144  1  0.41045887  0.92443050  0.29487773  1  -1.161287  0  -0.324063  -0.538004  0  2.177905  0
O  O145  1  0.36564994  0.11266309  0.24251053  1  -1.182155  0  -0.335996  -0.587375  0  2.272305  0
O  O146  1  0.57795741  0.86686170  0.98869459  1  -1.199076  0  -0.342385  -0.601374  0  2.345955  0
O  O147  1  0.55464239  0.77431554  0.13472505  1  -1.168905  0  -0.328218  -0.558652  0  2.235674  0
O  O148  1  0.49243599  0.41337907  0.20759065  1  -1.156787  0  -0.332981  -0.556702  0  2.196741  0
O  O149  1  0.57854079  0.30069537  0.10348258  1  -1.164848  0  -0.328517  -0.573039  0  2.228951  0
O  O150  1  0.87039308  0.42427713  0.79485245  1  -1.165066  0  -0.324198  -0.537881  0  2.17927  0
O  O151  1  0.77933031  0.61252952  0.74255202  1  -1.184829  0  -0.335529  -0.586924  0  2.271495  0
O  O152  1  0.93341204  0.63306329  0.51115873  1  -1.203328  0  -0.341578  -0.600355  0  2.34519  0
O  O153  1  0.96354685  0.72572796  0.36516942  1  -1.170406  0  -0.327334  -0.556907  0  2.234609  0
O  O154  1  0.61338700  0.08695027  0.29224173  1  -1.15346  0  -0.33279  -0.556186  0  2.195562  0
O  O155  1  0.48245954  0.19926701  0.39657992  1  -1.168156  0  -0.328604  -0.572976  0  2.22748  0
O  O156  1  0.58954158  0.07556726  0.70512255  1  -1.161148  0  -0.324079  -0.538036  0  2.177932  0
O  O157  1  0.63434850  0.88733725  0.75749024  1  -1.182098  0  -0.335989  -0.587358  0  2.272374  0
