# generated using pymatgen
data_ZnH14C34(NO8)2
_symmetry_space_group_name_H-M   'P 1'
_cell_length_a   14.73675369
_cell_length_b   16.12091239
_cell_length_c   28.08767094
_cell_angle_alpha   89.49340467
_cell_angle_beta   90.03918896
_cell_angle_gamma   89.43902238
_symmetry_Int_Tables_number   1
_chemical_formula_structural   ZnH14C34(NO8)2
_chemical_formula_sum   'Zn2 H28 C68 N4 O32'
_cell_volume   6672.20297883
_cell_formula_units_Z   2
loop_
 _symmetry_equiv_pos_site_id
 _symmetry_equiv_pos_as_xyz
  1  'x, y, z'
loop_
 _atom_site_type_symbol
 _atom_site_label
 _atom_site_symmetry_multiplicity
 _atom_site_fract_x
 _atom_site_fract_y
 _atom_site_fract_z
 _atom_site_occupancy
 _atom_site_pbe_bader_charge
 _atom_site_pbe_bader_spin_density
 _atom_site_pbe_cm5_charge
 _atom_site_pbe_ddec_charge
 _atom_site_pbe_ddec_spin_density
 _atom_site_pbe_ddec_sum_bond_order
 _atom_site_pbe_magmom
Zn  Zn0  1  0.40583854  0.50005289  0.50005716  1  1.306962  0  0.683342  0.889006  0  2.432085  0
Zn  Zn1  1  0.59654326  0.49749387  0.50022802  1  1.323181  0  0.686517  0.88796  0  2.440826  0
H  H2  1  0.64441640  0.04700695  0.53223749  1  0.090702  0  0.11074  0.107643  0  0.972572  0
H  H3  1  0.52313922  0.29071332  0.87801027  1  0.103885  0  0.114953  0.120344  0  0.980576  0
H  H4  1  0.39168201  0.68433872  0.03465478  1  0.103283  0  0.106143  0.117401  0  1.030872  0
H  H5  1  0.53890338  0.29016889  0.96578041  1  0.110606  0  0.105981  0.116623  0  1.032337  0
H  H6  1  0.62292484  0.94816901  0.44917494  1  0.098361  0  0.110979  0.107413  0  0.973456  0
H  H7  1  0.37719339  0.04996261  0.55065413  1  0.105418  0  0.112092  0.108639  0  0.972589  0
H  H8  1  0.68951141  0.58219288  0.67355480  1  0.639975  0  0.316813  0.355575  0  0.964419  0
H  H9  1  0.69618042  0.56398960  0.32714255  1  0.634687  0  0.318476  0.357567  0  0.95962  0
H  H10  1  0.46733887  0.14457129  0.36181102  1  0.632831  0  0.347745  0.381832  0  0.849901  0
H  H11  1  0.52869985  0.85429005  0.63856096  1  0.623064  0  0.346747  0.380183  0  0.851818  0
H  H12  1  0.98155740  0.56820864  0.39172897  1  0.619354  0  0.348552  0.379219  0  0.85953  0
H  H13  1  0.35570853  0.95126629  0.46765454  1  0.097017  0  0.110764  0.106758  0  0.973812  0
H  H14  1  0.02494658  0.42599673  0.60732426  1  0.620356  0  0.350269  0.38157  0  0.856483  0
H  H15  1  0.02332662  0.36520719  0.41540376  1  0.602175  0  0.349432  0.380339  0  0.857134  0
H  H16  1  0.98053336  0.63565353  0.58346194  1  0.608438  0  0.347712  0.378609  0  0.859349  0
H  H17  1  0.75882547  0.60975002  0.75404682  1  0.614516  0  0.353828  0.394201  0  0.84108  0
H  H18  1  0.77305738  0.57530099  0.24721470  1  0.625318  0  0.354321  0.395126  0  0.841035  0
H  H19  1  0.27214828  0.38846814  0.20823704  1  0.59003  0  0.343898  0.378819  0  0.857388  0
H  H20  1  0.25010695  0.44391525  0.79303358  1  0.619321  0  0.344006  0.378813  0  0.857336  0
H  H21  1  0.44954902  0.76399529  0.94610899  1  0.603766  0  0.346074  0.371254  0  0.863626  0
H  H22  1  0.63836143  0.25851246  0.05433940  1  0.593674  0  0.346078  0.372143  0  0.860132  0
H  H23  1  0.06253510  0.63950616  0.48358001  1  0.083565  0  0.125307  0.148949  0  0.960786  0
H  H24  1  0.93978479  0.36031100  0.51617189  1  0.116511  0  0.125276  0.14898  0  0.960909  0
H  H25  1  0.45831942  0.70300966  0.87737576  1  0.110546  0  0.114244  0.128531  0  0.996429  0
H  H26  1  0.60458326  0.31199764  0.12305918  1  0.095015  0  0.114426  0.128934  0  0.995116  0
H  H27  1  0.36312902  0.45513347  0.35114006  1  0.168621  0  0.119297  0.131652  0  0.985461  0
H  H28  1  0.36386297  0.45810772  0.64926085  1  0.162215  0  0.120555  0.134037  0  0.982398  0
H  H29  1  0.37858244  0.67496564  0.12236667  1  0.102885  0  0.114738  0.120168  0  0.98163  0
C  C30  1  0.49939889  0.66039152  0.49900883  1  1.711168  0  0.217547  0.668508  0  4.243489  0
C  C31  1  0.44941846  0.55895642  0.12718661  1  -0.004353  0  -0.01034  -0.063757  0  4.001719  0
C  C32  1  0.49959702  0.50206209  0.64662840  1  0.087717  0  -0.015416  -0.134246  0  3.899898  0
C  C33  1  0.49829390  0.50047892  0.35365044  1  0.099212  0  -0.014293  -0.130071  0  3.896847  0
C  C34  1  0.46044103  0.56680650  0.02630605  1  0.049132  0  0.003313  0.059495  0  3.958823  0
C  C35  1  0.51486301  0.42130142  0.97410737  1  -0.001496  0  0.00336  0.060817  0  3.954052  0
C  C36  1  0.52654987  0.42332676  0.02569430  1  0.000388  0  -0.006463  -0.0721  0  3.932403  0
C  C37  1  0.47114073  0.57162825  0.97472147  1  0.048217  0  -0.00643  -0.07172  0  3.931024  0
C  C38  1  0.49274868  0.49398885  0.05100284  1  -0.054586  0  0.005968  0.012209  0  3.927417  0
C  C39  1  0.49170638  0.49692980  0.94940341  1  0.077122  0  0.005626  0.011979  0  3.924315  0
C  C40  1  0.41895420  0.63012022  0.05291738  1  -0.037907  0  -0.087504  -0.12664  0  3.959066  0
C  C41  1  0.50892181  0.33741289  0.50112638  1  1.650947  0  0.217595  0.670453  0  4.239234  0
C  C42  1  0.52439053  0.34826667  0.94749202  1  -0.038831  0  -0.087249  -0.126585  0  3.95846  0
C  C43  1  0.41175556  0.62563549  0.10237215  1  -0.045168  0  -0.07212  -0.073058  0  3.983435  0
C  C44  1  0.51617762  0.34805417  0.89800897  1  -0.030274  0  -0.0718  -0.072777  0  3.982246  0
C  C45  1  0.49933101  0.49993634  0.59289532  1  1.580631  0  0.218154  0.612963  0  4.165443  0
C  C46  1  0.49695426  0.50038149  0.40741122  1  1.551956  0  0.218156  0.61445  0  4.158795  0
C  C47  1  0.46207113  0.64567889  0.94764174  1  0.373155  0  0.08919  0.272425  0  4.050941  0
C  C48  1  0.56895879  0.35953852  0.05282502  1  0.409534  0  0.08806  0.270392  0  4.055842  0
C  C49  1  0.48867704  0.02900149  0.45467629  1  -0.009955  0  0.005878  -0.026489  0  3.581914  0
C  C50  1  0.51163093  0.96917866  0.54519400  1  0.001069  0  0.00608  -0.025793  0  3.581558  0
C  C51  1  0.56870452  0.97112036  0.47219945  1  -0.013375  0  -0.057698  -0.084143  0  3.603281  0
C  C52  1  0.49006468  0.49661513  0.89848035  1  0.002014  0  -0.000823  0.023734  0  4.005039  0
C  C53  1  0.43148197  0.02706171  0.52764801  1  -0.032573  0  -0.057544  -0.085133  0  3.600692  0
C  C54  1  0.49967263  0.75005099  0.49800124  1  0.224844  0  -0.045287  -0.172028  0  3.980652  0
C  C55  1  0.50530067  0.24787040  0.50205981  1  0.171337  0  -0.046303  -0.175037  0  3.980319  0
C  C56  1  0.41974680  0.97280553  0.48249723  1  -0.011982  0  -0.059384  -0.085972  0  3.605057  0
C  C57  1  0.58047418  0.02527448  0.51737761  1  -0.022685  0  -0.060117  -0.088797  0  3.610004  0
C  C58  1  0.49949995  0.91321045  0.49925087  1  0.149437  0  0.014297  0.117609  0  3.787848  0
C  C59  1  0.50080856  0.08487236  0.50061188  1  0.090605  0  0.013949  0.11601  0  3.791649  0
C  C60  1  0.49947521  0.82553767  0.49839351  1  -0.565507  0  -0.042762  -0.062828  0  4.104727  0
C  C61  1  0.50226747  0.17248389  0.50151942  1  -0.377832  0  -0.041244  -0.058037  0  4.102311  0
C  C62  1  0.03422764  0.57824424  0.49073589  1  -0.036007  0  -0.077187  -0.234092  0  3.639008  0
C  C63  1  0.49093378  0.49328651  0.10192981  1  0.044202  0  -0.000437  0.0231  0  4.005527  0
C  C64  1  0.96828065  0.42149331  0.50901453  1  -0.086643  0  -0.076522  -0.233999  0  3.639076  0
C  C65  1  0.97164570  0.52757098  0.45642350  1  0.605041  0  0.091527  0.227729  0  3.777586  0
C  C66  1  0.03101712  0.47207600  0.54331870  1  0.635043  0  0.091765  0.225864  0  3.783096  0
C  C67  1  0.97149256  0.55383591  0.53382823  1  0.613855  0  0.091592  0.228209  0  3.773087  0
C  C68  1  0.03107744  0.44590819  0.46592326  1  0.627895  0  0.092761  0.228214  0  3.783883  0
C  C69  1  0.47730444  0.57502386  0.82074895  1  1.294096  0  0.240944  0.45706  0  4.089589  0
C  C70  1  0.53365348  0.42448776  0.17978519  1  1.358525  0  0.241187  0.457927  0  4.09181  0
C  C71  1  0.90881933  0.50209402  0.49962582  1  0.161898  0  0.013085  -0.04115  0  3.795255  0
C  C72  1  0.09366743  0.49773458  0.50006593  1  0.1106  0  0.012167  -0.041118  0  3.795261  0
C  C73  1  0.81309206  0.50349433  0.49943754  1  0.768628  0  0.24007  0.322578  0  3.908457  0
C  C74  1  0.47695978  0.57213684  0.87324906  1  -0.008217  0  -0.008476  -0.034556  0  4.017157  0
C  C75  1  0.18935940  0.49571267  0.50037850  1  0.866064  0  0.240615  0.323438  0  3.909127  0
C  C76  1  0.49922233  0.42098546  0.82073122  1  1.305033  0  0.243091  0.457493  0  4.093425  0
C  C77  1  0.44557738  0.55775544  0.17957832  1  1.373215  0  0.243178  0.458251  0  4.089763  0
C  C78  1  0.41420540  0.47655120  0.72019615  1  0.035055  0  -0.01708  -0.137692  0  3.956366  0
C  C79  1  0.41711062  0.46627133  0.28029016  1  0.035831  0  -0.018542  -0.140393  0  3.960006  0
C  C80  1  0.42196449  0.47717636  0.67034174  1  0.014459  0  -0.049872  -0.033377  0  3.906133  0
C  C81  1  0.42186430  0.47306460  0.33006625  1  -0.01912  0  -0.051402  -0.036893  0  3.915437  0
C  C82  1  0.57454867  0.52975562  0.67371031  1  0.60194  0  0.121567  0.335157  0  3.976391  0
C  C83  1  0.57473885  0.52521635  0.32652740  1  0.618293  0  0.122865  0.33548  0  3.973399  0
C  C84  1  0.57045160  0.52607455  0.72455019  1  -0.044214  0  -0.026912  -0.264421  0  3.919785  0
C  C85  1  0.53133272  0.42624045  0.12724049  1  0.002715  0  -0.00839  -0.031633  0  4.011514  0
C  C86  1  0.57089845  0.52204880  0.27566218  1  0.041043  0  -0.025628  -0.262132  0  3.9118  0
C  C87  1  0.48990149  0.49962036  0.74693593  1  0.43157  0  0.122003  0.225251  0  3.947721  0
C  C88  1  0.49186653  0.49201918  0.25346902  1  0.360418  0  0.121903  0.224894  0  3.946852  0
C  C89  1  0.47587076  0.05274189  0.40388558  1  1.504717  0  0.227476  0.570061  0  4.149148  0
C  C90  1  0.52436866  0.94569144  0.59601813  1  1.545662  0  0.227139  0.568213  0  4.148066  0
C  C91  1  0.64932391  0.54771909  0.75455369  1  1.456572  0  0.232305  0.600415  0  4.07725  0
C  C92  1  0.64670462  0.55154334  0.24554492  1  1.428465  0  0.233539  0.602387  0  4.074571  0
C  C93  1  0.33080685  0.43293060  0.26130241  1  1.500768  0  0.229519  0.595835  0  4.102688  0
C  C94  1  0.32433798  0.45137926  0.73914125  1  1.500745  0  0.230335  0.594154  0  4.101818  0
C  C95  1  0.46572600  0.64533373  0.89782398  1  0.079173  0  -0.091189  -0.227177  0  4.001836  0
C  C96  1  0.57163096  0.36189598  0.10265439  1  0.024761  0  -0.090158  -0.227  0  3.999868  0
C  C97  1  0.50174428  0.42179081  0.87316912  1  0.050104  0  -0.010355  -0.06399  0  4.000939  0
N  N98  1  0.48689183  0.49862769  0.79800930  1  -1.223485  0  -0.237232  -0.23285  0  3.639682  0
N  N99  1  0.48890733  0.49002335  0.20239949  1  -1.178644  0  -0.237617  -0.23389  0  3.644034  0
N  N100  1  0.73439414  0.50309719  0.49939696  1  -1.084044  0  -0.267842  -0.277814  0  3.111231  0
N  N101  1  0.26807016  0.49512441  0.50065200  1  -1.134506  0  -0.269868  -0.28144  0  3.116503  0
O  O102  1  0.42173940  0.62640340  0.50021334  1  -1.139337  0  -0.318672  -0.549482  0  2.259007  0
O  O103  1  0.57249520  0.36950136  0.20310552  1  -1.119548  0  -0.298953  -0.464241  0  2.046443  0
O  O104  1  0.40779700  0.61180375  0.20330381  1  -1.099225  0  -0.28684  -0.449486  0  2.05029  0
O  O105  1  0.50756914  0.35770544  0.79692817  1  -1.112217  0  -0.28414  -0.445126  0  2.054182  0
O  O106  1  0.64695285  0.55873640  0.65025896  1  -1.120657  0  -0.329453  -0.402529  0  2.32065  0
O  O107  1  0.64669231  0.55403911  0.35004925  1  -1.115298  0  -0.326227  -0.398023  0  2.320715  0
O  O108  1  0.46617245  0.00203174  0.37220463  1  -1.118755  0  -0.308111  -0.500769  0  2.033528  0
O  O109  1  0.47605834  0.13609489  0.39614691  1  -1.122191  0  -0.328059  -0.47353  0  2.226237  0
O  O110  1  0.53737733  0.99635559  0.62737532  1  -1.144664  0  -0.306309  -0.497803  0  2.031907  0
O  O111  1  0.51986002  0.86256293  0.60421922  1  -1.125429  0  -0.328892  -0.47323  0  2.227167  0
O  O112  1  0.93367822  0.55288783  0.41403935  1  -1.127581  0  -0.360963  -0.463967  0  2.23467  0
O  O113  1  0.58741494  0.36948374  0.50163178  1  -1.144377  0  -0.318715  -0.547201  0  2.240966  0
O  O114  1  0.07053283  0.44680954  0.58519804  1  -1.135306  0  -0.355497  -0.457512  0  2.244632  0
O  O115  1  0.07004122  0.39514877  0.43266147  1  -1.107318  0  -0.356541  -0.458651  0  2.239877  0
O  O116  1  0.93310263  0.60501346  0.56717301  1  -1.116222  0  -0.360839  -0.464011  0  2.23313  0
O  O117  1  0.66709069  0.52362008  0.79476207  1  -1.124664  0  -0.281011  -0.469053  0  2.088544  0
O  O118  1  0.70841216  0.60205166  0.73180367  1  -1.105807  0  -0.33762  -0.509773  0  2.242735  0
O  O119  1  0.64464707  0.57387961  0.20398868  1  -1.121482  0  -0.28029  -0.46964  0  2.093388  0
O  O120  1  0.72908753  0.55261782  0.26988141  1  -1.115117  0  -0.337884  -0.511769  0  2.2459  0
O  O121  1  0.26198649  0.42462873  0.28524235  1  -1.131691  0  -0.31018  -0.507742  0  2.038839  0
O  O122  1  0.33310243  0.40942153  0.21465775  1  -1.084802  0  -0.337847  -0.487271  0  2.246897  0
O  O123  1  0.26359692  0.42351322  0.71437231  1  -1.141926  0  -0.307383  -0.503581  0  2.039851  0
O  O124  1  0.57661960  0.62433948  0.49879960  1  -1.140098  0  -0.314356  -0.546091  0  2.2541  0
O  O125  1  0.31184610  0.46327604  0.78684795  1  -1.122879  0  -0.338241  -0.488061  0  2.248794  0
O  O126  1  0.45016423  0.72009777  0.97018808  1  -1.10451  0  -0.3377  -0.43116  0  2.30096  0
O  O127  1  0.60943845  0.29379607  0.03028707  1  -1.104475  0  -0.337206  -0.430888  0  2.299731  0
O  O128  1  0.43258738  0.37531299  0.49965784  1  -1.148431  0  -0.316733  -0.553147  0  2.268934  0
O  O129  1  0.42150952  0.50140502  0.57325397  1  -1.160866  0  -0.316099  -0.54962  0  2.300174  0
O  O130  1  0.57252080  0.49344053  0.42874409  1  -1.142194  0  -0.31133  -0.536773  0  2.35117  0
O  O131  1  0.57544957  0.49540816  0.57201171  1  -1.146513  0  -0.311117  -0.533933  0  2.347722  0
O  O132  1  0.41895925  0.50504774  0.42663928  1  -1.155972  0  -0.317051  -0.550435  0  2.289512  0
O  O133  1  0.47018432  0.64014530  0.79755595  1  -1.120197  0  -0.299366  -0.465718  0  2.050185  0
