# generated using pymatgen
data_Zn6H32(C2O)25
_symmetry_space_group_name_H-M   'P 1'
_cell_length_a   18.84951298
_cell_length_b   18.83627035
_cell_length_c   18.95646492
_cell_angle_alpha   109.30833098
_cell_angle_beta   109.81760764
_cell_angle_gamma   109.11625373
_symmetry_Int_Tables_number   1
_chemical_formula_structural   Zn6H32(C2O)25
_chemical_formula_sum   'Zn6 H32 C50 O25'
_cell_volume   5191.98103947
_cell_formula_units_Z   1
loop_
 _symmetry_equiv_pos_site_id
 _symmetry_equiv_pos_as_xyz
  1  'x, y, z'
loop_
 _atom_site_type_symbol
 _atom_site_label
 _atom_site_symmetry_multiplicity
 _atom_site_fract_x
 _atom_site_fract_y
 _atom_site_fract_z
 _atom_site_occupancy
 _atom_site_pbe_bader_charge
 _atom_site_pbe_bader_spin_density
 _atom_site_pbe_cm5_charge
 _atom_site_pbe_ddec_charge
 _atom_site_pbe_ddec_spin_density
 _atom_site_pbe_ddec_sum_bond_order
 _atom_site_pbe_magmom
Zn  Zn0  1  0.49972418  0.44166709  0.44179610  1  1.29304  0  0.732001  0.966859  0  2.081295  0
Zn  Zn1  1  0.50074056  0.55909519  0.55827532  1  1.301514  0  0.733855  0.970001  0  2.072248  0
Zn  Zn2  1  0.93985407  0.44175317  0.99772175  1  1.296972  0  0.733401  0.969443  0  2.076027  0
Zn  Zn3  1  0.05523185  0.55922725  0.99769662  1  1.299214  0  0.73198  0.968531  0  2.072041  0
Zn  Zn4  1  0.94144426  0.00045094  0.44217487  1  1.295789  0  0.734185  0.971411  0  2.070975  0
Zn  Zn5  1  0.05860145  0.99987640  0.55846356  1  1.300445  0  0.733836  0.970833  0  2.067869  0
H  H6  1  0.76020573  0.48341342  0.61769982  1  0.027152  0  0.090514  0.084041  0  0.994001  0
H  H7  1  0.71847870  0.47710251  0.85927255  1  0.016308  0  0.092532  0.094177  0  0.97801  0
H  H8  1  0.72668904  0.62666640  0.78330162  1  0.065483  0  0.110073  0.060838  0  0.943316  0
H  H9  1  0.82848373  0.62622274  0.89419370  1  0.03873  0  0.096298  0.103278  0  0.973773  0
H  H10  1  0.23867883  0.37862109  0.50218678  1  0.09652  0  0.10895  0.114904  0  0.987668  0
H  H11  1  0.12063680  0.26070708  0.49588476  1  0.082936  0  0.108954  0.114782  0  0.989015  0
H  H12  1  0.26488675  0.12502797  0.50527785  1  0.077957  0  0.108381  0.113985  0  0.988843  0
H  H13  1  0.37682830  0.23675860  0.49935513  1  0.097681  0  0.106884  0.111308  0  0.99366  0
H  H14  1  0.37355908  0.63907983  0.37711420  1  0.077369  0  0.109013  0.114747  0  0.987398  0
H  H15  1  0.26161414  0.63899154  0.25814315  1  0.104384  0  0.108466  0.113671  0  0.987873  0
H  H16  1  0.12053941  0.36062872  0.12321594  1  0.05947  0  0.109074  0.115279  0  0.987844  0
H  H17  1  0.68413493  0.38729726  0.60129246  1  0.038161  0  0.094059  0.097584  0  0.973246  0
H  H18  1  0.23869423  0.36079312  0.23623108  1  0.098051  0  0.108966  0.11481  0  0.988324  0
H  H19  1  0.76361670  0.75951385  0.63857875  1  0.096158  0  0.110284  0.120192  0  0.988455  0
H  H20  1  0.88132445  0.87224091  0.63911514  1  0.12282  0  0.10839  0.114422  0  0.988045  0
H  H21  1  0.73575821  0.74147626  0.36156008  1  0.082974  0  0.107564  0.112987  0  0.990185  0
H  H22  1  0.62336153  0.62337919  0.36075660  1  0.079064  0  0.108262  0.114006  0  0.98826  0
H  H23  1  0.13796948  0.37883005  0.87407663  1  0.09242  0  0.108811  0.114287  0  0.988309  0
H  H24  1  0.13861679  0.26071229  0.76338555  1  0.075387  0  0.109231  0.114799  0  0.988185  0
H  H25  1  0.85966307  0.12542062  0.61983999  1  0.089932  0  0.108715  0.115442  0  0.988456  0
H  H26  1  0.85894894  0.23719396  0.73675365  1  0.089822  0  0.106822  0.111309  0  0.99317  0
H  H27  1  0.00183262  0.76527387  0.12485073  1  0.076657  0  0.107531  0.112812  0  0.991935  0
H  H28  1  0.79548986  0.39211194  0.70951658  1  0.023807  0  0.092076  0.090858  0  0.975684  0
H  H29  1  0.99659404  0.87700368  0.23741763  1  0.105484  0  0.108602  0.114602  0  0.988692  0
H  H30  1  0.00323660  0.73847977  0.37777593  1  0.106942  0  0.10871  0.114011  0  0.988694  0
H  H31  1  0.99625288  0.62071088  0.25915565  1  0.077123  0  0.108763  0.114331  0  0.987822  0
H  H32  1  0.87058752  0.49457047  0.73416492  1  0.042833  0  0.090478  0.091194  0  0.989125  0
H  H33  1  0.89277568  0.63146205  0.84446706  1  0.076944  0  0.097182  0.105023  0  0.992465  0
H  H34  1  0.62123589  0.49178394  0.75681823  1  0.051841  0  0.094194  0.095061  0  0.983351  0
H  H35  1  0.59466884  0.39067905  0.67742282  1  0.009328  0  0.093031  0.092146  0  0.975549  0
H  H36  1  0.70085180  0.38279589  0.77795893  1  0.012796  0  0.091217  0.090295  0  0.978647  0
H  H37  1  0.83410140  0.62531257  0.70969225  1  0.581622  0  0.314224  0.341991  0  0.919766  0
C  C38  1  0.38302362  0.38241815  0.50108539  1  1.553508  0  0.220699  0.599012  0  4.153442  0
C  C39  1  0.80727909  0.50060399  0.81046813  1  0.044656  0  -0.016612  0.033486  0  3.811087  0
C  C40  1  0.82762187  0.59429696  0.83345506  1  -0.078817  0  -0.160822  -0.261691  0  3.849758  0
C  C41  1  0.71696982  0.45032782  0.79744789  1  0.01905  0  -0.16253  -0.17632  0  3.883218  0
C  C42  1  0.24295119  0.32201981  0.50118657  1  0.024598  0  -0.080638  -0.097275  0  3.971226  0
C  C43  1  0.17791486  0.25705748  0.49849518  1  -0.047112  0  -0.08102  -0.095889  0  3.971826  0
C  C44  1  0.18632519  0.18642888  0.50066793  1  -0.061392  0  -0.012251  -0.017239  0  3.956441  0
C  C45  1  0.25899647  0.17995618  0.50293357  1  0.013021  0  -0.080798  -0.095282  0  3.974318  0
C  C46  1  0.32145744  0.24232964  0.50053393  1  -0.037932  0  -0.082105  -0.098695  0  3.978  0
C  C47  1  0.31440592  0.31430086  0.50098704  1  -0.057898  0  -0.011668  -0.014851  0  3.953206  0
C  C48  1  0.31876826  0.57854401  0.32038449  1  0.011353  0  -0.080668  -0.095215  0  3.970492  0
C  C49  1  0.62086351  0.50146603  0.61739805  1  1.55752  0  0.227843  0.6074  0  4.092079  0
C  C50  1  0.25633187  0.57847232  0.25481760  1  -0.016168  0  -0.080146  -0.093525  0  3.969289  0
C  C51  1  0.18456968  0.49978099  0.18412320  1  -0.040234  0  -0.012223  -0.021868  0  3.962611  0
C  C52  1  0.17706170  0.42117323  0.17814906  1  -0.018114  0  -0.081013  -0.095216  0  3.973139  0
C  C53  1  0.24206911  0.42123839  0.24117096  1  0.000944  0  -0.081322  -0.095685  0  3.974487  0
C  C54  1  0.31247985  0.49991290  0.31316032  1  -0.037514  0  -0.011209  -0.019858  0  3.963766  0
C  C55  1  0.75874998  0.75582169  0.57838088  1  -0.029254  0  -0.079164  -0.093054  0  3.959439  0
C  C56  1  0.82374121  0.81839360  0.57863841  1  -0.044841  0  -0.08093  -0.0947  0  3.969443  0
C  C57  1  0.81485438  0.81355204  0.50040402  1  -0.044528  0  -0.013821  -0.02538  0  3.966216  0
C  C58  1  0.74188100  0.74409747  0.42174365  1  -0.025234  0  -0.080991  -0.09345  0  3.975477  0
C  C59  1  0.67921695  0.67907027  0.42130056  1  -0.000486  0  -0.08304  -0.099556  0  3.977257  0
C  C60  1  0.61736669  0.61796769  0.49916916  1  1.569278  0  0.221561  0.600718  0  4.15286  0
C  C61  1  0.68667312  0.68556381  0.49960931  1  -0.042522  0  -0.010701  -0.017257  0  3.959537  0
C  C62  1  0.99760514  0.38285198  0.87929890  1  1.548318  0  0.220685  0.601188  0  4.153817  0
C  C63  1  0.87793533  0.50155284  0.88097622  1  1.544278  0  0.227697  0.598014  0  4.077749  0
C  C64  1  0.99870280  0.61861527  0.11673953  1  1.514566  0  0.22116  0.600345  0  4.154217  0
C  C65  1  0.11601338  0.49950884  0.11515985  1  1.538153  0  0.221658  0.602057  0  4.153525  0
C  C66  1  0.00025630  0.88245419  0.38264813  1  1.547648  0  0.22022  0.600379  0  4.154243  0
C  C67  1  0.11794738  0.11812824  0.50056508  1  1.554943  0  0.21935  0.597223  0  4.152659  0
C  C68  1  0.99943766  0.11821443  0.61727305  1  1.523506  0  0.220814  0.600055  0  4.152454  0
C  C69  1  0.88295779  0.88214996  0.50063448  1  1.551364  0  0.219591  0.599526  0  4.15283  0
C  C70  1  0.07743679  0.32222597  0.81906386  1  -0.032291  0  -0.080453  -0.095731  0  3.971811  0
C  C71  1  0.38073308  0.49977385  0.38203942  1  1.528984  0  0.220604  0.599154  0  4.155861  0
C  C72  1  0.07779095  0.25713750  0.75727120  1  -0.053556  0  -0.080721  -0.095641  0  3.969558  0
C  C73  1  0.99916372  0.18657626  0.68514104  1  0.039752  0  -0.011443  -0.016054  0  3.953212  0
C  C74  1  0.92015484  0.18024347  0.67663115  1  -0.031676  0  -0.080943  -0.097461  0  3.973406  0
C  C75  1  0.91980488  0.24271069  0.74097762  1  -0.031858  0  -0.081937  -0.097193  0  3.977327  0
C  C76  1  0.99841820  0.31465889  0.81176049  1  -0.005066  0  -0.011736  -0.017493  0  3.957094  0
C  C77  1  0.00033212  0.75918692  0.17959266  1  -0.025453  0  -0.081856  -0.097881  0  3.978247  0
C  C78  1  0.99832292  0.82154721  0.24240025  1  -0.006486  0  -0.08115  -0.095156  0  3.975096  0
C  C79  1  0.00001102  0.81424190  0.31413343  1  -0.079344  0  -0.011731  -0.020709  0  3.961285  0
C  C80  1  0.00119758  0.74283657  0.32129515  1  0.004146  0  -0.080125  -0.09329  0  3.970037  0
C  C81  1  0.99813690  0.67795447  0.25594629  1  -0.058625  0  -0.080374  -0.095454  0  3.96945  0
C  C82  1  0.73421959  0.45436994  0.65121946  1  -0.036898  0  -0.164627  -0.175555  0  3.89787  0
C  C83  1  0.99896183  0.68653332  0.18548506  1  0.021769  0  -0.012304  -0.01804  0  3.960006  0
C  C84  1  0.80619753  0.45766386  0.72473895  1  -0.039909  0  -0.160135  -0.180043  0  3.867119  0
C  C85  1  0.76029341  0.59557013  0.75973998  1  0.47629  0  0.001013  0.210954  0  3.793089  0
C  C86  1  0.64904847  0.45568759  0.72859737  1  -0.03052  0  -0.156699  -0.170587  0  3.866658  0
C  C87  1  0.69091772  0.50120097  0.68719933  1  0.013202  0  -0.021879  -0.05085  0  3.807667  0
O  O88  1  0.42437626  0.35865374  0.46590779  1  -1.151637  0  -0.317422  -0.553762  0  2.269926  0
O  O89  1  0.06164828  0.45996167  0.92047420  1  -1.155818  0  -0.316969  -0.554795  0  2.267125  0
O  O90  1  0.85577107  0.46372395  0.92095276  1  -1.158075  0  -0.31322  -0.548481  0  2.294823  0
O  O91  1  0.95513892  0.53987638  0.89467568  1  -1.158078  0  -0.317804  -0.555278  0  2.284595  0
O  O92  1  0.96373821  0.54147245  0.10404444  1  -1.144377  0  -0.31766  -0.555516  0  2.268368  0
O  O93  1  0.03358632  0.64261726  0.07546134  1  -1.149531  0  -0.317745  -0.553129  0  2.273033  0
O  O94  1  0.03939365  0.43431505  0.07313172  1  -1.157913  0  -0.316832  -0.552288  0  2.271962  0
O  O95  1  0.13859350  0.56428976  0.10297634  1  -1.149172  0  -0.316204  -0.552784  0  2.273293  0
O  O96  1  0.96571371  0.92518171  0.35994525  1  -1.147471  0  -0.316894  -0.553237  0  2.270521  0
O  O97  1  0.03490035  0.89335873  0.45896368  1  -1.148929  0  -0.316122  -0.552885  0  2.268004  0
O  O98  1  0.04111025  0.10700929  0.46620206  1  -1.150734  0  -0.315367  -0.551769  0  2.271243  0
O  O99  1  0.39543136  0.45948376  0.53629580  1  -1.150475  0  -0.317114  -0.55402  0  2.266697  0
O  O100  1  0.14113108  0.07553079  0.53486841  1  -1.151553  0  -0.316815  -0.552428  0  2.270944  0
O  O101  1  0.93393784  0.07603723  0.54079949  1  -1.155886  0  -0.316717  -0.553404  0  2.270832  0
O  O102  1  0.06501516  0.10674709  0.64032907  1  -1.146236  0  -0.316096  -0.553042  0  2.268504  0
O  O103  1  0.85974714  0.89389082  0.43557291  1  -1.15065  0  -0.316567  -0.553036  0  2.273163  0
O  O104  1  0.95984381  0.92449465  0.56584646  1  -1.155581  0  -0.316428  -0.55244  0  2.271665  0
O  O105  1  0.60545969  0.46318414  0.53998312  1  -1.152458  0  -0.312904  -0.548384  0  2.298035  0
O  O106  1  0.58093614  0.53881398  0.64139009  1  -1.159269  0  -0.316396  -0.55859  0  2.29009  0
O  O107  1  0.57544507  0.54104673  0.43474884  1  -1.155783  0  -0.319196  -0.557032  0  2.266053  0
O  O108  1  0.60469852  0.64215086  0.56303456  1  -1.145788  0  -0.31233  -0.543816  0  2.27807  0
O  O109  1  0.39275955  0.43465326  0.35948139  1  -1.144742  0  -0.31747  -0.552549  0  2.273718  0
O  O110  1  0.42210450  0.56450193  0.45839901  1  -1.154533  0  -0.315232  -0.550357  0  2.27024  0
O  O111  1  0.93281006  0.35913626  0.89113951  1  -1.149518  0  -0.317546  -0.555419  0  2.271751  0
O  O112  1  0.79949863  0.64696721  0.72809841  1  -1.104042  0  -0.413571  -0.512174  0  2.158163  0
