# generated using pymatgen
data_CoH14C22(N3O)4
_symmetry_space_group_name_H-M   'P 1'
_cell_length_a   10.46358485
_cell_length_b   12.79332586
_cell_length_c   15.12830858
_cell_angle_alpha   90.00021856
_cell_angle_beta   89.99930360
_cell_angle_gamma   105.14382263
_symmetry_Int_Tables_number   1
_chemical_formula_structural   CoH14C22(N3O)4
_chemical_formula_sum   'Co2 H28 C44 N24 O8'
_cell_volume   1954.80995075
_cell_formula_units_Z   2
loop_
 _symmetry_equiv_pos_site_id
 _symmetry_equiv_pos_as_xyz
  1  'x, y, z'
loop_
 _atom_site_type_symbol
 _atom_site_label
 _atom_site_symmetry_multiplicity
 _atom_site_fract_x
 _atom_site_fract_y
 _atom_site_fract_z
 _atom_site_occupancy
 _atom_site_pbe_bader_charge
 _atom_site_pbe_bader_spin_density
 _atom_site_pbe_cm5_charge
 _atom_site_pbe_ddec_charge
 _atom_site_pbe_ddec_spin_density
 _atom_site_pbe_ddec_sum_bond_order
 _atom_site_pbe_magmom
Co  Co0  1  0.99999805  0.99999828  0.50000114  1  1.279805  2.59746  0.66775  0.804524  2.814203  2.624773  2.582
Co  Co1  1  0.50000049  0.49999823  0.00000005  1  1.279844  2.597449  0.667814  0.80463  2.814207  2.624635  2.582
H  H2  1  0.48333201  0.47963869  0.22210687  1  0.149397  0.00029  0.139758  0.110952  -1.1e-05  0.974129  0.0
H  H3  1  0.01668910  0.02037308  0.72210382  1  0.149234  0.00029  0.139733  0.110986  -1.1e-05  0.97418  0.0
H  H4  1  0.51667344  0.52036392  0.77789663  1  0.149104  0.00029  0.139712  0.110903  -1.1e-05  0.974165  0.0
H  H5  1  0.98330922  0.97963431  0.27790562  1  0.149138  0.00029  0.139733  0.110946  -1.1e-05  0.97415  0.0
H  H6  1  0.24009253  0.60268209  0.05358428  1  0.198038  0.000342  0.138504  0.11559  -2.5e-05  1.029294  0.0
H  H7  1  0.25990721  0.89731640  0.55358307  1  0.197982  0.000342  0.138499  0.115618  -2.4e-05  1.029257  0.0
H  H8  1  0.75991577  0.39731732  0.94641392  1  0.198539  0.000341  0.138499  0.115577  -2.5e-05  1.029281  0.0
H  H9  1  0.74007876  0.10267877  0.44641844  1  0.19825  0.000342  0.138488  0.115548  -2.5e-05  1.02919  0.0
H  H10  1  0.02723706  0.59150438  0.10594857  1  0.055751  -6.8e-05  0.111531  0.119292  -9.4e-05  1.014692  0.0
H  H11  1  0.47276052  0.90849011  0.60594695  1  0.055741  -6.8e-05  0.111554  0.119322  -9.4e-05  1.014607  0.0
H  H12  1  0.97276378  0.40849254  0.89405030  1  0.055816  -6.8e-05  0.111531  0.119301  -9.4e-05  1.01467  0.0
H  H13  1  0.52723588  0.09151727  0.39405523  1  0.055708  -6.8e-05  0.111567  0.119322  -9.4e-05  1.014595  0.0
H  H14  1  0.88538298  0.78312497  0.29817897  1  0.124586  0.000277  0.115315  0.129654  0.000108  1.007204  0.0
H  H15  1  0.61461534  0.71686939  0.79817838  1  0.122213  0.000278  0.11531  0.12973  0.000108  1.007128  0.0
H  H16  1  0.11461885  0.21687519  0.70181528  1  0.124554  0.000277  0.115318  0.129704  0.000108  1.007121  0.0
H  H17  1  0.38538412  0.28313237  0.20182115  1  0.122227  0.000278  0.115326  0.129798  0.000108  1.007102  0.0
H  H18  1  0.23739713  0.67823219  0.35217299  1  0.138639  0.000149  0.11601  0.132342  5.2e-05  1.003005  0.0
H  H19  1  0.26260071  0.82176495  0.85217217  1  0.138731  0.000149  0.115981  0.132278  5.2e-05  1.003002  0.0
H  H20  1  0.76260233  0.32176956  0.64782588  1  0.138622  0.000149  0.116006  0.132324  5.2e-05  1.002986  0.0
H  H21  1  0.73739459  0.17822950  0.14783199  1  0.138695  0.000149  0.116041  0.132338  5.2e-05  1.002924  0.0
H  H22  1  0.78701851  0.51501573  0.09299804  1  0.128735  0.000256  0.144288  0.113897  -0.000202  0.990623  0.0
H  H23  1  0.71298053  0.98497845  0.59299552  1  0.128843  0.000256  0.144303  0.113942  -0.000201  0.990678  0.0
H  H24  1  0.21298304  0.48498039  0.90700017  1  0.128808  0.000255  0.144273  0.113896  -0.000202  0.990687  0.0
H  H25  1  0.28701577  0.01501924  0.40699939  1  0.12887  0.000256  0.144301  0.113923  -0.000201  0.990635  0.0
H  H26  1  0.59340544  0.76283814  0.07161219  1  0.167536  0.000226  0.145482  0.121538  -7.4e-05  0.962219  0.0
H  H27  1  0.90660143  0.73715851  0.57161982  1  0.167773  0.000226  0.145452  0.121522  -7.4e-05  0.962217  0.0
H  H28  1  0.40659395  0.23715715  0.92838073  1  0.167805  0.000226  0.145474  0.121576  -7.4e-05  0.962272  0.0
H  H29  1  0.09338908  0.26283590  0.42838434  1  0.167769  0.000226  0.145417  0.121467  -7.4e-05  0.962255  0.0
C  C30  1  0.40561990  0.51448346  0.19874905  1  0.964985  -0.000683  0.148909  0.1487  -0.001527  3.98148  0.0
C  C31  1  0.09439369  0.98552498  0.69874818  1  0.965049  -0.000682  0.148995  0.148678  -0.001526  3.981656  0.0
C  C32  1  0.59438215  0.48551428  0.80125312  1  0.965403  -0.000683  0.149012  0.14879  -0.001527  3.981374  0.0
C  C33  1  0.90560363  0.01447917  0.30125994  1  0.965191  -0.000683  0.148964  0.148801  -0.001526  3.981682  0.0
C  C34  1  0.27940926  0.57057974  0.11070942  1  0.964004  -0.002965  0.159491  0.09073  -0.004035  3.891007  -0.001
C  C35  1  0.22059406  0.92942126  0.61070732  1  0.963931  -0.002962  0.159459  0.090651  -0.004032  3.890956  -0.001
C  C36  1  0.72059446  0.42941721  0.88929209  1  0.963468  -0.002963  0.159443  0.090693  -0.004032  3.890961  -0.001
C  C37  1  0.77939578  0.07057717  0.38929816  1  0.963309  -0.002964  0.159401  0.090785  -0.004033  3.890978  -0.001
C  C38  1  0.14421252  0.63147292  0.22549754  1  0.302593  0.000921  0.105602  0.176063  0.000456  4.021784  0.001
C  C39  1  0.35578708  0.86852573  0.72549345  1  0.302244  0.000921  0.105666  0.176119  0.000456  4.021649  0.001
C  C40  1  0.85579123  0.36852725  0.77450067  1  0.30266  0.000921  0.105601  0.175988  0.000456  4.021898  0.001
C  C41  1  0.64421238  0.13147602  0.27451203  1  0.302553  0.000922  0.105743  0.176297  0.000456  4.021535  0.001
C  C42  1  0.03723708  0.63119638  0.17016661  1  0.001774  -0.00081  -0.090697  -0.259987  -0.000926  3.970098  0.0
C  C43  1  0.46275912  0.86879735  0.67016428  1  0.001528  -0.000811  -0.090741  -0.260074  -0.000927  3.970167  0.0
C  C44  1  0.96276596  0.36880460  0.82983027  1  0.001901  -0.000809  -0.090675  -0.259949  -0.000924  3.970227  0.0
C  C45  1  0.53723433  0.13120354  0.32983723  1  0.001449  -0.000812  -0.090855  -0.26022  -0.000929  3.97018  0.0
C  C46  1  0.94364289  0.68411260  0.19851574  1  0.281083  0.000837  0.099747  0.163329  0.000378  4.047176  0.001
C  C47  1  0.55635696  0.81588411  0.69851331  1  0.281023  0.000837  0.099735  0.163295  0.000378  4.047374  0.001
C  C48  1  0.05636015  0.31588838  0.80147917  1  0.280763  0.000837  0.099817  0.163504  0.000378  4.047175  0.001
C  C49  1  0.44364232  0.18412330  0.30148820  1  0.281312  0.000837  0.099842  0.163563  0.000378  4.047327  0.001
C  C50  1  0.95762777  0.73993142  0.27852537  1  0.033984  -0.000363  -0.080453  -0.1799  -0.000548  3.927176  0.0
C  C51  1  0.54237210  0.76006374  0.77851760  1  0.036503  -0.000365  -0.080428  -0.179952  -0.000549  3.927262  0.0
C  C52  1  0.04237672  0.26007119  0.72147151  1  0.03395  -0.000363  -0.080486  -0.180061  -0.000547  3.927136  0.0
C  C53  1  0.45762498  0.23993960  0.22148260  1  0.036113  -0.000366  -0.080444  -0.180156  -0.00055  3.927265  0.0
C  C54  1  0.06441591  0.73788828  0.33337527  1  0.012217  0.005864  -0.006017  0.019211  0.002904  3.961275  0.005
C  C55  1  0.43558737  0.76211615  0.83337018  1  0.012224  0.005865  -0.005958  0.019244  0.002904  3.960969  0.005
C  C56  1  0.93558621  0.26211592  0.66662096  1  0.011938  0.005864  -0.005998  0.01937  0.002904  3.960828  0.005
C  C57  1  0.56441567  0.23788482  0.16663068  1  0.012358  0.005865  -0.005889  0.019403  0.002904  3.960949  0.005
C  C58  1  0.15622838  0.68137202  0.30817634  1  0.042377  0.00092  -0.076491  -0.175832  0.000239  3.911  0.001
C  C59  1  0.34376881  0.81862668  0.80816955  1  0.04289  0.000919  -0.076593  -0.175852  0.000239  3.910824  0.001
C  C60  1  0.84377182  0.31863216  0.69182385  1  0.042952  0.000921  -0.076519  -0.175882  0.000241  3.910919  0.001
C  C61  1  0.65622653  0.18137100  0.19183263  1  0.042991  0.000919  -0.076702  -0.176  0.000239  3.910769  0.001
C  C62  1  0.76259025  0.59210858  0.09671646  1  0.999558  -0.005325  0.160158  0.087037  -0.006762  3.902221  -0.003
C  C63  1  0.73740776  0.90788559  0.59671944  1  0.999609  -0.005319  0.160205  0.086991  -0.006755  3.90219  -0.003
C  C64  1  0.23740988  0.40788914  0.90327976  1  0.999507  -0.005325  0.160183  0.086995  -0.006762  3.902172  -0.003
C  C65  1  0.26258829  0.09211129  0.40328010  1  0.999495  -0.005321  0.160215  0.087104  -0.006757  3.902069  -0.003
C  C66  1  0.66567843  0.71885594  0.08915971  1  0.951146  -0.001282  0.153288  0.150927  -0.002066  3.953538  -0.001
C  C67  1  0.83432696  0.78114313  0.58916478  1  0.951344  -0.001279  0.153478  0.15112  -0.002063  3.953661  -0.001
C  C68  1  0.33432575  0.28113939  0.91083585  1  0.951302  -0.001284  0.153353  0.150959  -0.002068  3.953532  -0.001
C  C69  1  0.16566505  0.21885613  0.41083938  1  0.951296  -0.001281  0.15355  0.151309  -0.002065  3.953721  -0.001
C  C70  1  0.08432895  0.79863468  0.42029049  1  1.593927  0.001342  0.19985  0.567816  0.000291  4.244009  0.002
C  C71  1  0.41567395  0.70136418  0.92028735  1  1.593529  0.001339  0.199875  0.567801  0.000289  4.243383  0.002
C  C72  1  0.91567750  0.20137117  0.57970442  1  1.593891  0.001345  0.199825  0.56762  0.000293  4.243487  0.002
C  C73  1  0.58433027  0.29863439  0.07971351  1  1.593474  0.00134  0.199888  0.567784  0.000289  4.243612  0.002
N  N74  1  0.24374237  0.58323937  0.19530332  1  -0.86171  0.001509  -0.117827  0.133864  0.000541  3.744325  0.001
N  N75  1  0.25625513  0.91676005  0.69530088  1  -0.861442  0.00151  -0.117759  0.133916  0.000542  3.744308  0.001
N  N76  1  0.75626021  0.41676322  0.80469687  1  -0.861512  0.00151  -0.117887  0.13382  0.000541  3.744256  0.001
N  N77  1  0.74373762  0.08324164  0.30470328  1  -0.861769  0.001511  -0.117686  0.133815  0.000542  3.74454  0.001
N  N78  1  0.32483650  0.54817002  0.25260477  1  -0.670223  0.005042  -0.222792  -0.262407  0.002595  3.06793  0.004
N  N79  1  0.17516965  0.95183599  0.75260444  1  -0.670302  0.005039  -0.222811  -0.262357  0.002594  3.068045  0.004
N  N80  1  0.67516701  0.45182935  0.74739542  1  -0.670217  0.005042  -0.222761  -0.26235  0.002595  3.067816  0.004
N  N81  1  0.82482959  0.04816819  0.24740104  1  -0.669844  0.00504  -0.222819  -0.262352  0.002594  3.068014  0.004
N  N82  1  0.38188994  0.52717419  0.11066530  1  -1.18468  0.053772  -0.333875  -0.319483  0.029129  3.529605  0.045
N  N83  1  0.11811966  0.97283172  0.61066353  1  -1.184419  0.053761  -0.333908  -0.319476  0.029123  3.529657  0.045
N  N84  1  0.61811889  0.47283007  0.88933621  1  -1.184659  0.053773  -0.33388  -0.319496  0.02913  3.529638  0.045
N  N85  1  0.88187330  0.02716756  0.38934327  1  -1.184499  0.053761  -0.333866  -0.319595  0.029123  3.529833  0.045
N  N86  1  0.82998091  0.67745541  0.14542500  1  -0.850677  0.001097  -0.117711  0.132474  0.00026  3.767368  0.001
N  N87  1  0.67001888  0.82253801  0.64542363  1  -0.850531  0.001098  -0.117722  0.132586  0.000261  3.767386  0.001
N  N88  1  0.17002234  0.32254314  0.85457255  1  -0.850872  0.001096  -0.117702  0.132454  0.00026  3.767379  0.001
N  N89  1  0.32997195  0.17746367  0.35457788  1  -0.850384  0.001097  -0.117709  0.132531  0.000261  3.767282  0.001
N  N90  1  0.76847419  0.75929545  0.14159747  1  -0.660031  0.004316  -0.219137  -0.255968  0.002228  3.058185  0.003
N  N91  1  0.73152904  0.74069962  0.64160127  1  -0.659911  0.004316  -0.219209  -0.256111  0.002227  3.058387  0.003
N  N92  1  0.23152640  0.24070066  0.85839479  1  -0.659944  0.004317  -0.219167  -0.256015  0.002228  3.058235  0.003
N  N93  1  0.26846563  0.25930209  0.35840156  1  -0.659816  0.004316  -0.219227  -0.256198  0.002227  3.058446  0.003
N  N94  1  0.65794410  0.61577167  0.06029581  1  -1.181206  0.047601  -0.337846  -0.319378  0.025088  3.576246  0.043
N  N95  1  0.84206009  0.88422494  0.56030048  1  -1.181804  0.047605  -0.337915  -0.31943  0.025092  3.576256  0.043
N  N96  1  0.34205841  0.38422445  0.93970042  1  -1.181757  0.047601  -0.337875  -0.31939  0.025086  3.576107  0.043
N  N97  1  0.15793308  0.11577191  0.43969839  1  -1.182053  0.047609  -0.337967  -0.319605  0.025094  3.576461  0.043
O  O98  1  0.04720560  0.88728905  0.41874600  1  -1.176748  0.077807  -0.331153  -0.588091  0.040318  2.397466  0.066
O  O99  1  0.45278887  0.61270408  0.91874887  1  -1.176914  0.077827  -0.331231  -0.588206  0.04033  2.397398  0.066
O  O100  1  0.95278562  0.11270455  0.58125486  1  -1.176829  0.077817  -0.33124  -0.588182  0.040323  2.397379  0.066
O  O101  1  0.54720959  0.38729443  0.08124868  1  -1.176837  0.077839  -0.331245  -0.58823  0.040336  2.397434  0.066
O  O102  1  0.13742557  0.76182166  0.48283454  1  -1.164977  0.010185  -0.337854  -0.554662  0.004568  2.077141  0.009
O  O103  1  0.36259688  0.73818229  0.98284188  1  -1.164922  0.010183  -0.337879  -0.554629  0.004566  2.076689  0.009
O  O104  1  0.86260803  0.23819171  0.51715375  1  -1.165138  0.010189  -0.337745  -0.554441  0.004569  2.076693  0.009
O  O105  1  0.63741141  0.26181712  0.01716096  1  -1.164921  0.010184  -0.337912  -0.554659  0.004566  2.076869  0.009
