# generated using pymatgen
data_ZnH5C2N11O3
_symmetry_space_group_name_H-M   'P 1'
_cell_length_a   6.70862243
_cell_length_b   10.23079669
_cell_length_c   14.00196546
_cell_angle_alpha   89.99995245
_cell_angle_beta   102.16765049
_cell_angle_gamma   89.99999982
_symmetry_Int_Tables_number   1
_chemical_formula_structural   ZnH5C2N11O3
_chemical_formula_sum   'Zn4 H20 C8 N44 O12'
_cell_volume   939.42939669
_cell_formula_units_Z   4
loop_
 _symmetry_equiv_pos_site_id
 _symmetry_equiv_pos_as_xyz
  1  'x, y, z'
loop_
 _atom_site_type_symbol
 _atom_site_label
 _atom_site_symmetry_multiplicity
 _atom_site_fract_x
 _atom_site_fract_y
 _atom_site_fract_z
 _atom_site_occupancy
 _atom_site_hle17_bader_spin_density
 _atom_site_hle17_ddec_charge
 _atom_site_hle17_ddec_spin_density
 _atom_site_hle17_ddec_sum_bond_order
 _atom_site_hle17_magmom
 _atom_site_hse06_10hf_bader_spin_density
 _atom_site_hse06_10hf_ddec_charge
 _atom_site_hse06_10hf_ddec_spin_density
 _atom_site_hse06_10hf_ddec_sum_bond_order
 _atom_site_hse06_10hf_magmom
 _atom_site_hse06_bader_spin_density
 _atom_site_hse06_ddec_charge
 _atom_site_hse06_ddec_spin_density
 _atom_site_hse06_ddec_sum_bond_order
 _atom_site_hse06_magmom
 _atom_site_pbe_bader_spin_density
 _atom_site_pbe_cm5_charge
 _atom_site_pbe_ddec_charge
 _atom_site_pbe_ddec_spin_density
 _atom_site_pbe_ddec_sum_bond_order
 _atom_site_pbe_magmom
Zn  Zn0  1  0.99079924  0.85938524  0.74180239  1  0  0.963112  0  1.900727  0  0  0.758256  0  2.383661  0  0  0.800977  0  2.334044  0  0  0.743683  0.727812  0  2.418049  0
Zn  Zn1  1  0.50920243  0.35938605  0.75819725  1  0  0.963134  0  1.900766  0  0  0.758224  0  2.383696  0  0  0.800955  0  2.334098  0  0  0.743684  0.727799  0  2.418094  0
Zn  Zn2  1  0.00920184  0.14061354  0.25819755  1  0  0.96309  0  1.900776  0  0  0.758218  0  2.383683  0  0  0.800946  0  2.334069  0  0  0.743679  0.727786  0  2.418091  0
Zn  Zn3  1  0.49079865  0.64061371  0.24180269  1  0  0.963105  0  1.900792  0  0  0.758211  0  2.38373  0  0  0.800938  0  2.334111  0  0  0.743672  0.727772  0  2.418125  0
H  H4  1  0.49007492  0.85458223  0.51141898  1  0  0.318172  0  0.90003  0  0  0.28135  0  0.992796  0  0  0.290526  0  0.984113  0  0  0.334165  0.274634  0  0.999376  0
H  H5  1  0.00992836  0.35458375  0.98858183  1  0  0.31816  0  0.900029  0  0  0.281351  0  0.992784  0  0  0.290526  0  0.984102  0  0  0.334167  0.274635  0  0.999363  0
H  H6  1  0.50992767  0.14541557  0.48858183  1  0  0.318155  0  0.900036  0  0  0.281349  0  0.992785  0  0  0.290524  0  0.984102  0  0  0.334162  0.274633  0  0.999364  0
H  H7  1  0.99007271  0.64541796  0.01141883  1  0  0.318165  0  0.900003  0  0  0.281358  0  0.992753  0  0  0.290534  0  0.98407  0  0  0.334159  0.274642  0  0.999332  0
H  H8  1  0.36884136  0.62528823  0.56346858  1  0  0.356382  0  0.871231  0  0  0.337769  0  0.931616  0  0  0.345109  0  0.925627  0  0  0.313751  0.332572  0  0.935784  0
H  H9  1  0.13115743  0.12528981  0.93653118  1  0  0.356374  0  0.871279  0  0  0.337768  0  0.93166  0  0  0.345109  0  0.925671  0  0  0.313729  0.33257  0  0.935834  0
H  H10  1  0.63115819  0.37470957  0.43653120  1  0  0.356404  0  0.87123  0  0  0.337802  0  0.931604  0  0  0.345142  0  0.925616  0  0  0.313763  0.332603  0  0.935776  0
H  H11  1  0.86884059  0.87471190  0.06346915  1  0  0.356392  0  0.871241  0  0  0.337785  0  0.931615  0  0  0.345126  0  0.925626  0  0  0.31377  0.33259  0  0.935783  0
H  H12  1  0.17702383  0.62281819  0.63445378  1  0  0.335375  0  0.931891  0  0  0.300899  0  1.026092  0  0  0.309552  0  1.018245  0  0  0.299798  0.294707  0  1.031663  0
H  H13  1  0.32297646  0.12281888  0.86554757  1  0  0.335335  0  0.931925  0  0  0.300831  0  1.02615  0  0  0.309486  0  1.018296  0  0  0.299767  0.294641  0  1.03172  0
H  H14  1  0.82297723  0.37718156  0.36554758  1  0  0.335278  0  0.932013  0  0  0.300773  0  1.026241  0  0  0.309428  0  1.018387  0  0  0.299729  0.294581  0  1.03181  0
H  H15  1  0.67702156  0.87718088  0.13445277  1  0  0.335357  0  0.931921  0  0  0.300889  0  1.02611  0  0  0.309544  0  1.018261  0  0  0.2998  0.294699  0  1.03168  0
H  H16  1  0.48457753  0.64436380  0.85002165  1  0  0.3203  0  0.944589  0  0  0.289644  0  1.035551  0  0  0.297609  0  1.028248  0  0  0.293454  0.284288  0  1.040094  0
H  H17  1  0.01542582  0.14436376  0.64997858  1  0  0.320278  0  0.944662  0  0  0.289616  0  1.035632  0  0  0.297581  0  1.028327  0  0  0.293447  0.284259  0  1.040175  0
H  H18  1  0.51542201  0.35563595  0.14997885  1  0  0.32032  0  0.944598  0  0  0.289665  0  1.035558  0  0  0.29763  0  1.028254  0  0  0.293461  0.284308  0  1.040102  0
H  H19  1  0.98457678  0.85563600  0.35002152  1  0  0.320295  0  0.944588  0  0  0.289633  0  1.035568  0  0  0.297596  0  1.028262  0  0  0.293447  0.284276  0  1.040111  0
H  H20  1  0.60345121  0.79294755  0.83132385  1  0  0.330724  0  0.935543  0  0  0.299444  0  1.025729  0  0  0.307958  0  1.01753  0  0  0.294977  0.292979  0  1.032233  0
H  H21  1  0.89654894  0.29294650  0.66867640  1  0  0.330653  0  0.935581  0  0  0.299354  0  1.025775  0  0  0.307868  0  1.017575  0  0  0.294949  0.292888  0  1.032278  0
H  H22  1  0.39654833  0.20705318  0.16867736  1  0  0.330709  0  0.935553  0  0  0.299423  0  1.025756  0  0  0.307937  0  1.017556  0  0  0.294973  0.292957  0  1.03226  0
H  H23  1  0.10345214  0.70705325  0.33132355  1  0  0.330652  0  0.935579  0  0  0.299354  0  1.025774  0  0  0.307868  0  1.017571  0  0  0.294946  0.292888  0  1.032277  0
C  C24  1  0.72016570  0.62964065  0.77962523  1  0  0.58849  0  3.858228  0  0  0.534618  0  4.138101  0  0  0.558724  0  4.148988  0  0  0.331125  0.518192  0  4.130016  0
C  C25  1  0.77983451  0.12963954  0.72037369  1  0  0.588586  0  3.858079  0  0  0.53466  0  4.138021  0  0  0.558771  0  4.148899  0  0  0.331155  0.518234  0  4.129936  0
C  C26  1  0.27983232  0.37036008  0.22037511  1  0  0.588514  0  3.858193  0  0  0.534645  0  4.138069  0  0  0.558749  0  4.148959  0  0  0.33118  0.518219  0  4.12998  0
C  C27  1  0.22016658  0.87035923  0.27962554  1  0  0.588484  0  3.858239  0  0  0.534612  0  4.138111  0  0  0.558717  0  4.148994  0  0  0.331136  0.518189  0  4.130022  0
C  C28  1  0.27671748  0.80107217  0.60019435  1  0  0.622802  0  3.782345  0  0  0.562437  0  4.057987  0  0  0.587996  0  4.065924  0  0  0.365002  0.54517  0  4.052551  0
C  C29  1  0.22328128  0.30107379  0.89980387  1  0  0.622862  0  3.782363  0  0  0.562428  0  4.058074  0  0  0.587988  0  4.066012  0  0  0.365009  0.545172  0  4.05264  0
C  C30  1  0.72328210  0.19892563  0.39980400  1  0  0.622815  0  3.782349  0  0  0.562449  0  4.057972  0  0  0.588007  0  4.065909  0  0  0.365011  0.545192  0  4.052536  0
C  C31  1  0.77671677  0.69892694  0.10019432  1  0  0.622842  0  3.782309  0  0  0.562489  0  4.057946  0  0  0.588049  0  4.06588  0  0  0.365028  0.545221  0  4.052511  0
N  N32  1  0.15768830  0.88312734  0.63976057  1  0  -0.406695  0  3.099312  0  0  -0.329304  0  3.404407  0  0  -0.351564  0  3.410152  0  0  -0.250932  -0.314407  0  3.400443  0
N  N33  1  0.34231195  0.38312803  0.86023848  1  0  -0.406747  0  3.099215  0  0  -0.329285  0  3.404292  0  0  -0.351548  0  3.410046  0  0  -0.250962  -0.314414  0  3.400347  0
N  N34  1  0.84231127  0.11687241  0.36023850  1  0  -0.406738  0  3.099307  0  0  -0.329293  0  3.404359  0  0  -0.351557  0  3.410116  0  0  -0.250944  -0.314425  0  3.400414  0
N  N35  1  0.65768761  0.61687270  0.13976059  1  0  -0.406736  0  3.099323  0  0  -0.329348  0  3.404424  0  0  -0.351608  0  3.410169  0  0  -0.250942  -0.314446  0  3.400452  0
N  N36  1  0.87560989  0.68171775  0.74383007  1  0  -0.436863  0  3.174254  0  0  -0.363309  0  3.49182  0  0  -0.386076  0  3.499036  0  0  -0.27418  -0.34733  0  3.486488  0
N  N37  1  0.62439031  0.18171758  0.75616882  1  0  -0.436938  0  3.174261  0  0  -0.36333  0  3.4918  0  0  -0.386102  0  3.499023  0  0  -0.274182  -0.347355  0  3.486483  0
N  N38  1  0.12438813  0.31828201  0.25617027  1  0  -0.436822  0  3.174225  0  0  -0.363277  0  3.491793  0  0  -0.386046  0  3.499015  0  0  -0.274189  -0.34731  0  3.486487  0
N  N39  1  0.37560926  0.81828120  0.24382954  1  0  -0.436911  0  3.174286  0  0  -0.363309  0  3.491798  0  0  -0.386075  0  3.499015  0  0  -0.274173  -0.347329  0  3.486461  0
N  N40  1  0.38810261  0.87916973  0.55340447  1  0  -0.312388  0  3.370451  0  0  -0.250175  0  3.623733  0  0  -0.267494  0  3.633353  0  0  -0.264276  -0.238626  0  3.617395  0
N  N41  1  0.11189916  0.37917130  0.94659474  1  0  -0.312325  0  3.370496  0  0  -0.250133  0  3.623834  0  0  -0.267455  0  3.633459  0  0  -0.26425  -0.238576  0  3.617477  0
N  N42  1  0.61189695  0.12082905  0.44659460  1  0  -0.312331  0  3.370397  0  0  -0.250162  0  3.623717  0  0  -0.26748  0  3.633337  0  0  -0.264263  -0.238606  0  3.617361  0
N  N43  1  0.88810192  0.62083041  0.05340520  1  0  -0.312374  0  3.370423  0  0  -0.250187  0  3.623716  0  0  -0.267507  0  3.633335  0  0  -0.264266  -0.238643  0  3.617394  0
N  N44  1  0.70851673  0.50062334  0.75628941  1  0  -0.442562  0  3.16278  0  0  -0.366054  0  3.480332  0  0  -0.388596  0  3.486024  0  0  -0.276833  -0.350666  0  3.47622  0
N  N45  1  0.79148200  0.00062221  0.74370943  1  0  -0.442518  0  3.162611  0  0  -0.366036  0  3.480234  0  0  -0.388575  0  3.485913  0  0  -0.276853  -0.350645  0  3.476113  0
N  N46  1  0.29148129  0.49937739  0.24371092  1  0  -0.442513  0  3.162705  0  0  -0.366007  0  3.480264  0  0  -0.388546  0  3.485946  0  0  -0.276844  -0.35062  0  3.476148  0
N  N47  1  0.20851757  0.99937755  0.25628964  1  0  -0.44245  0  3.162619  0  0  -0.365972  0  3.480196  0  0  -0.388509  0  3.48588  0  0  -0.276818  -0.350584  0  3.476079  0
N  N48  1  0.19944294  0.00712520  0.61423565  1  0  -0.033398  0  3.014069  0  0  -0.027132  0  3.315342  0  0  -0.023076  0  3.324492  0  0  -0.064759  -0.029676  0  3.308874  0
N  N49  1  0.30055893  0.50712618  0.88576451  1  0  -0.033403  0  3.014001  0  0  -0.027159  0  3.315261  0  0  -0.023104  0  3.324411  0  0  -0.064772  -0.029693  0  3.308801  0
N  N50  1  0.80055814  0.99287358  0.38576429  1  0  -0.033374  0  3.014079  0  0  -0.027123  0  3.315337  0  0  -0.023068  0  3.324486  0  0  -0.064741  -0.029656  0  3.308877  0
N  N51  1  0.69944214  0.49287455  0.11423614  1  0  -0.033387  0  3.014026  0  0  -0.027122  0  3.315297  0  0  -0.023066  0  3.324446  0  0  -0.064762  -0.029664  0  3.308825  0
N  N52  1  0.95850913  0.58231593  0.70031246  1  0  -0.052088  0  3.066073  0  0  -0.038543  0  3.360411  0  0  -0.036113  0  3.369932  0  0  -0.079979  -0.039999  0  3.353882  0
N  N53  1  0.54149108  0.08231669  0.79968720  1  0  -0.051991  0  3.066138  0  0  -0.038438  0  3.360425  0  0  -0.036007  0  3.369947  0  0  -0.079923  -0.039893  0  3.353897  0
N  N54  1  0.04148889  0.41768284  0.29968787  1  0  -0.052042  0  3.066149  0  0  -0.03848  0  3.36046  0  0  -0.036048  0  3.369981  0  0  -0.079938  -0.039935  0  3.353928  0
N  N55  1  0.45850848  0.91768306  0.20031187  1  0  -0.052077  0  3.066145  0  0  -0.038544  0  3.360463  0  0  -0.036113  0  3.369984  0  0  -0.079995  -0.039999  0  3.353936  0
N  N56  1  0.19086624  0.82856544  0.93894831  1  0  0.683435  0  4.13849  0  0  0.714975  0  4.427171  0  0  0.742805  0  4.432948  0  0  0.09939  0.695947  0  4.422693  0
N  N57  1  0.30913400  0.32856745  0.56105220  1  0  0.683332  0  4.138569  0  0  0.714928  0  4.4272  0  0  0.742758  0  4.432977  0  0  0.099381  0.695902  0  4.422719  0
N  N58  1  0.80913330  0.17143334  0.06105219  1  0  0.683297  0  4.138557  0  0  0.714887  0  4.427199  0  0  0.742719  0  4.432979  0  0  0.099375  0.695861  0  4.422717  0
N  N59  1  0.69086707  0.67143524  0.43894845  1  0  0.683447  0  4.138522  0  0  0.714984  0  4.427209  0  0  0.742815  0  4.432992  0  0  0.099403  0.695956  0  4.422732  0
N  N60  1  0.86093101  0.47588043  0.70754248  1  0  -0.053153  0  3.028143  0  0  -0.04345  0  3.321102  0  0  -0.0405  0  3.329958  0  0  -0.085336  -0.045468  0  3.31579  0
N  N61  1  0.63906909  0.97588054  0.79245765  1  0  -0.053324  0  3.028228  0  0  -0.043617  0  3.321217  0  0  -0.04067  0  3.330072  0  0  -0.085418  -0.045633  0  3.315903  0
N  N62  1  0.13906700  0.52411933  0.29245857  1  0  -0.053298  0  3.028203  0  0  -0.043602  0  3.321171  0  0  -0.040654  0  3.330025  0  0  -0.085415  -0.045619  0  3.315856  0
N  N63  1  0.36093047  0.02411922  0.20754142  1  0  -0.053258  0  3.028194  0  0  -0.04355  0  3.32118  0  0  -0.040603  0  3.330036  0  0  -0.085386  -0.045568  0  3.315868  0
N  N64  1  0.33628868  0.00602267  0.56246877  1  0  -0.035402  0  2.935158  0  0  -0.043273  0  3.238906  0  0  -0.041085  0  3.248435  0  0  -0.073762  -0.044548  0  3.232465  0
N  N65  1  0.16371472  0.50602360  0.93753154  1  0  -0.035406  0  2.935098  0  0  -0.04327  0  3.238856  0  0  -0.041082  0  3.248384  0  0  -0.07375  -0.044544  0  3.232412  0
N  N66  1  0.66371393  0.99397611  0.43753133  1  0  -0.035432  0  2.935147  0  0  -0.043307  0  3.238924  0  0  -0.04112  0  3.248453  0  0  -0.073794  -0.044583  0  3.23248  0
N  N67  1  0.83628789  0.49397713  0.06246856  1  0  -0.0354  0  2.935097  0  0  -0.043265  0  3.238858  0  0  -0.041078  0  3.248387  0  0  -0.073767  -0.044541  0  3.232416  0
N  N68  1  0.28795942  0.67169515  0.60730764  1  0  -0.675227  0  3.087841  0  0  -0.637646  0  3.334695  0  0  -0.658678  0  3.329329  0  0  -0.563022  -0.623066  0  3.338144  0
N  N69  1  0.21204087  0.17169580  0.89269225  1  0  -0.675237  0  3.087944  0  0  -0.637616  0  3.334858  0  0  -0.65865  0  3.329494  0  0  -0.562971  -0.623036  0  3.338303  0
N  N70  1  0.71204012  0.32830461  0.39269286  1  0  -0.675146  0  3.087934  0  0  -0.637544  0  3.334802  0  0  -0.658577  0  3.329439  0  0  -0.562943  -0.622963  0  3.338245  0
N  N71  1  0.78795716  0.82830493  0.10730737  1  0  -0.675238  0  3.087877  0  0  -0.637666  0  3.334718  0  0  -0.658698  0  3.329351  0  0  -0.563049  -0.623086  0  3.338169  0
N  N72  1  0.60462732  0.69259857  0.83152203  1  0  -0.694812  0  3.153971  0  0  -0.658424  0  3.410184  0  0  -0.679401  0  3.405236  0  0  -0.584899  -0.643132  0  3.412973  0
N  N73  1  0.89537288  0.19259752  0.66847685  1  0  -0.694725  0  3.153972  0  0  -0.658308  0  3.410288  0  0  -0.679292  0  3.405353  0  0  -0.584858  -0.643016  0  3.413077  0
N  N74  1  0.39537070  0.30740216  0.16847831  1  0  -0.694811  0  3.153923  0  0  -0.658444  0  3.410192  0  0  -0.679418  0  3.405234  0  0  -0.584902  -0.643153  0  3.41298  0
N  N75  1  0.10462671  0.80740223  0.33152079  1  0  -0.694683  0  3.153971  0  0  -0.658286  0  3.410255  0  0  -0.679281  0  3.405354  0  0  -0.584835  -0.642994  0  3.41304  0
O  O76  1  0.23845890  0.86033721  0.85621844  1  0  -0.496826  0  1.854073  0  0  -0.452076  0  2.103436  0  0  -0.472694  0  2.092786  0  0  -0.207747  -0.437495  0  2.110122  0
O  O77  1  0.26154285  0.36033619  0.64378292  1  0  -0.496852  0  1.854138  0  0  -0.452097  0  2.103438  0  0  -0.472715  0  2.09279  0  0  -0.207789  -0.43752  0  2.110128  0
O  O78  1  0.76154216  0.13966451  0.14378293  1  0  -0.496827  0  1.854125  0  0  -0.452078  0  2.103445  0  0  -0.472699  0  2.092795  0  0  -0.207784  -0.437499  0  2.110131  0
O  O79  1  0.73845668  0.63966161  0.35621829  1  0  -0.496826  0  1.854096  0  0  -0.452064  0  2.103447  0  0  -0.472682  0  2.092799  0  0  -0.20774  -0.437485  0  2.110135  0
O  O80  1  0.00568635  0.83970338  0.94517227  1  0  -0.483526  0  1.779866  0  0  -0.468242  0  1.996417  0  0  -0.48282  0  1.989721  0  0  -0.189118  -0.458222  0  2.001207  0
O  O81  1  0.49431237  0.33970832  0.55482736  1  0  -0.483502  0  1.779914  0  0  -0.468203  0  1.996389  0  0  -0.482783  0  1.989699  0  0  -0.189098  -0.458187  0  2.00118  0
O  O82  1  0.99431321  0.16029247  0.05482680  1  0  -0.483468  0  1.779922  0  0  -0.468168  0  1.996394  0  0  -0.482749  0  1.989706  0  0  -0.189077  -0.45815  0  2.001184  0
O  O83  1  0.50568717  0.66029730  0.44517314  1  0  -0.48354  0  1.779924  0  0  -0.46823  0  1.996443  0  0  -0.482811  0  1.989749  0  0  -0.189125  -0.458214  0  2.001233  0
O  O84  1  0.32567884  0.78814292  0.00678307  1  0  -0.395835  0  1.785627  0  0  -0.401745  0  2.00527  0  0  -0.413138  0  2.000367  0  0  -0.160496  -0.393653  0  2.008361  0
O  O85  1  0.17432161  0.28814541  0.49321708  1  0  -0.395766  0  1.785655  0  0  -0.401711  0  2.005282  0  0  -0.413104  0  2.00038  0  0  -0.160474  -0.393616  0  2.008365  0
O  O86  1  0.67432071  0.21185488  0.99321671  1  0  -0.395784  0  1.78565  0  0  -0.401712  0  2.005266  0  0  -0.413104  0  2.000364  0  0  -0.16049  -0.39362  0  2.008353  0
O  O87  1  0.82567947  0.71185728  0.50678287  1  0  -0.39585  0  1.785647  0  0  -0.401761  0  2.005283  0  0  -0.413151  0  2.000381  0  0  -0.160506  -0.393668  0  2.00837  0
