# generated using pymatgen
data_CuH7C8N5O3
_symmetry_space_group_name_H-M   'P 1'
_cell_length_a   7.50377824
_cell_length_b   10.09243644
_cell_length_c   12.88775735
_cell_angle_alpha   90.00001550
_cell_angle_beta   90.00001644
_cell_angle_gamma   97.86286195
_symmetry_Int_Tables_number   1
_chemical_formula_structural   CuH7C8N5O3
_chemical_formula_sum   'Cu4 H28 C32 N20 O12'
_cell_volume   966.83187996
_cell_formula_units_Z   4
loop_
 _symmetry_equiv_pos_site_id
 _symmetry_equiv_pos_as_xyz
  1  'x, y, z'
loop_
 _atom_site_type_symbol
 _atom_site_label
 _atom_site_symmetry_multiplicity
 _atom_site_fract_x
 _atom_site_fract_y
 _atom_site_fract_z
 _atom_site_occupancy
 _atom_site_hle17_ddec_charge
 _atom_site_hle17_ddec_spin_density
 _atom_site_hle17_ddec_sum_bond_order
 _atom_site_hle17_magmom
 _atom_site_hse06_10hf_ddec_charge
 _atom_site_hse06_10hf_ddec_spin_density
 _atom_site_hse06_10hf_ddec_sum_bond_order
 _atom_site_hse06_10hf_magmom
 _atom_site_hse06_ddec_charge
 _atom_site_hse06_ddec_spin_density
 _atom_site_hse06_ddec_sum_bond_order
 _atom_site_hse06_magmom
 _atom_site_pbe_cm5_charge
 _atom_site_pbe_ddec_charge
 _atom_site_pbe_ddec_spin_density
 _atom_site_pbe_ddec_sum_bond_order
 _atom_site_pbe_magmom
Cu  Cu0  1  0.79854689  0.36701726  0.44750620  1  0.786647  0.687857  1.916151  0.516  0.752093  0.772537  2.317541  0.627  0.835452  0.836393  2.254783  0.711  0.785189  0.701915  0.727484  2.36121  0.572
Cu  Cu1  1  0.20145361  0.13298223  0.94750623  1  0.786582  0.687856  1.916243  0.516  0.752107  0.772535  2.317525  0.627  0.835425  0.836394  2.254829  0.711  0.78519  0.701931  0.727496  2.361228  0.572
Cu  Cu2  1  0.20145360  0.63298375  0.55249419  1  0.786633  0.687857  1.916128  0.516  0.752098  0.772538  2.3175  0.627  0.835434  0.836386  2.254753  0.711  0.785187  0.701923  0.727481  2.361178  0.572
Cu  Cu3  1  0.79854518  0.86701679  0.05249339  1  0.786589  0.687857  1.916184  0.516  0.752126  0.772537  2.317467  0.627  0.835425  0.836392  2.254785  0.711  0.78518  0.701947  0.727476  2.361155  0.572
H  H4  1  0.05947079  0.95829951  0.60865682  1  0.09609  -3.2e-05  0.958589  0.0  0.1085  -3.6e-05  1.01896  0.0  0.111479  -4.5e-05  1.017972  0.0  0.103992  0.106295  -1.7e-05  1.019903  0.0
H  H5  1  0.94052784  0.54170005  0.10865674  1  0.096093  -3.2e-05  0.958585  0.0  0.108503  -3.6e-05  1.01895  0.0  0.111483  -4.5e-05  1.017963  0.0  0.103995  0.106298  -1.7e-05  1.019889  0.0
H  H6  1  0.94052722  0.04170250  0.39134280  1  0.096083  -3.2e-05  0.958625  0.0  0.108494  -3.6e-05  1.018997  0.0  0.111479  -4.5e-05  1.017994  0.0  0.103977  0.106284  -1.7e-05  1.01994  0.0
H  H7  1  0.05947192  0.45829696  0.89134210  1  0.096062  -3.3e-05  0.958561  0.0  0.108472  -3.6e-05  1.018944  0.0  0.111457  -4.5e-05  1.017941  0.0  0.103954  0.106273  -1.7e-05  1.01988  0.0
H  H8  1  0.64575033  0.19453460  0.63076071  1  0.08407  0.001319  0.972621  0.002  0.079196  0.001051  1.059844  0.002  0.081923  0.000667  1.055883  0.001  0.114929  0.076986  0.001379  1.062818  0.002
H  H9  1  0.35425018  0.30546577  0.13076059  1  0.084071  0.001318  0.972625  0.002  0.079195  0.001051  1.059852  0.002  0.081923  0.000667  1.055889  0.001  0.114929  0.076989  0.001379  1.062819  0.002
H  H10  1  0.35424865  0.80546542  0.36923969  1  0.084102  0.00132  0.972628  0.002  0.079228  0.00105  1.059847  0.002  0.081955  0.000668  1.055886  0.001  0.114946  0.07702  0.001379  1.062824  0.002
H  H11  1  0.64575031  0.69453525  0.86923980  1  0.084065  0.001319  0.972621  0.002  0.079188  0.001051  1.059853  0.002  0.081915  0.000667  1.05589  0.001  0.114923  0.076978  0.001379  1.06282  0.002
H  H12  1  0.35440269  0.05239346  0.66562864  1  0.128066  0.00076  0.945506  0.001  0.137299  0.000606  1.005001  0.001  0.141178  0.000431  1.002819  0.0  0.109631  0.134302  0.000745  1.006925  0.001
H  H13  1  0.64559651  0.44760692  0.16562783  1  0.128064  0.000761  0.945487  0.001  0.137298  0.000606  1.004977  0.001  0.141178  0.000431  1.002794  0.0  0.10962  0.134297  0.000745  1.006903  0.001
H  H14  1  0.64559514  0.94760756  0.33437097  1  0.128068  0.000759  0.945503  0.001  0.137302  0.000605  1.004989  0.001  0.141181  0.000431  1.002808  0.0  0.109621  0.134303  0.000745  1.006908  0.001
H  H15  1  0.35440362  0.55239210  0.83437179  1  0.128068  0.00076  0.9455  0.001  0.137304  0.000605  1.004988  0.001  0.141183  0.000431  1.002807  0.0  0.109625  0.134303  0.000745  1.006912  0.001
H  H16  1  0.19193857  0.14395457  0.35402672  1  0.103011  0.000478  0.973747  0.001  0.111138  0.000406  1.038562  0.001  0.113368  0.000275  1.038795  0.0  0.10617  0.109418  0.000514  1.038678  0.001
H  H17  1  0.80806170  0.35604388  0.85402689  1  0.10301  0.000478  0.973734  0.001  0.111136  0.000406  1.038545  0.001  0.113367  0.000275  1.03878  0.0  0.106177  0.109409  0.000514  1.038668  0.001
H  H18  1  0.80806326  0.85604645  0.64597213  1  0.103042  0.000477  0.973736  0.001  0.111178  0.000406  1.038525  0.001  0.113408  0.000275  1.038757  0.0  0.106187  0.109454  0.000514  1.038652  0.001
H  H19  1  0.19193673  0.64395313  0.14597273  1  0.103055  0.000477  0.973729  0.001  0.111188  0.000406  1.038523  0.001  0.113419  0.000275  1.038755  0.0  0.106194  0.109467  0.000514  1.038652  0.001
H  H20  1  0.48646788  0.28351124  0.33315268  1  0.09575  0.001229  0.938895  0.002  0.103232  0.000985  1.001515  0.002  0.104616  0.000671  1.000117  0.001  0.122863  0.101908  0.00123  1.002834  0.002
H  H21  1  0.51353219  0.21648620  0.83315278  1  0.095808  0.001228  0.938788  0.002  0.103279  0.000985  1.001408  0.002  0.104664  0.000671  1.000007  0.001  0.122892  0.101953  0.00123  1.002732  0.002
H  H22  1  0.51353473  0.71648677  0.66684694  1  0.095775  0.00123  0.938857  0.002  0.103255  0.000985  1.001487  0.002  0.10464  0.000671  1.000087  0.001  0.122865  0.10193  0.00123  1.002805  0.002
H  H23  1  0.48646660  0.78351282  0.16684684  1  0.095806  0.001229  0.938786  0.002  0.103285  0.000985  1.001414  0.002  0.10467  0.000671  1.000012  0.001  0.122888  0.101963  0.00123  1.002736  0.002
H  H24  1  0.56893553  0.54987680  0.35363650  1  0.391344  2e-05  0.917725  0.0  0.356483  4.3e-05  0.991442  0.0  0.367679  -1.9e-05  0.975164  0.0  0.284665  0.348911  0.000118  1.002417  0.0
H  H25  1  0.43106209  0.95012386  0.85363585  1  0.391295  2e-05  0.917694  0.0  0.35644  4.3e-05  0.991483  0.0  0.367635  -1.9e-05  0.975207  0.0  0.284658  0.348869  0.000118  1.002456  0.0
H  H26  1  0.43106363  0.45012421  0.64636467  1  0.391349  2e-05  0.917727  0.0  0.356486  4.3e-05  0.99144  0.0  0.367681  -1.9e-05  0.975164  0.0  0.284667  0.348912  0.000119  1.002419  0.0
H  H27  1  0.56893574  0.04987716  0.14636454  1  0.391333  2e-05  0.917758  0.0  0.356452  4.3e-05  0.991483  0.0  0.367648  -1.9e-05  0.975206  0.0  0.284645  0.348882  0.000119  1.002458  0.0
H  H28  1  0.77980553  0.60433465  0.34105248  1  0.414093  -0.000109  0.891018  0.0  0.386563  -1.1e-05  0.951092  0.0  0.399513  -1.7e-05  0.932339  0.0  0.280329  0.377628  3e-05  0.964  0.0
H  H29  1  0.22019456  0.89566501  0.84105180  1  0.414084  -0.000109  0.89103  0.0  0.38656  -1.1e-05  0.951095  0.0  0.399509  -1.6e-05  0.932346  0.0  0.280334  0.377628  3e-05  0.964001  0.0
H  H30  1  0.22019460  0.39566437  0.65894791  1  0.414087  -0.000109  0.891023  0.0  0.38656  -1.1e-05  0.951089  0.0  0.399509  -1.6e-05  0.93234  0.0  0.280331  0.377625  3e-05  0.964  0.0
H  H31  1  0.77980575  0.10433500  0.15894782  1  0.414087  -0.000109  0.891024  0.0  0.386558  -1.1e-05  0.951096  0.0  0.399507  -1.6e-05  0.932345  0.0  0.280331  0.377628  3e-05  0.963997  0.0
C  C32  1  0.94941830  0.28083467  0.26143582  1  0.585499  -0.009947  3.952844  -0.009  0.545515  -0.002421  4.253813  -0.003  0.581674  -0.002017  4.247981  -0.002  0.21146  0.520764  -0.002622  4.256953  -0.003
C  C33  1  0.05058077  0.21916475  0.76143429  1  0.585515  -0.009948  3.952844  -0.009  0.545563  -0.00242  4.253797  -0.003  0.58171  -0.002018  4.247959  -0.002  0.211487  0.520812  -0.002621  4.25694  -0.003
C  C34  1  0.05058201  0.71916535  0.73856535  1  0.585551  -0.009946  3.952755  -0.009  0.545573  -0.002421  4.253719  -0.003  0.58173  -0.002018  4.247882  -0.002  0.211469  0.520822  -0.002622  4.256873  -0.003
C  C35  1  0.94941821  0.78083527  0.23856611  1  0.585552  -0.009948  3.952721  -0.009  0.545582  -0.002421  4.253673  -0.003  0.58174  -0.002019  4.247835  -0.002  0.211488  0.520841  -0.002622  4.256797  -0.003
C  C36  1  0.08401510  0.38791583  0.30570801  1  0.137285  -0.003649  3.78556  0.001  0.127705  -0.001121  4.052561  0.002  0.133388  -0.002489  4.065652  0.0  0.20943  0.123657  -7e-05  4.044247  0.003
C  C37  1  0.91598666  0.11208360  0.80570738  1  0.137322  -0.003644  3.785601  0.001  0.127671  -0.001121  4.05268  0.002  0.133393  -0.002486  4.06572  0.0  0.209414  0.12362  -7.1e-05  4.044363  0.003
C  C38  1  0.91598654  0.61208419  0.69429316  1  0.137242  -0.003652  3.785635  0.001  0.127661  -0.001121  4.052639  0.002  0.133351  -0.002488  4.065722  0.0  0.209405  0.123609  -7e-05  4.044319  0.003
C  C39  1  0.08401347  0.88791541  0.19429302  1  0.137224  -0.003646  3.785682  0.001  0.127642  -0.001122  4.052691  0.002  0.133328  -0.002485  4.065778  0.0  0.209401  0.123592  -7.1e-05  4.044364  0.003
C  C40  1  0.07026604  0.00817370  0.53335269  1  -0.081574  -0.002137  3.680122  -0.001  -0.106434  -0.001522  3.936591  0.0  -0.109572  -0.001679  3.956225  -0.001  -0.074244  -0.104552  -0.001265  3.923966  0.0
C  C41  1  0.92973538  0.49182462  0.03335194  1  -0.081626  -0.002164  3.680105  -0.001  -0.106471  -0.001521  3.936585  0.0  -0.109607  -0.00168  3.956211  -0.001  -0.074272  -0.104584  -0.001265  3.923966  0.0
C  C42  1  0.92973331  0.99182831  0.46664693  1  -0.081545  -0.002112  3.680119  -0.001  -0.106405  -0.001519  3.936579  0.0  -0.109541  -0.001684  3.956215  -0.001  -0.074192  -0.104516  -0.001265  3.92394  0.0
C  C43  1  0.07026685  0.50817140  0.96664768  1  -0.081451  -0.002081  3.680028  -0.001  -0.106316  -0.00152  3.936483  0.0  -0.109451  -0.001682  3.956118  -0.001  -0.074124  -0.104438  -0.001265  3.923863  0.0
C  C44  1  0.53956789  0.18319689  0.57255740  1  0.120206  -0.010357  3.705182  -0.006  0.090512  -0.001913  3.970057  0.0  0.100692  -0.003973  3.988258  -0.002  0.046556  0.08411  -0.000345  3.958259  0.001
C  C45  1  0.46043107  0.31680245  0.07255808  1  0.120173  -0.010339  3.705019  -0.006  0.090481  -0.001913  3.969914  0.0  0.100663  -0.003973  3.98811  -0.002  0.046544  0.084087  -0.000345  3.958116  0.001
C  C46  1  0.46043109  0.81680312  0.42744222  1  0.120127  -0.010387  3.705125  -0.006  0.090435  -0.001914  3.970006  0.0  0.100617  -0.003974  3.988207  -0.002  0.046522  0.084031  -0.000345  3.958214  0.001
C  C47  1  0.53956791  0.68319757  0.92744309  1  0.1202  -0.010371  3.705076  -0.006  0.090517  -0.001914  3.969953  0.0  0.100699  -0.003975  3.988149  -0.002  0.046568  0.084127  -0.000346  3.958142  0.001
C  C48  1  0.37663748  0.10323546  0.59100357  1  -0.141943  0.010859  3.631413  0.012  -0.157649  0.004497  3.867881  0.006  -0.166151  0.003933  3.887787  0.005  -0.076235  -0.152173  0.00492  3.854715  0.006
C  C49  1  0.62336283  0.39676388  0.09100274  1  -0.141936  0.010843  3.631317  0.012  -0.157624  0.004497  3.867782  0.006  -0.166126  0.003933  3.887687  0.005  -0.076198  -0.152143  0.00492  3.854607  0.006
C  C50  1  0.62336150  0.89676455  0.40899605  1  -0.141944  0.01088  3.631349  0.012  -0.157633  0.004498  3.867807  0.006  -0.166136  0.003933  3.887715  0.005  -0.076231  -0.15215  0.00492  3.854628  0.006
C  C51  1  0.37663730  0.60323513  0.90899610  1  -0.141963  0.010872  3.63139  0.012  -0.157664  0.004497  3.867858  0.006  -0.166167  0.003934  3.887767  0.005  -0.076252  -0.152178  0.00492  3.854676  0.006
C  C52  1  0.24271233  0.08896765  0.51374418  1  0.147156  -0.01226  3.77703  -0.008  0.164495  -0.004721  4.002845  -0.003  0.171375  -0.005293  4.02439  -0.003  0.014851  0.159844  -0.004289  3.988416  -0.002
C  C53  1  0.75728661  0.41103166  0.01374493  1  0.14719  -0.012239  3.776897  -0.008  0.164498  -0.004721  4.00273  -0.003  0.171379  -0.005293  4.024275  -0.003  0.014814  0.159843  -0.004289  3.988297  -0.002
C  C54  1  0.75728684  0.91103336  0.48625544  1  0.147248  -0.012288  3.77692  -0.008  0.164579  -0.004723  4.002742  -0.003  0.171458  -0.005292  4.024287  -0.003  0.014861  0.159923  -0.004289  3.988315  -0.002
C  C55  1  0.24271334  0.58896635  0.98625546  1  0.147146  -0.012278  3.777016  -0.008  0.164478  -0.004721  4.002851  -0.003  0.171357  -0.005293  4.024398  -0.003  0.01484  0.159823  -0.004289  3.988432  -0.002
C  C56  1  0.28501888  0.15467562  0.41889759  1  -0.150382  0.010243  3.69306  0.011  -0.170393  0.003947  3.939785  0.005  -0.1798  0.003514  3.962333  0.004  -0.080694  -0.164359  0.004348  3.924797  0.005
C  C57  1  0.71498143  0.34532286  0.91889698  1  -0.150391  0.010228  3.692822  0.011  -0.170389  0.003948  3.939544  0.005  -0.179797  0.003514  3.96209  0.004  -0.080721  -0.164345  0.004349  3.924548  0.005
C  C58  1  0.71498295  0.84532540  0.58110203  1  -0.150475  0.010265  3.693038  0.011  -0.170485  0.003948  3.939786  0.005  -0.179893  0.003513  3.962332  0.004  -0.080724  -0.164456  0.004348  3.924807  0.005
C  C59  1  0.28501718  0.65467516  0.08110264  1  -0.15046  0.010254  3.693013  0.011  -0.170474  0.003947  3.939756  0.005  -0.179883  0.003514  3.962304  0.004  -0.080725  -0.164438  0.004348  3.924783  0.005
C  C60  1  0.44976310  0.23231636  0.40585578  1  0.133738  -0.011684  3.677603  -0.007  0.104764  -0.002801  3.932996  -0.001  0.114678  -0.004741  3.952421  -0.003  0.041019  0.098475  -0.001328  3.920273  0.0
C  C61  1  0.55023568  0.26768111  0.90585589  1  0.13367  -0.011664  3.677491  -0.007  0.10472  -0.002802  3.932884  -0.001  0.114635  -0.004742  3.952307  -0.003  0.04104  0.098437  -0.001328  3.92016  0.0
C  C62  1  0.55023854  0.76768365  0.59414384  1  0.133767  -0.011714  3.677549  -0.007  0.104779  -0.002803  3.932977  -0.001  0.114694  -0.004743  3.952402  -0.003  0.041058  0.098501  -0.001329  3.920242  0.0
C  C63  1  0.44976160  0.73231691  0.09414450  1  0.133742  -0.011696  3.677469  -0.007  0.104767  -0.002801  3.932896  -0.001  0.114683  -0.004744  3.952315  -0.003  0.041042  0.098481  -0.001328  3.920185  0.0
N  N64  1  0.04578608  0.43863008  0.39820587  1  -0.249361  0.054296  3.263721  0.07  -0.225882  0.042246  3.581775  0.057  -0.246929  0.034425  3.600068  0.05  -0.248701  -0.213734  0.046924  3.57204  0.061
N  N65  1  0.95421307  0.06136939  0.89820524  1  -0.249469  0.054295  3.263892  0.07  -0.225969  0.042245  3.581943  0.057  -0.247016  0.034424  3.600219  0.05  -0.248745  -0.213817  0.046923  3.572217  0.061
N  N66  1  0.95421442  0.56137094  0.60179452  1  -0.249371  0.054296  3.26382  0.07  -0.225896  0.042243  3.581872  0.057  -0.246936  0.034429  3.60016  0.05  -0.248724  -0.213746  0.046926  3.572127  0.061
N  N67  1  0.04578591  0.93863063  0.10179516  1  -0.24936  0.054295  3.263816  0.07  -0.22591  0.042245  3.581879  0.057  -0.246941  0.034424  3.600162  0.05  -0.248702  -0.213747  0.046926  3.572135  0.061
N  N68  1  0.18791511  0.52664364  0.42245371  1  -0.063967  0.056934  3.254589  0.073  -0.047507  0.047142  3.597531  0.064  -0.061878  0.039588  3.61367  0.057  -0.126325  -0.039993  0.051475  3.588969  0.067
N  N69  1  0.81208388  0.97335705  0.92245391  1  -0.063866  0.056932  3.254765  0.073  -0.047399  0.047142  3.597665  0.064  -0.061762  0.039585  3.613809  0.057  -0.126282  -0.039891  0.051473  3.589117  0.067
N  N70  1  0.81208520  0.47335637  0.57754668  1  -0.064042  0.056937  3.254756  0.073  -0.04757  0.047142  3.597696  0.064  -0.061949  0.039588  3.613843  0.057  -0.126351  -0.04005  0.051476  3.589116  0.067
N  N71  1  0.18791643  0.02664297  0.07754726  1  -0.063929  0.056934  3.25482  0.073  -0.047451  0.047142  3.597729  0.064  -0.061818  0.03959  3.613872  0.057  -0.126314  -0.039952  0.051472  3.589198  0.067
N  N72  1  0.31013463  0.52871817  0.34755240  1  -0.073  0.001839  2.958505  0.006  -0.048688  0.002698  3.247997  0.005  -0.047633  -0.00059  3.258755  0.002  -0.070297  -0.048785  0.005394  3.240671  0.008
N  N73  1  0.68986547  0.97128149  0.84755259  1  -0.073021  0.00184  2.958574  0.006  -0.048728  0.002697  3.248082  0.005  -0.047674  -0.000589  3.258842  0.002  -0.070313  -0.048822  0.005394  3.240754  0.008
N  N74  1  0.68986435  0.47128185  0.65244877  1  -0.072935  0.001835  2.958531  0.006  -0.048624  0.002698  3.248001  0.005  -0.047568  -0.000592  3.258762  0.002  -0.070263  -0.048723  0.005394  3.240667  0.008
N  N75  1  0.31013351  0.02871853  0.15244781  1  -0.073019  0.001838  2.958651  0.006  -0.04872  0.002698  3.248137  0.005  -0.047666  -0.00059  3.258896  0.002  -0.0703  -0.048822  0.005394  3.240823  0.008
N  N76  1  0.24724525  0.44230248  0.27305456  1  -0.226107  0.006811  2.924496  0.008  -0.206939  0.004191  3.198806  0.005  -0.213435  0.002614  3.209078  0.004  -0.188932  -0.202105  0.005912  3.191511  0.007
N  N77  1  0.75275686  0.05769894  0.77305389  1  -0.226113  0.006809  2.924476  0.008  -0.20693  0.004192  3.198806  0.005  -0.213437  0.002613  3.209062  0.004  -0.188916  -0.202083  0.005913  3.191495  0.007
N  N78  1  0.75275525  0.55769853  0.72694661  1  -0.22607  0.006813  2.92447  0.008  -0.206905  0.004193  3.19878  0.005  -0.213402  0.00261  3.209043  0.004  -0.188893  -0.20207  0.005913  3.191477  0.007
N  N79  1  0.24724345  0.94230108  0.22694573  1  -0.226091  0.00681  2.924543  0.008  -0.20693  0.004193  3.198859  0.005  -0.213424  0.00261  3.209122  0.004  -0.188925  -0.202082  0.005913  3.191549  0.007
N  N80  1  0.57439536  0.24829840  0.48199860  1  -0.29229  0.09125  3.343727  0.118  -0.245701  0.060221  3.644133  0.083  -0.27828  0.048454  3.666391  0.072  -0.35484  -0.226662  0.066576  3.631145  0.087
N  N81  1  0.42560498  0.25170010  0.98199869  1  -0.292207  0.091241  3.343689  0.118  -0.245658  0.060222  3.644103  0.083  -0.278229  0.048455  3.666363  0.072  -0.354842  -0.226628  0.066574  3.631131  0.087
N  N82  1  0.42560477  0.75170062  0.51800102  1  -0.292259  0.091266  3.343642  0.118  -0.245686  0.060221  3.644074  0.083  -0.278255  0.048456  3.666316  0.072  -0.354843  -0.226647  0.066576  3.63108  0.087
N  N83  1  0.57439400  0.74829991  0.01800171  1  -0.292257  0.091259  3.343667  0.118  -0.245705  0.060221  3.6441  0.083  -0.27827  0.048456  3.666352  0.072  -0.354858  -0.226675  0.066575  3.631125  0.087
O  O84  1  0.81104335  0.25021860  0.32087827  1  -0.553579  0.109608  2.036362  0.152  -0.538886  0.066261  2.317071  0.101  -0.583654  0.047967  2.313102  0.079  -0.31303  -0.508989  0.078659  2.319694  0.113
O  O85  1  0.18895575  0.24978084  0.82087832  1  -0.553562  0.109612  2.036369  0.152  -0.538902  0.066262  2.317062  0.101  -0.583664  0.047968  2.3131  0.079  -0.31302  -0.509006  0.07866  2.319696  0.113
O  O86  1  0.18895714  0.74978242  0.67912213  1  -0.553603  0.109611  2.036341  0.152  -0.538909  0.066261  2.31704  0.101  -0.58367  0.047969  2.313063  0.079  -0.313034  -0.509013  0.07866  2.319673  0.113
O  O87  1  0.81104171  0.75021818  0.17912208  1  -0.553599  0.109615  2.036298  0.152  -0.538935  0.066263  2.316986  0.101  -0.583696  0.04797  2.313027  0.079  -0.313035  -0.509039  0.078666  2.319608  0.113
O  O88  1  0.97349388  0.22549694  0.17688270  1  -0.544883  0.017841  1.940482  0.025  -0.515295  0.008685  2.166132  0.013  -0.543745  0.003529  2.160101  0.006  -0.293524  -0.494287  0.014454  2.16927  0.02
O  O89  1  0.02650647  0.27450244  0.67688273  1  -0.544882  0.017839  1.940566  0.025  -0.515282  0.008684  2.166174  0.013  -0.543732  0.003529  2.160148  0.006  -0.29352  -0.494268  0.014454  2.169311  0.02
O  O90  1  0.02650795  0.77450407  0.82311769  1  -0.544891  0.01784  1.940478  0.025  -0.51532  0.008684  2.166137  0.013  -0.54377  0.003529  2.160107  0.006  -0.293515  -0.494312  0.014454  2.169282  0.02
O  O91  1  0.97349251  0.72549758  0.32311766  1  -0.544888  0.017839  1.94051  0.025  -0.515291  0.008685  2.166128  0.013  -0.543741  0.003527  2.160098  0.006  -0.293515  -0.494284  0.014455  2.169262  0.02
O  O92  1  0.69005633  0.52288509  0.34929362  1  -0.845896  -0.001177  1.938223  0.0  -0.804158  -0.00097  2.133573  0.0  -0.825983  -0.001593  2.095769  0.0  -0.6043  -0.788631  -0.000229  2.159518  0.001
O  O93  1  0.30994262  0.97711557  0.84929452  1  -0.845828  -0.001178  1.938185  0.0  -0.804106  -0.000971  2.133582  0.0  -0.825922  -0.001593  2.095789  0.0  -0.604294  -0.788576  -0.000229  2.159531  0.001
O  O94  1  0.30994265  0.47711493  0.65070600  1  -0.845905  -0.001178  1.938239  0.0  -0.80417  -0.00097  2.133583  0.0  -0.825991  -0.001593  2.095781  0.0  -0.604306  -0.788641  -0.000228  2.159533  0.001
O  O95  1  0.69005654  0.02288545  0.15070665  1  -0.845897  -0.001178  1.938247  0.0  -0.804144  -0.00097  2.133638  0.0  -0.825957  -0.001593  2.095841  0.0  -0.604282  -0.78862  -0.000228  2.159579  0.001
