# generated using pymatgen
data_CuH6C4O7
_symmetry_space_group_name_H-M   'P 1'
_cell_length_a   8.27265007
_cell_length_b   8.69761427
_cell_length_c   10.42022178
_cell_angle_alpha   90.00331025
_cell_angle_beta   87.17934899
_cell_angle_gamma   89.99991634
_symmetry_Int_Tables_number   1
_chemical_formula_structural   CuH6C4O7
_chemical_formula_sum   'Cu4 H24 C16 O28'
_cell_volume   748.85076534
_cell_formula_units_Z   4
loop_
 _symmetry_equiv_pos_site_id
 _symmetry_equiv_pos_as_xyz
  1  'x, y, z'
loop_
 _atom_site_type_symbol
 _atom_site_label
 _atom_site_symmetry_multiplicity
 _atom_site_fract_x
 _atom_site_fract_y
 _atom_site_fract_z
 _atom_site_occupancy
 _atom_site_pbe_cm5_charge
 _atom_site_pbe_ddec_charge
 _atom_site_pbe_ddec_spin_density
 _atom_site_pbe_ddec_sum_bond_order
 _atom_site_pbe_magmom
Cu  Cu0  1  0.32337505  0.90904755  0.99788561  1  0.683243  0.881744  0.701783  2.058044  0.568
Cu  Cu1  1  0.67664701  0.40902397  0.00212803  1  0.683335  0.881639  -0.701695  2.058664  -0.569
Cu  Cu2  1  0.16264617  0.91183724  0.51542686  1  0.735735  0.991985  0.819176  2.09912  0.656
Cu  Cu3  1  0.83735034  0.41185880  0.48457341  1  0.735673  0.991884  -0.818556  2.099162  -0.655
H  H4  1  0.44118409  0.07333088  0.57573488  1  0.308671  0.359543  -4e-06  0.942925  0.0
H  H5  1  0.55880881  0.57341401  0.42424315  1  0.308693  0.359682  5e-06  0.94282  0.0
H  H6  1  0.05452588  0.05308667  0.90517675  1  0.304324  0.348508  3.6e-05  0.96708  0.0
H  H7  1  0.94546117  0.55301144  0.09479916  1  0.304282  0.348432  -3.6e-05  0.96731  0.0
H  H8  1  0.06775450  0.00714016  0.11809109  1  0.30504  0.394066  0.000135  0.95071  0.0
H  H9  1  0.93224948  0.50711322  0.88189697  1  0.305045  0.394007  -0.000135  0.950796  0.0
H  H10  1  0.24486022  0.99925700  0.28981181  1  0.298453  0.402907  0.000381  0.927649  0.0
H  H11  1  0.75513139  0.49926400  0.71017191  1  0.298515  0.402862  -0.000381  0.927697  0.0
H  H12  1  0.14946173  0.88277394  0.75119364  1  0.302891  0.348312  2.7e-05  0.982252  0.0
H  H13  1  0.85053887  0.38275443  0.24880975  1  0.30288  0.348271  -2.7e-05  0.982429  0.0
H  H14  1  0.48636981  0.70166429  0.90395513  1  0.299311  0.337937  -0.000177  0.987643  0.0
H  H15  1  0.51363495  0.20171189  0.09603714  1  0.299486  0.338153  0.000177  0.987456  0.0
H  H16  1  0.33699433  0.29559066  0.64804895  1  0.11879  0.097919  0.000329  1.002528  0.0
H  H17  1  0.66307189  0.79564278  0.35190851  1  0.118791  0.09777  -0.000327  1.003133  0.0
H  H18  1  0.15328027  0.28134546  0.85044463  1  0.11806  0.090335  0.000139  1.000317  0.0
H  H19  1  0.84678202  0.78130084  0.14952076  1  0.118178  0.090519  -0.000138  1.000101  0.0
H  H20  1  0.12063883  0.56370924  0.69123865  1  0.124452  0.108898  0.000409  0.987447  0.001
H  H21  1  0.87933020  0.06371771  0.30877124  1  0.124469  0.108936  -0.000407  0.987551  -0.001
H  H22  1  0.35151615  0.52483654  0.81524638  1  0.1234  0.103411  0.001324  1.030809  0.002
H  H23  1  0.64840917  0.02485185  0.18476185  1  0.123383  0.103244  -0.001325  1.030817  -0.002
H  H24  1  0.19978815  0.13515051  0.13983131  1  0.340722  0.416272  0.000315  0.835092  0.0
H  H25  1  0.80017809  0.63507077  0.86018387  1  0.340699  0.416355  -0.000315  0.835092  0.0
H  H26  1  0.39895320  0.01892022  0.37796363  1  0.297432  0.393645  0.000549  0.946364  0.0
H  H27  1  0.60108342  0.51895803  0.62200492  1  0.297516  0.393807  -0.000547  0.946124  0.0
C  C28  1  0.09962486  0.20891312  0.61002524  1  0.209288  0.574152  3.2e-05  4.129939  -0.002
C  C29  1  0.90039483  0.70892566  0.38997224  1  0.209243  0.574011  -2.2e-05  4.129434  0.002
C  C30  1  0.26539786  0.19238436  0.67324236  1  -0.006635  0.032444  -0.000396  3.855041  -0.001
C  C31  1  0.73461947  0.69241202  0.32672625  1  -0.006606  0.032991  0.000418  3.854636  0.001
C  C32  1  0.23337865  0.18558774  0.81964218  1  -0.001915  0.042622  -0.000539  3.828621  -0.001
C  C33  1  0.76666457  0.68557041  0.18033774  1  -0.002138  0.042233  0.00054  3.828286  0.001
C  C34  1  0.39121429  0.20768831  0.89026293  1  0.21965  0.579627  0.00024  4.097544  0.0
C  C35  1  0.60879954  0.70765093  0.10972634  1  0.219574  0.579742  -0.000242  4.096958  0.0
C  C36  1  0.32148132  0.64562403  0.58064701  1  0.220894  0.583853  0.000789  4.126153  -0.001
C  C37  1  0.67848328  0.14565590  0.41938491  1  0.220933  0.583954  -0.00079  4.125514  0.001
C  C38  1  0.20499743  0.66128325  0.70020840  1  -0.003609  0.035963  0.001604  3.837789  0.001
C  C39  1  0.79498816  0.16128802  0.29980137  1  -0.003667  0.035557  -0.0016  3.837777  -0.001
C  C40  1  0.29140819  0.63781295  0.82488416  1  -0.014404  7.7e-05  0.002763  3.880712  0.002
C  C41  1  0.70852128  0.13782821  0.17514010  1  -0.014399  0.000462  -0.002763  3.881173  -0.002
C  C42  1  0.17834767  0.62865505  0.94530587  1  0.215018  0.568251  0.000133  4.130131  -0.002
C  C43  1  0.82161635  0.12863395  0.05471474  1  0.214744  0.568003  -0.000135  4.129507  0.002
O  O44  1  0.34957670  0.05468968  0.63861927  1  -0.393813  -0.501199  0.005217  2.378348  0.008
O  O45  1  0.65039616  0.55473119  0.36136149  1  -0.393834  -0.50163  -0.005088  2.377476  -0.008
O  O46  1  0.03576487  0.09297576  0.55637820  1  -0.321352  -0.521296  0.061661  2.335764  0.087
O  O47  1  0.96426146  0.59297988  0.44360393  1  -0.321381  -0.52139  -0.061603  2.335626  -0.086
O  O48  1  0.03281615  0.33888958  0.61892233  1  -0.306507  -0.545695  -0.00014  2.228777  -0.002
O  O49  1  0.96721938  0.83889864  0.38110136  1  -0.306447  -0.545553  0.000337  2.228632  0.002
O  O50  1  0.15762978  0.04082784  0.85219233  1  -0.382886  -0.509411  0.004689  2.464325  0.007
O  O51  1  0.84237957  0.54079575  0.14780121  1  -0.382813  -0.509292  -0.0047  2.464449  -0.007
O  O52  1  0.43586978  0.10320435  0.97036709  1  -0.331983  -0.562975  0.040014  2.419162  0.056
O  O53  1  0.56415062  0.60316379  0.02962854  1  -0.331932  -0.562915  -0.040005  2.419293  -0.056
O  O54  1  0.46793516  0.33054175  0.87387125  1  -0.293058  -0.516079  0.002509  2.247749  0.002
O  O55  1  0.53207976  0.83052004  0.12613806  1  -0.293021  -0.516198  -0.002522  2.247531  -0.002
O  O56  1  0.18337106  0.02412484  0.14287658  1  -0.548906  -0.721737  0.031113  2.204613  0.042
O  O57  1  0.81664308  0.52405164  0.85712348  1  -0.548889  -0.721714  -0.031106  2.204828  -0.043
O  O58  1  0.27990939  0.03385557  0.37442140  1  -0.594736  -0.768943  0.051911  2.139191  0.071
O  O59  1  0.72010665  0.53392974  0.62558207  1  -0.594842  -0.768961  -0.051911  2.138917  -0.071
O  O60  1  0.10945473  0.79954421  0.69469592  1  -0.390571  -0.490471  0.038929  2.375372  0.054
O  O61  1  0.89052678  0.29954771  0.30531567  1  -0.390576  -0.49028  -0.038921  2.375912  -0.054
O  O62  1  0.31115906  0.74301238  0.48993469  1  -0.320729  -0.525182  0.057187  2.338406  0.082
O  O63  1  0.68885048  0.24308994  0.51008753  1  -0.320745  -0.525199  -0.057142  2.338204  -0.082
O  O64  1  0.41672258  0.53272694  0.57325007  1  -0.296322  -0.520266  0.014889  2.208486  0.02
O  O65  1  0.58323540  0.03276349  0.42679375  1  -0.296291  -0.520174  -0.014846  2.208627  -0.02
O  O66  1  0.41327848  0.75405216  0.84379279  1  -0.389964  -0.470278  0.030693  2.318059  0.043
O  O67  1  0.58673022  0.25405160  0.15622783  1  -0.390103  -0.470444  -0.030665  2.318912  -0.043
O  O68  1  0.18191367  0.73554951  0.02879588  1  -0.319769  -0.501227  0.050675  2.336937  0.072
O  O69  1  0.81808611  0.23552455  0.97122633  1  -0.319667  -0.501176  -0.050667  2.337194  -0.072
O  O70  1  0.08584875  0.51305538  0.96187706  1  -0.30819  -0.537686  0.009344  2.237865  0.012
O  O71  1  0.91411321  0.01300929  0.03813629  1  -0.308112  -0.537612  -0.009356  2.236793  -0.013
