# generated using pymatgen
data_Zn4H12C28S2Br2O13
_symmetry_space_group_name_H-M   'P 1'
_cell_length_a   18.51207372
_cell_length_b   19.71482591
_cell_length_c   32.77204138
_cell_angle_alpha   85.92151815
_cell_angle_beta   73.59082770
_cell_angle_gamma   61.98967253
_symmetry_Int_Tables_number   1
_chemical_formula_structural   Zn4H12C28S2Br2O13
_chemical_formula_sum   'Zn16 H48 C112 S8 Br8 O52'
_cell_volume   10102.64964703
_cell_formula_units_Z   4
loop_
 _symmetry_equiv_pos_site_id
 _symmetry_equiv_pos_as_xyz
  1  'x, y, z'
loop_
 _atom_site_type_symbol
 _atom_site_label
 _atom_site_symmetry_multiplicity
 _atom_site_fract_x
 _atom_site_fract_y
 _atom_site_fract_z
 _atom_site_occupancy
 _atom_site_pbe_bader_charge
 _atom_site_pbe_bader_spin_density
 _atom_site_pbe_cm5_charge
 _atom_site_pbe_ddec_charge
 _atom_site_pbe_ddec_spin_density
 _atom_site_pbe_ddec_sum_bond_order
 _atom_site_pbe_magmom
Zn  Zn0  1  0.87530882  0.55566135  0.51862798  1  1.308079  0  0.671026  0.95859  0  2.383156  0
Zn  Zn1  1  0.03792531  0.48674853  0.43781121  1  1.301011  0  0.670574  0.959211  0  2.398435  0
Zn  Zn2  1  0.04023651  0.39803577  0.52388852  1  1.315867  0  0.670482  0.963372  0  2.362819  0
Zn  Zn3  1  0.04783358  0.55888576  0.51911801  1  1.319347  0  0.67085  0.964534  0  2.362687  0
Zn  Zn4  1  0.62454624  0.19327971  0.73184972  1  1.304688  0  0.670686  0.959684  0  2.388669  0
Zn  Zn5  1  0.46334182  0.34971669  0.72517547  1  1.313463  0  0.670385  0.958736  0  2.389228  0
Zn  Zn6  1  0.45979074  0.26510027  0.81292959  1  1.320031  0  0.670653  0.963501  0  2.361813  0
Zn  Zn7  1  0.45212770  0.19183835  0.73012387  1  1.316399  0  0.670759  0.963781  0  2.360078  0
Zn  Zn8  1  0.46303995  0.76195935  0.31231816  1  1.302957  0  0.67137  0.959669  0  2.384821  0
Zn  Zn9  1  0.45111118  0.69352920  0.23103173  1  1.316512  0  0.670153  0.95846  0  2.398119  0
Zn  Zn10  1  0.62593232  0.69200586  0.22989066  1  1.314064  0  0.670386  0.963475  0  2.362382  0
Zn  Zn11  1  0.46019532  0.85191222  0.22607163  1  1.314178  0  0.670411  0.963536  0  2.363185  0
Zn  Zn12  1  0.03619902  0.90032373  0.02484671  1  1.31408  0  0.670631  0.95819  0  2.391403  0
Zn  Zn13  1  0.05043372  0.05579743  0.01842178  1  1.318165  0  0.671165  0.958731  0  2.385219  0
Zn  Zn14  1  0.87436639  0.05898956  0.01956782  1  1.313578  0  0.66995  0.961864  0  2.372613  0
Zn  Zn15  1  0.03785197  0.98490346  0.93704307  1  1.319867  0  0.670444  0.963342  0  2.364146  0
H  H16  1  0.90803504  0.29175368  0.60453294  1  0.090066  0  0.106023  0.112718  0  0.996566  0
H  H17  1  0.81306800  0.24419550  0.65200473  1  0.089224  0  0.105827  0.112219  0  0.997204  0
H  H18  1  0.54060516  0.48466982  0.62150248  1  0.036269  0  0.097728  0.1082  0  0.9802  0
H  H19  1  0.54584397  0.52474344  0.66700556  1  0.079669  0  0.096949  0.108359  0  0.985408  0
H  H20  1  0.64222179  0.57306574  0.61880350  1  0.05564  0  0.096588  0.10728  0  0.986345  0
H  H21  1  0.63687435  0.53295081  0.57334944  1  0.050713  0  0.096654  0.10544  0  0.985618  0
H  H22  1  0.19593052  0.55289092  0.34365546  1  0.088879  0  0.106781  0.114226  0  0.99481  0
H  H23  1  0.29093182  0.60038861  0.29617902  1  0.074644  0  0.106365  0.11298  0  0.995097  0
H  H24  1  0.35338481  0.67471431  0.43171226  1  0.050247  0  0.096479  0.105047  0  0.985841  0
H  H25  1  0.26252213  0.76302267  0.42899774  1  0.023135  0  0.096795  0.106828  0  0.986647  0
H  H26  1  0.16600478  0.71486808  0.47722663  1  0.075315  0  0.099187  0.110555  0  0.978819  0
H  H27  1  0.25691424  0.62659760  0.47990153  1  0.062125  0  0.098579  0.109175  0  0.981096  0
H  H28  1  0.90765393  0.55285420  0.34365293  1  0.055092  0  0.106554  0.113039  0  0.995152  0
H  H29  1  0.81275392  0.60036248  0.29612528  1  0.062325  0  0.106814  0.113755  0  0.994346  0
H  H30  1  0.54548613  0.76312545  0.42894345  1  0.055497  0  0.096138  0.107066  0  0.986248  0
H  H31  1  0.54017404  0.67485327  0.43162325  1  0.060362  0  0.096929  0.106242  0  0.985081  0
H  H32  1  0.63656681  0.62657169  0.47978639  1  0.054791  0  0.096801  0.106087  0  0.984634  0
H  H33  1  0.64199168  0.71477844  0.47718361  1  0.061065  0  0.096574  0.107464  0  0.98591  0
H  H34  1  0.20911629  0.50585809  0.59793822  1  0.082576  0  0.106115  0.112851  0  0.995784  0
H  H35  1  0.30412686  0.45832778  0.64542387  1  0.078298  0  0.10555  0.112157  0  0.997826  0
H  H36  1  0.33393077  0.17705978  0.63116918  1  0.075303  0  0.099164  0.109771  0  0.979416  0
H  H37  1  0.24303089  0.21714133  0.67662905  1  0.051866  0  0.099198  0.109808  0  0.979226  0
H  H38  1  0.14663551  0.26535101  0.62849144  1  0.052228  0  0.098767  0.109193  0  0.980213  0
H  H39  1  0.23749616  0.22525501  0.58301831  1  0.040544  0  0.09913  0.110175  0  0.979262  0
H  H40  1  0.59203941  0.19724025  0.90656591  1  0.051975  0  0.106548  0.113136  0  0.995885  0
H  H41  1  0.68718899  0.14974483  0.95397876  1  0.059955  0  0.107134  0.114191  0  0.994231  0
H  H42  1  0.95936690  0.07545879  0.81838307  1  0.066935  0  0.098806  0.108892  0  0.979769  0
H  H43  1  0.95414899  0.98717580  0.82105275  1  0.076642  0  0.098913  0.110071  0  0.978932  0
H  H44  1  0.85771360  0.03530510  0.77287024  1  0.060014  0  0.096476  0.107073  0  0.98647  0
H  H45  1  0.86298904  0.12358491  0.77023379  1  0.056876  0  0.098325  0.108852  0  0.980108  0
H  H46  1  0.29077967  0.10021982  0.79607368  1  0.060812  0  0.105888  0.112283  0  0.996721  0
H  H47  1  0.19576510  0.05274228  0.84354525  1  0.082029  0  0.106163  0.112881  0  0.995432  0
H  H48  1  0.16591982  0.21467400  0.97713853  1  0.069942  0  0.096438  0.106658  0  0.986199  0
H  H49  1  0.25686678  0.12642131  0.97979477  1  0.059316  0  0.097303  0.106683  0  0.984403  0
H  H50  1  0.35324941  0.17455014  0.93160862  1  0.055288  0  0.098641  0.108712  0  0.9803  0
H  H51  1  0.26240244  0.26282063  0.92893963  1  0.023115  0  0.099465  0.11057  0  0.978451  0
H  H52  1  0.29077941  0.74443785  0.15203272  1  0.089412  0  0.106411  0.11325  0  0.994933  0
H  H53  1  0.19584892  0.79183792  0.10452625  1  0.082955  0  0.10603  0.112636  0  0.997171  0
H  H54  1  0.25694988  0.03307413  0.07326639  1  0.04717  0  0.096913  0.105921  0  0.984377  0
H  H55  1  0.16591274  0.07319015  0.11869354  1  0.062683  0  0.096931  0.107349  0  0.9858  0
H  H56  1  0.26226721  0.02498542  0.16693389  1  0.084228  0  0.09939  0.110678  0  0.978551  0
H  H57  1  0.35321032  0.98486320  0.12149377  1  0.054505  0  0.098881  0.109551  0  0.979724  0
H  H58  1  0.59193776  0.95834834  0.14545422  1  0.089743  0  0.10611  0.112856  0  0.996603  0
H  H59  1  0.68694129  0.00581115  0.09793211  1  0.087908  0  0.106834  0.113749  0  0.994602  0
H  H60  1  0.95414154  0.72522034  0.08298042  1  0.078254  0  0.096705  0.107491  0  0.986824  0
H  H61  1  0.95939705  0.76537563  0.12844615  1  0.038256  0  0.098017  0.108579  0  0.979755  0
H  H62  1  0.86316431  0.71717076  0.17663003  1  0.054308  0  0.098706  0.10879  0  0.979905  0
H  H63  1  0.85784440  0.67693561  0.13122351  1  0.056138  0  0.098915  0.109893  0  0.979685  0
C  C64  1  0.86270330  0.56843893  0.43029903  1  1.560169  0  0.227012  0.608053  0  4.176901  0
C  C65  1  0.12283885  0.31611955  0.43862119  1  1.58063  0  0.214973  0.620809  0  4.209413  0
C  C66  1  0.86330957  0.42943803  0.56896636  1  1.559968  0  0.22834  0.610539  0  4.17292  0
C  C67  1  0.13851305  0.43221212  0.56893736  1  1.564973  0  0.227155  0.608611  0  4.175693  0
C  C68  1  0.87694624  0.68364245  0.56100481  1  1.590177  0  0.215607  0.620529  0  4.209149  0
C  C69  1  0.13800583  0.56901351  0.43029524  1  1.520319  0  0.228504  0.60839  0  4.178735  0
C  C70  1  0.63986522  0.31780931  0.68093973  1  1.572102  0  0.22752  0.608402  0  4.175676  0
C  C71  1  0.37755332  0.43397110  0.81101719  1  1.571274  0  0.215138  0.621044  0  4.211126  0
C  C72  1  0.63658812  0.18158592  0.81993779  1  1.564336  0  0.227471  0.60731  0  4.175983  0
C  C73  1  0.36140811  0.18047057  0.81840050  1  1.558033  0  0.227594  0.609715  0  4.17656  0
C  C74  1  0.62290243  0.06624136  0.68873342  1  1.583818  0  0.216359  0.620774  0  4.209488  0
C  C75  1  0.36236683  0.32020485  0.68054500  1  1.565339  0  0.226991  0.60847  0  4.174383  0
C  C76  1  0.36193512  0.68013350  0.31863841  1  1.555383  0  0.227256  0.608872  0  4.175967  0
C  C77  1  0.62244132  0.56614505  0.18859535  1  1.522938  0  0.21638  0.621895  0  4.210654  0
C  C78  1  0.63949799  0.68008064  0.31840378  1  1.564858  0  0.227107  0.609185  0  4.172902  0
C  C79  1  0.63666954  0.82039641  0.18073853  1  1.55504  0  0.227567  0.61137  0  4.173191  0
C  C80  1  0.37742635  0.93308378  0.31152982  1  1.551991  0  0.215797  0.622242  0  4.207335  0
C  C81  1  0.36124672  0.81826853  0.18097640  1  1.534279  0  0.228113  0.609022  0  4.177818  0
C  C82  1  0.13814126  0.92969536  0.06906973  1  1.559207  0  0.227095  0.608565  0  4.172264  0
C  C83  1  0.87868936  0.18361421  0.06119025  1  1.599782  0  0.214987  0.619261  0  4.214878  0
C  C84  1  0.86013308  0.93231927  0.06924787  1  1.572213  0  0.227955  0.61001  0  4.17559  0
C  C85  1  0.86040355  0.06975761  0.93149370  1  1.557824  0  0.226656  0.608561  0  4.175997  0
C  C86  1  0.12193314  0.81605810  0.93904094  1  1.566582  0  0.216124  0.623872  0  4.207664  0
C  C87  1  0.13827382  0.06824971  0.93018457  1  1.545275  0  0.228148  0.608965  0  4.174638  0
C  C88  1  0.73750016  0.80293227  0.60092850  1  -0.07437  0  -0.023072  0.061993  0  3.993739  0
C  C89  1  0.76244917  0.94676871  0.64903646  1  -0.065274  0  -0.022963  0.06128  0  3.994688  0
C  C90  1  0.82556381  0.75836996  0.58609391  1  -0.090872  0  -0.028309  -0.168309  0  3.933774  0
C  C91  1  0.67435554  0.99133781  0.66383373  1  -0.089641  0  -0.02853  -0.167302  0  3.931752  0
C  C92  1  0.78555144  0.87812337  0.62608863  1  -0.086481  0  -0.029137  -0.059476  0  4.097524  0
C  C93  1  0.71441847  0.87158789  0.62385002  1  -0.099637  0  -0.029659  -0.061198  0  4.099682  0
C  C94  1  0.20206207  0.22690395  0.36884776  1  0.061237  0  -0.022524  0.062919  0  3.992695  0
C  C95  1  0.29819601  0.02245803  0.38125765  1  0.032112  0  -0.022925  0.062719  0  3.992476  0
C  C96  1  0.17249592  0.24211125  0.41290308  1  -0.131091  0  -0.028334  -0.168531  0  3.933705  0
C  C97  1  0.32778090  0.00717132  0.33722447  1  -0.085242  0  -0.028408  -0.169059  0  3.935143  0
C  C98  1  0.25237403  0.10248164  0.39283371  1  -0.188793  0  -0.029664  -0.060967  0  4.100194  0
C  C99  1  0.24789589  0.14687056  0.35727726  1  -0.191307  0  -0.029128  -0.059803  0  4.097353  0
C  C100  1  0.69624344  0.34653788  0.65244709  1  0.063544  0  -0.014413  -0.079763  0  3.977626  0
C  C101  1  0.80609319  0.40152808  0.59749162  1  0.006389  0  -0.013856  -0.079672  0  3.977595  0
C  C102  1  0.66419618  0.41908636  0.63647033  1  -0.025294  0  -0.001685  0.066501  0  3.877378  0
C  C103  1  0.83908246  0.32791880  0.61352772  1  -0.040386  0  -0.083675  -0.099552  0  3.983054  0
C  C104  1  0.71753222  0.44582130  0.60978449  1  -0.028704  0  -0.001868  0.064937  0  3.877963  0
C  C105  1  0.78588325  0.30128036  0.64013810  1  -0.10395  0  -0.082535  -0.097715  0  3.981982  0
C  C106  1  0.58347174  0.49213522  0.63593642  1  -0.028825  0  -0.151132  -0.19994  0  3.884035  0
C  C107  1  0.64384767  0.52240552  0.60573594  1  -0.02554  0  -0.151581  -0.198621  0  3.8856  0
C  C108  1  0.30498752  0.65209635  0.34719838  1  0.001537  0  -0.01349  -0.081026  0  3.982176  0
C  C109  1  0.19503373  0.59733461  0.40209242  1  -0.004989  0  -0.013607  -0.077555  0  3.978822  0
C  C110  1  0.28042804  0.66442924  0.39144109  1  -0.008199  0  -0.002329  0.065085  0  3.880974  0
C  C111  1  0.21967741  0.58448489  0.35725862  1  -0.049595  0  -0.08311  -0.100077  0  3.980383  0
C  C112  1  0.22700397  0.63781061  0.41811666  1  -0.065929  0  -0.00258  0.064141  0  3.883589  0
C  C113  1  0.27292711  0.61105541  0.33066268  1  0.01786  0  -0.082173  -0.095972  0  3.980529  0
C  C114  1  0.28859505  0.70011566  0.42824352  1  0.02606  0  -0.151935  -0.1984  0  3.885021  0
C  C115  1  0.22812142  0.66993583  0.45845562  1  -0.035888  0  -0.150969  -0.200645  0  3.88611  0
C  C116  1  0.69586465  0.65212643  0.34705696  1  -0.002456  0  -0.01218  -0.077185  0  3.974727  0
C  C117  1  0.80560941  0.59718533  0.40206228  1  -0.075896  0  -0.013786  -0.079559  0  3.978695  0
C  C118  1  0.66376560  0.66448308  0.39132913  1  0.003987  0  -0.001425  0.065651  0  3.877624  0
C  C119  1  0.83869399  0.58446165  0.35723645  1  0.021903  0  -0.081587  -0.095899  0  3.979147  0
C  C120  1  0.71709044  0.63779337  0.41802803  1  0.009483  0  -0.002254  0.065191  0  3.88118  0
C  C121  1  0.78551853  0.61110548  0.33060119  1  -0.013836  0  -0.083792  -0.100004  0  3.981523  0
C  C122  1  0.58306282  0.70021390  0.42815464  1  -0.045753  0  -0.152108  -0.200082  0  3.883318  0
C  C123  1  0.64348931  0.66994790  0.45836841  1  -0.023518  0  -0.151351  -0.198792  0  3.883666  0
C  C124  1  0.30505108  0.34847119  0.65238867  1  0.019401  0  -0.012916  -0.079201  0  3.978324  0
C  C125  1  0.19507731  0.40351914  0.59747469  1  -0.046289  0  -0.013271  -0.079817  0  3.978727  0
C  C126  1  0.27295321  0.30427761  0.64017133  1  -0.021772  0  -0.001329  0.066149  0  3.880121  0
C  C127  1  0.22713049  0.44877918  0.60980612  1  -0.018178  0  -0.083765  -0.099281  0  3.9845  0
C  C128  1  0.21955216  0.33099154  0.61347835  1  -0.039169  0  -0.002681  0.06486  0  3.878763  0
C  C129  1  0.28036834  0.42215078  0.63640545  1  0.003121  0  -0.084577  -0.100173  0  3.984339  0
C  C130  1  0.27182590  0.22769632  0.64424984  1  -0.037715  0  -0.150101  -0.199221  0  3.884911  0
C  C131  1  0.21138764  0.25792209  0.61406319  1  -0.013587  0  -0.151476  -0.201781  0  3.886021  0
C  C132  1  0.29814597  0.58323084  0.82081550  1  0.045666  0  -0.023551  0.060464  0  3.995495  0
C  C133  1  0.20185861  0.66681332  0.92925153  1  0.044972  0  -0.022936  0.061809  0  3.996636  0
C  C134  1  0.32765805  0.50953590  0.83520564  1  -0.137482  0  -0.028426  -0.167601  0  3.934403  0
C  C135  1  0.17220212  0.74049904  0.91485491  1  -0.136075  0  -0.028689  -0.169243  0  3.934904  0
C  C136  1  0.24776006  0.60945229  0.89502061  1  -0.170596  0  -0.029909  -0.060697  0  4.100299  0
C  C137  1  0.25225101  0.64059130  0.85504846  1  -0.171273  0  -0.029602  -0.060175  0  4.099781  0
C  C138  1  0.80390587  0.09797249  0.90294219  1  0.011421  0  -0.013147  -0.078205  0  3.977394  0
C  C139  1  0.69384630  0.15290377  0.84810130  1  -0.080829  0  -0.013101  -0.077379  0  3.978179  0
C  C140  1  0.83584179  0.08566427  0.85868354  1  0.004954  0  -0.001459  0.06517  0  3.879929  0
C  C141  1  0.66098425  0.16562397  0.89292293  1  0.014196  0  -0.083579  -0.100158  0  3.985741  0
C  C142  1  0.78239919  0.11235410  0.83201867  1  0.023758  0  -0.002807  0.063841  0  3.876887  0
C  C143  1  0.71427577  0.13904617  0.91949806  1  -0.009222  0  -0.083672  -0.099295  0  3.981257  0
C  C144  1  0.91649877  0.05007574  0.82186615  1  -0.067786  0  -0.151097  -0.199684  0  3.883975  0
C  C145  1  0.85607844  0.08023236  0.79166745  1  -0.029147  0  -0.151143  -0.199913  0  3.885087  0
C  C146  1  0.19488809  0.09707420  0.90197539  1  -0.011602  0  -0.013853  -0.07873  0  3.977356  0
C  C147  1  0.30476134  0.15206792  0.84703830  1  0.002393  0  -0.013828  -0.082052  0  3.978482  0
C  C148  1  0.22687982  0.13759339  0.91799554  1  -0.044196  0  -0.001935  0.065148  0  3.877664  0
C  C149  1  0.27271764  0.11096551  0.83055052  1  0.02898  0  -0.083541  -0.097635  0  3.983911  0
C  C150  1  0.28023532  0.16431797  0.89131164  1  0.005084  0  -0.002408  0.064769  0  3.879368  0
C  C151  1  0.21949433  0.08435180  0.85714749  1  -0.056277  0  -0.083713  -0.100171  0  3.984084  0
C  C152  1  0.22803697  0.16973647  0.95833899  1  -0.028816  0  -0.151782  -0.199745  0  3.885455  0
C  C153  1  0.28848234  0.19991975  0.92812605  1  0.004086  0  -0.15068  -0.198591  0  3.883838  0
C  C154  1  0.64206076  0.44678785  0.14894648  1  -0.068406  0  -0.022827  0.06317  0  3.992717  0
C  C155  1  0.85899039  0.30294342  0.10090946  1  -0.055952  0  -0.022456  0.063117  0  3.994266  0
C  C156  1  0.67086104  0.49127171  0.16375057  1  -0.063908  0  -0.02837  -0.167466  0  3.933473  0
C  C157  1  0.83028036  0.25842786  0.08609665  1  -0.150862  0  -0.028928  -0.169379  0  3.937876  0
C  C158  1  0.79048571  0.37156254  0.12383127  1  -0.087922  0  -0.029898  -0.060556  0  4.101525  0
C  C159  1  0.71056462  0.37811178  0.12604652  1  -0.109046  0  -0.028942  -0.061543  0  4.100465  0
C  C160  1  0.19501480  0.90165781  0.09743183  1  -0.024841  0  -0.012782  -0.079315  0  3.979184  0
C  C161  1  0.30474441  0.84686071  0.15243908  1  -0.009284  0  -0.013411  -0.080313  0  3.981725  0
C  C162  1  0.22696832  0.94595574  0.10968135  1  -0.007724  0  -0.002125  0.065756  0  3.87989  0
C  C163  1  0.27276698  0.80149822  0.14013239  1  0.013259  0  -0.082341  -0.096344  0  3.979674  0
C  C164  1  0.28023676  0.91933009  0.13642062  1  -0.031182  0  -0.001644  0.065887  0  3.88304  0
C  C165  1  0.21959385  0.82806604  0.11350128  1  -0.022154  0  -0.084477  -0.100489  0  3.984262  0
C  C166  1  0.22805379  0.02255656  0.10563751  1  -0.017764  0  -0.150388  -0.198027  0  3.883423  0
C  C167  1  0.28842006  0.99235360  0.13587567  1  -0.061766  0  -0.15186  -0.201421  0  3.883878  0
C  C168  1  0.80372567  0.90346505  0.09753156  1  0.064635  0  -0.014412  -0.080987  0  3.980456  0
C  C169  1  0.69389263  0.84849479  0.15241880  1  0.017613  0  -0.013866  -0.08054  0  3.97961  0
C  C170  1  0.83580236  0.83090550  0.11346841  1  -0.025383  0  -0.001828  0.066409  0  3.877826  0
C  C171  1  0.66088563  0.92212839  0.13642444  1  -0.041122  0  -0.083992  -0.100345  0  3.984124  0
C  C172  1  0.78245171  0.80417917  0.14014765  1  -0.033952  0  -0.001866  0.064522  0  3.878352  0
C  C173  1  0.71409580  0.94874898  0.10981706  1  -0.102224  0  -0.082296  -0.097111  0  3.98159  0
C  C174  1  0.91652220  0.75788496  0.11403264  1  -0.02906  0  -0.151303  -0.200768  0  3.885786  0
C  C175  1  0.85615605  0.72764351  0.14424982  1  -0.026662  0  -0.150861  -0.199022  0  3.884802  0
S  S176  1  0.88029365  0.80061830  0.60025168  1  0.293359  0  0.091279  0.151807  0  2.777653  0
S  S177  1  0.61966214  0.94910608  0.64964684  1  0.293133  0  0.090637  0.150867  0  2.778507  0
S  S178  1  0.20080285  0.15830470  0.44022431  1  0.308845  0  0.090042  0.149901  0  2.781559  0
S  S179  1  0.29950403  0.09097094  0.30989905  1  0.303324  0  0.091635  0.152364  0  2.779322  0
S  S180  1  0.29930266  0.51044247  0.89077088  1  0.314659  0  0.091851  0.152034  0  2.779275  0
S  S181  1  0.20061622  0.73959649  0.85929112  1  0.316279  0  0.091312  0.151563  0  2.779824  0
S  S182  1  0.78196709  0.44900211  0.14964010  1  0.313529  0  0.089994  0.149407  0  2.78149  0
S  S183  1  0.71915239  0.30064969  0.10021910  1  0.338926  0  0.09331  0.155234  0  2.778706  0
Br  Br184  1  0.65390540  0.78040474  0.59335550  1  0.003908  0  0.045632  -0.013236  0  1.401097  0
Br  Br185  1  0.84601744  0.96923125  0.65663726  1  0.008502  0  0.045978  -0.010677  0  1.397481  0
Br  Br186  1  0.18698973  0.29882175  0.32712243  1  0.014902  0  0.046551  -0.008065  0  1.391798  0
Br  Br187  1  0.31334502  0.95051753  0.42303720  1  0.012905  0  0.045091  -0.014084  0  1.402144  0
Br  Br188  1  0.31337044  0.60996195  0.76398670  1  0.007088  0  0.045322  -0.011282  0  1.397585  0
Br  Br189  1  0.18668477  0.64012133  0.98606903  1  0.008373  0  0.046987  -0.009527  0  1.398396  0
Br  Br190  1  0.52844881  0.46942149  0.15642921  1  0.010565  0  0.046053  -0.008819  0  1.392234  0
Br  Br191  1  0.97272911  0.28025659  0.09336857  1  0.001993  0  0.045429  -0.01373  0  1.401933  0
O  O192  1  0.00058756  0.49970027  0.50033398  1  -1.209232  0  -0.571377  -1.028289  0  2.530271  0
O  O193  1  0.82622529  0.58308056  0.47040977  1  -1.171936  0  -0.311923  -0.541374  0  2.332806  0
O  O194  1  0.10216613  0.37690990  0.41848539  1  -1.182312  0  -0.313629  -0.537193  0  2.388301  0
O  O195  1  0.94351222  0.38438564  0.55946527  1  -1.171933  0  -0.315259  -0.547593  0  2.333683  0
O  O196  1  0.94286151  0.53174479  0.41242177  1  -1.163887  0  -0.31465  -0.543977  0  2.34256  0
O  O197  1  0.82650013  0.49694190  0.55630552  1  -1.168772  0  -0.311723  -0.540049  0  2.333449  0
O  O198  1  0.10504754  0.31216004  0.47918838  1  -1.148292  0  -0.319236  -0.543801  0  2.31614  0
O  O199  1  0.11407863  0.38606215  0.55945039  1  -1.171905  0  -0.311763  -0.540769  0  2.33284  0
O  O200  1  0.95803487  0.65664848  0.55168075  1  -1.151261  0  -0.319042  -0.54168  0  2.317393  0
O  O201  1  0.11917989  0.49981325  0.55635275  1  -1.175804  0  -0.315659  -0.547915  0  2.336866  0
O  O202  1  0.83683844  0.65289572  0.55090052  1  -1.169744  0  -0.31436  -0.539693  0  2.384599  0
O  O203  1  0.11294291  0.53191783  0.41232520  1  -1.17154  0  -0.314728  -0.543315  0  2.344  0
O  O204  1  0.11878952  0.58445586  0.47036247  1  -1.152058  0  -0.312217  -0.543249  0  2.333849  0
O  O205  1  0.49936204  0.24967421  0.75028224  1  -1.224938  0  -0.571029  -1.027695  0  2.528139  0
O  O206  1  0.67549895  0.25050565  0.69385616  1  -1.17456  0  -0.315079  -0.546218  0  2.338859  0
O  O207  1  0.39871734  0.43370715  0.77054050  1  -1.133422  0  -0.314826  -0.539772  0  2.38681  0
O  O208  1  0.55636211  0.21857213  0.83765445  1  -1.17506  0  -0.315453  -0.547407  0  2.335132  0
O  O209  1  0.55971685  0.36361465  0.69013692  1  -1.168287  0  -0.310285  -0.538284  0  2.334826  0
O  O210  1  0.67345958  0.16644391  0.77987647  1  -1.16822  0  -0.311951  -0.539173  0  2.337429  0
O  O211  1  0.39503581  0.37515779  0.83331799  1  -1.18143  0  -0.318352  -0.542351  0  2.317815  0
O  O212  1  0.38585105  0.21778916  0.83671353  1  -1.16823  0  -0.311312  -0.540489  0  2.334139  0
O  O213  1  0.54180372  0.09396830  0.69745407  1  -1.152545  0  -0.31891  -0.541735  0  2.315086  0
O  O214  1  0.38075441  0.16552574  0.77830336  1  -1.171801  0  -0.315182  -0.547366  0  2.335934  0
O  O215  1  0.66308656  0.09648429  0.69924573  1  -1.166233  0  -0.314314  -0.539132  0  2.385845  0
O  O216  1  0.38791833  0.36546223  0.68992730  1  -1.172161  0  -0.316059  -0.546149  0  2.337904  0
O  O217  1  0.38132222  0.25246947  0.69292687  1  -1.170214  0  -0.311207  -0.541864  0  2.333509  0
O  O218  1  0.50068100  0.75030723  0.24970714  1  -1.216429  0  -0.571216  -1.028192  0  2.530468  0
O  O219  1  0.38743201  0.71661486  0.33686906  1  -1.174619  0  -0.311935  -0.542028  0  2.332954  0
O  O220  1  0.54151633  0.59646484  0.19889224  1  -1.139599  0  -0.314094  -0.537686  0  2.38795  0
O  O221  1  0.67510497  0.66566317  0.27830861  1  -1.172804  0  -0.314836  -0.54703  0  2.33388  0
O  O222  1  0.38072489  0.66563113  0.27856797  1  -1.16302  0  -0.313715  -0.542169  0  2.342203  0
O  O223  1  0.55932733  0.71644930  0.33679643  1  -1.170346  0  -0.311934  -0.54105  0  2.334418  0
O  O224  1  0.66694109  0.59385809  0.19752548  1  -1.160176  0  -0.319782  -0.544401  0  2.31832  0
O  O225  1  0.67336812  0.75255482  0.19297437  1  -1.170467  0  -0.311617  -0.542331  0  2.333474  0
O  O226  1  0.39503206  0.93731698  0.27099219  1  -1.141888  0  -0.318555  -0.5425  0  2.316299  0
O  O227  1  0.55647324  0.86574196  0.19041776  1  -1.171237  0  -0.315412  -0.54765  0  2.334235  0
O  O228  1  0.39807393  0.87218260  0.33159055  1  -1.164199  0  -0.314496  -0.539914  0  2.383828  0
O  O229  1  0.38044926  0.75066201  0.19349358  1  -1.171874  0  -0.314865  -0.543382  0  2.343223  0
O  O230  1  0.38579645  0.86421162  0.19060750  1  -1.173348  0  -0.311894  -0.542849  0  2.331276  0
O  O231  1  0.99946062  0.00028203  0.99965367  1  -1.234537  0  -0.571158  -1.027427  0  2.531391  0
O  O232  1  0.11204448  0.88476868  0.05988321  1  -1.170942  0  -0.315285  -0.545341  0  2.33793  0
O  O233  1  0.95967911  0.15284251  0.05095889  1  -1.156628  0  -0.314673  -0.540332  0  2.386022  0
O  O234  1  0.82467861  0.00000318  0.05678382  1  -1.175558  0  -0.315275  -0.547124  0  2.337221  0
O  O235  1  0.12012854  0.99706698  0.05625198  1  -1.165974  0  -0.311489  -0.54062  0  2.334178  0
O  O236  1  0.94024506  0.88617351  0.05986079  1  -1.168861  0  -0.31092  -0.538532  0  2.334956  0
O  O237  1  0.83381077  0.15645792  0.05218790  1  -1.164273  0  -0.317669  -0.538313  0  2.322193  0
O  O238  1  0.82473756  0.08524217  0.97154168  1  -1.172934  0  -0.314236  -0.544527  0  2.337604  0
O  O239  1  0.10349275  0.87482181  0.91669331  1  -1.182003  0  -0.319518  -0.543873  0  2.316235  0
O  O240  1  0.94048914  0.03212556  0.91317887  1  -1.176138  0  -0.311675  -0.542609  0  2.33326  0
O  O241  1  0.10142561  0.81632541  0.97950284  1  -1.131778  0  -0.31411  -0.53951  0  2.38657  0
O  O242  1  0.12032165  0.08293461  0.97026273  1  -1.169232  0  -0.311906  -0.539809  0  2.33422  0
O  O243  1  0.11253331  0.03155731  0.91240962  1  -1.175741  0  -0.314798  -0.546564  0  2.33452  0
