# generated using pymatgen
data_U2H18PtC26(NO)10
_symmetry_space_group_name_H-M   'P 1'
_cell_length_a   9.70491388
_cell_length_b   9.70493617
_cell_length_c   9.77250880
_cell_angle_alpha   99.83060040
_cell_angle_beta   99.83087940
_cell_angle_gamma   104.11120396
_symmetry_Int_Tables_number   1
_chemical_formula_structural   U2H18PtC26(NO)10
_chemical_formula_sum   'U2 H18 Pt1 C26 N10 O10'
_cell_volume   857.55253040
_cell_formula_units_Z   1
loop_
 _symmetry_equiv_pos_site_id
 _symmetry_equiv_pos_as_xyz
  1  'x, y, z'
loop_
 _atom_site_type_symbol
 _atom_site_label
 _atom_site_symmetry_multiplicity
 _atom_site_fract_x
 _atom_site_fract_y
 _atom_site_fract_z
 _atom_site_occupancy
 _atom_site_hle17_bader_spin_density
 _atom_site_hle17_ddec_charge
 _atom_site_hle17_ddec_spin_density
 _atom_site_hle17_ddec_sum_bond_order
 _atom_site_hle17_magmom
 _atom_site_hse06_10hf_bader_spin_density
 _atom_site_hse06_10hf_ddec_charge
 _atom_site_hse06_10hf_ddec_spin_density
 _atom_site_hse06_10hf_ddec_sum_bond_order
 _atom_site_hse06_10hf_magmom
 _atom_site_hse06_bader_spin_density
 _atom_site_hse06_ddec_charge
 _atom_site_hse06_ddec_spin_density
 _atom_site_hse06_ddec_sum_bond_order
 _atom_site_hse06_magmom
 _atom_site_pbe_bader_spin_density
 _atom_site_pbe_cm5_charge
 _atom_site_pbe_ddec_charge
 _atom_site_pbe_ddec_spin_density
 _atom_site_pbe_ddec_sum_bond_order
 _atom_site_pbe_magmom
U  U0  1  0.12497021  0.87503026  0.49999944  1  0  2.489258  0  4.174408  0  0  2.563959  0  4.830472  0  0  2.676622  0  4.791574  0  0  2.161618  2.483017  0  4.858818  0
U  U1  1  0.87502968  0.12496797  0.50000059  1  0  2.489092  0  4.174673  0  0  2.563829  0  4.830682  0  0  2.67656  0  4.791743  0  0  2.161579  2.482918  0  4.859004  0
H  H2  1  0.71633305  0.20588729  0.77996181  1  0  0.135855  0  0.989352  0  0  0.139677  0  1.055448  0  0  0.144414  0  1.053047  0  0  0.120188  0.136223  0  1.057312  0
H  H3  1  0.79411405  0.28366897  0.22003615  1  0  0.13585  0  0.989325  0  0  0.139684  0  1.055411  0  0  0.144418  0  1.053016  0  0  0.120185  0.136228  0  1.057273  0
H  H4  1  0.28366881  0.79411421  0.22003708  1  0  0.13584  0  0.989335  0  0  0.139673  0  1.055422  0  0  0.144407  0  1.053028  0  0  0.120185  0.136218  0  1.057285  0
H  H5  1  0.20588300  0.71633033  0.77996460  1  0  0.135858  0  0.989263  0  0  0.139652  0  1.055416  0  0  0.144388  0  1.053012  0  0  0.120172  0.136196  0  1.057278  0
H  H6  1  0.49857376  0.99775417  0.64728990  1  0  0.133825  0  0.922431  0  0  0.141276  0  0.982023  0  0  0.144467  0  0.978565  0  0  0.148128  0.138823  0  0.984839  0
H  H7  1  0.00224722  0.50142621  0.35271063  1  0  0.133832  0  0.92243  0  0  0.141285  0  0.982002  0  0  0.144476  0  0.978543  0  0  0.148129  0.138833  0  0.984819  0
H  H8  1  0.50142631  0.00224842  0.35270989  1  0  0.133827  0  0.92236  0  0  0.141281  0  0.981957  0  0  0.144473  0  0.978498  0  0  0.148127  0.138831  0  0.984773  0
H  H9  1  0.99775087  0.49857309  0.64729133  1  0  0.13382  0  0.922388  0  0  0.141263  0  0.982006  0  0  0.144453  0  0.978551  0  0  0.14812  0.138811  0  0.984818  0
H  H10  1  0.27555332  0.06508056  0.96839208  1  0  0.131438  0  0.898076  0  0  0.143367  0  0.949815  0  0  0.146909  0  0.946337  0  0  0.146543  0.140712  0  0.952547  0
H  H11  1  0.93492188  0.72444975  0.03161071  1  0  0.131479  0  0.898079  0  0  0.143417  0  0.949786  0  0  0.146958  0  0.946312  0  0  0.146561  0.140764  0  0.952517  0
H  H12  1  0.72444853  0.93492093  0.03160988  1  0  0.131482  0  0.898085  0  0  0.143422  0  0.949793  0  0  0.146965  0  0.946317  0  0  0.146571  0.140768  0  0.952523  0
H  H13  1  0.06507935  0.27554956  0.96839076  1  0  0.131443  0  0.898103  0  0  0.143387  0  0.949816  0  0  0.14693  0  0.946339  0  0  0.146563  0.140737  0  0.952545  0
H  H14  1  0.48549675  0.27072135  0.11688896  1  0  0.126805  0  0.953349  0  0  0.134161  0  1.013298  0  0  0.136277  0  1.01414  0  0  0.114892  0.132584  0  1.013023  0
H  H15  1  0.72928131  0.51450778  0.88311004  1  0  0.126834  0  0.953348  0  0  0.1342  0  1.013281  0  0  0.136315  0  1.014124  0  0  0.114904  0.132625  0  1.013006  0
H  H16  1  0.51450645  0.72928124  0.88311035  1  0  0.126782  0  0.953382  0  0  0.134154  0  1.013308  0  0  0.13627  0  1.01415  0  0  0.114887  0.132582  0  1.01303  0
H  H17  1  0.27071994  0.48549154  0.11688939  1  0  0.126818  0  0.953403  0  0  0.134186  0  1.013328  0  0  0.136302  0  1.014169  0  0  0.114899  0.13261  0  1.013047  0
H  H18  1  0.16680680  0.16680591  0.65291886  1  0  0.415401  0  0.893705  0  0  0.391488  0  0.952156  0  0  0.403778  0  0.934835  0  0  0.290332  0.382996  0  0.964008  0
H  H19  1  0.83319475  0.83319450  0.34708081  1  0  0.415241  0  0.893918  0  0  0.391302  0  0.952422  0  0  0.403594  0  0.935099  0  0  0.290275  0.382809  0  0.964276  0
Pt  Pt20  1  0.49999823  0.49999857  0.49999860  1  0  0.336833  0  5.024035  0  0  0.42904  0  5.530788  0  0  0.411782  0  5.535679  0  0  0.858584  0.442406  0  5.526688  0
C  C21  1  0.36930722  0.63069047  0.49999950  1  0  0.15207  0  3.513847  0  0  0.126544  0  3.83178  0  0  0.143719  0  3.841802  0  0  0.056063  0.114934  0  3.824301  0
C  C22  1  0.63069028  0.36930666  0.49999892  1  0  0.15211  0  3.513769  0  0  0.126582  0  3.83171  0  0  0.143761  0  3.841733  0  0  0.056093  0.114975  0  3.82423  0
C  C23  1  0.61906245  0.25642094  0.95951513  1  0  0.093929  0  3.741406  0  0  0.100781  0  3.981215  0  0  0.105368  0  4.000532  0  0  0.014567  0.097697  0  3.968758  0
C  C24  1  0.74358093  0.38093970  0.04048364  1  0  0.093942  0  3.741407  0  0  0.100837  0  3.981176  0  0  0.105426  0  4.000489  0  0  0.014596  0.097753  0  3.968718  0
C  C25  1  0.38093940  0.74358056  0.04048478  1  0  0.093955  0  3.741306  0  0  0.100841  0  3.981076  0  0  0.105449  0  4.000374  0  0  0.01459  0.097759  0  3.968611  0
C  C26  1  0.25641791  0.61905852  0.95951723  1  0  0.093863  0  3.741433  0  0  0.100746  0  3.981194  0  0  0.105303  0  4.000547  0  0  0.014567  0.097662  0  3.968735  0
C  C27  1  0.62080632  0.17892920  0.82536548  1  0  -0.124659  0  3.682028  0  0  -0.144005  0  3.932619  0  0  -0.150849  0  3.951444  0  0  -0.064584  -0.139875  0  3.920811  0
C  C28  1  0.82107208  0.37919430  0.17463207  1  0  -0.124621  0  3.682033  0  0  -0.144  0  3.932597  0  0  -0.150844  0  3.951419  0  0  -0.064559  -0.139867  0  3.920781  0
C  C29  1  0.37919449  0.82107230  0.17463323  1  0  -0.124624  0  3.682047  0  0  -0.143978  0  3.93261  0  0  -0.150825  0  3.951428  0  0  -0.064555  -0.139843  0  3.920794  0
C  C30  1  0.17892497  0.62080500  0.82536868  1  0  -0.124544  0  3.681943  0  0  -0.143858  0  3.93253  0  0  -0.150695  0  3.951367  0  0  -0.064535  -0.139726  0  3.920716  0
C  C31  1  0.50275019  0.06383475  0.75037505  1  0  0.043106  0  3.560026  0  0  -0.000211  0  3.819271  0  0  0.006811  0  3.831925  0  0  0.067811  -0.00516  0  3.811714  0
C  C32  1  0.93616699  0.49725146  0.24962480  1  0  0.043086  0  3.560015  0  0  -0.000196  0  3.819227  0  0  0.006828  0  3.831878  0  0  0.067816  -0.005147  0  3.81167  0
C  C33  1  0.49725166  0.93616675  0.24962384  1  0  0.043119  0  3.559969  0  0  -0.000211  0  3.819223  0  0  0.006811  0  3.831876  0  0  0.067832  -0.005166  0  3.811672  0
C  C34  1  0.06383110  0.50274784  0.75037818  1  0  0.04307  0  3.559986  0  0  -0.00028  0  3.819281  0  0  0.006743  0  3.831931  0  0  0.067818  -0.005232  0  3.811724  0
C  C35  1  0.37707403  0.10105056  0.93495633  1  0  0.03156  0  3.577841  0  0  -0.013464  0  3.842496  0  0  -0.005784  0  3.853441  0  0  0.056332  -0.018554  0  3.835705  0
C  C36  1  0.89895136  0.62292847  0.06504437  1  0  0.031429  0  3.577879  0  0  -0.013594  0  3.842529  0  0  -0.005916  0  3.853475  0  0  0.056282  -0.018681  0  3.835739  0
C  C37  1  0.62292782  0.89895093  0.06504460  1  0  0.031459  0  3.577852  0  0  -0.013572  0  3.842517  0  0  -0.005893  0  3.853459  0  0  0.056306  -0.018658  0  3.835729  0
C  C38  1  0.10104809  0.37707192  0.93495699  1  0  0.031548  0  3.577803  0  0  -0.013499  0  3.842481  0  0  -0.005823  0  3.853428  0  0  0.056338  -0.018593  0  3.8357  0
C  C39  1  0.64064958  0.64064839  0.67280597  1  0  0.052638  0  3.538467  0  0  0.017141  0  3.866583  0  0  0.027649  0  3.878907  0  0  0.012256  0.008955  0  3.859331  0
C  C40  1  0.35934419  0.35934657  0.32718835  1  0  0.052619  0  3.538866  0  0  0.017128  0  3.866971  0  0  0.027635  0  3.879297  0  0  0.012267  0.008946  0  3.859716  0
C  C41  1  0.49487242  0.21408309  0.01426406  1  0  -0.121593  0  3.7044  0  0  -0.142334  0  3.959342  0  0  -0.148085  0  3.979212  0  0  -0.069689  -0.138764  0  3.946356  0
C  C42  1  0.78592040  0.50513084  0.98573500  1  0  -0.121554  0  3.704398  0  0  -0.142332  0  3.959343  0  0  -0.148082  0  3.979213  0  0  -0.069687  -0.138766  0  3.946365  0
C  C43  1  0.50512944  0.78591841  0.98573585  1  0  -0.121566  0  3.704372  0  0  -0.142346  0  3.959324  0  0  -0.148099  0  3.979187  0  0  -0.06971  -0.13878  0  3.946342  0
C  C44  1  0.21408114  0.49486956  0.01426569  1  0  -0.121591  0  3.704489  0  0  -0.142357  0  3.959437  0  0  -0.1481  0  3.979316  0  0  -0.069694  -0.138789  0  3.946455  0
C  C45  1  0.60843781  0.60843800  0.37401360  1  0  0.083411  0  3.515817  0  0  0.046307  0  3.838349  0  0  0.055224  0  3.854819  0  0  0.027657  0.040284  0  3.826892  0
C  C46  1  0.39155999  0.39156021  0.62598607  1  0  0.083443  0  3.515815  0  0  0.046339  0  3.838364  0  0  0.05526  0  3.854832  0  0  0.027665  0.040311  0  3.826914  0
N  N47  1  0.38284695  0.02790274  0.80535485  1  0  0.274854  0  3.689379  0  0  0.332837  0  3.958283  0  0  0.333587  0  3.978675  0  0  -0.104588  0.3311  0  3.944745  0
N  N48  1  0.97209873  0.61715421  0.19464674  1  0  0.274943  0  3.689334  0  0  0.332899  0  3.958233  0  0  0.333651  0  3.978626  0  0  -0.104562  0.331161  0  3.944701  0
N  N49  1  0.61715459  0.97209766  0.19464585  1  0  0.274916  0  3.689344  0  0  0.33289  0  3.958259  0  0  0.333642  0  3.978652  0  0  -0.104597  0.33115  0  3.944732  0
N  N50  1  0.02790145  0.38284509  0.80535660  1  0  0.274917  0  3.689298  0  0  0.332915  0  3.958207  0  0  0.333669  0  3.978601  0  0  -0.104613  0.331176  0  3.944683  0
N  N51  1  0.67302784  0.67302712  0.30356203  1  0  -0.386508  0  2.810091  0  0  -0.342372  0  3.067178  0  0  -0.354149  0  3.08288  0  0  -0.320971  -0.334417  0  3.056556  0
N  N52  1  0.32697162  0.32697328  0.69643728  1  0  -0.386567  0  2.810074  0  0  -0.342442  0  3.06717  0  0  -0.35422  0  3.082872  0  0  -0.320992  -0.33448  0  3.056547  0
N  N53  1  0.71974036  0.71973951  0.77510638  1  0  -0.364362  0  2.696892  0  0  -0.329196  0  2.938845  0  0  -0.338394  0  2.949688  0  0  -0.331072  -0.322413  0  2.931655  0
N  N54  1  0.28025804  0.28026088  0.22489480  1  0  -0.364326  0  2.697274  0  0  -0.32916  0  2.939225  0  0  -0.338356  0  2.950069  0  0  -0.331072  -0.322374  0  2.932036  0
N  N55  1  0.29324978  0.70675087  0.50000086  1  0  -0.46642  0  2.960912  0  0  -0.444493  0  3.255568  0  0  -0.462369  0  3.266835  0  0  -0.383054  -0.431828  0  3.247201  0
N  N56  1  0.70674833  0.29324844  0.49999905  1  0  -0.466455  0  2.960877  0  0  -0.444533  0  3.255539  0  0  -0.462413  0  3.266807  0  0  -0.383093  -0.431869  0  3.247172  0
O  O57  1  0.26862792  0.91749905  0.73457060  1  0  -0.578781  0  1.906659  0  0  -0.574656  0  2.175249  0  0  -0.60615  0  2.178306  0  0  -0.287615  -0.550586  0  2.172178  0
O  O58  1  0.08250189  0.73137176  0.26543049  1  0  -0.578804  0  1.90666  0  0  -0.574679  0  2.175257  0  0  -0.606173  0  2.178317  0  0  -0.287619  -0.550609  0  2.172189  0
O  O59  1  0.73137257  0.08250136  0.26542991  1  0  -0.578777  0  1.906682  0  0  -0.57466  0  2.175275  0  0  -0.606161  0  2.178335  0  0  -0.287607  -0.550592  0  2.172209  0
O  O60  1  0.91749800  0.26862645  0.73457159  1  0  -0.578826  0  1.906678  0  0  -0.574701  0  2.17525  0  0  -0.606203  0  2.178309  0  0  -0.287609  -0.550628  0  2.172179  0
O  O61  1  0.08011877  0.08011754  0.62489869  1  0  -0.988423  0  1.78168  0  0  -1.017203  0  2.041671  0  0  -1.062343  0  2.023557  0  0  -0.708346  -0.982705  0  2.052325  0
O  O62  1  0.91988278  0.91988287  0.37509996  1  0  -0.988274  0  1.781843  0  0  -1.01703  0  2.041813  0  0  -1.062173  0  2.023708  0  0  -0.708294  -0.982532  0  2.052466  0
O  O63  1  0.99911139  0.73020129  0.55008122  1  0  -0.724084  0  1.505679  0  0  -0.730785  0  1.77895  0  0  -0.75479  0  1.767109  0  0  -0.758889  -0.714225  0  1.787288  0
O  O64  1  0.26979933  0.00088739  0.44991655  1  0  -0.724112  0  1.505743  0  0  -0.730811  0  1.779027  0  0  -0.754815  0  1.767178  0  0  -0.758911  -0.714255  0  1.787372  0
O  O65  1  0.00088807  0.26979912  0.44991809  1  0  -0.724049  0  1.505719  0  0  -0.730768  0  1.779005  0  0  -0.754799  0  1.767162  0  0  -0.758853  -0.714219  0  1.787337  0
O  O66  1  0.73020340  0.99910975  0.55008379  1  0  -0.724078  0  1.505765  0  0  -0.730766  0  1.779032  0  0  -0.754794  0  1.767179  0  0  -0.758925  -0.714218  0  1.787367  0
