# generated using pymatgen
data_AgH25C27(NO)2
_symmetry_space_group_name_H-M   'P 1'
_cell_length_a   9.59787463
_cell_length_b   9.91272273
_cell_length_c   12.86000000
_cell_angle_alpha   81.48291527
_cell_angle_beta   77.07820072
_cell_angle_gamma   87.96900438
_symmetry_Int_Tables_number   1
_chemical_formula_structural   AgH25C27(NO)2
_chemical_formula_sum   'Ag2 H50 C54 N4 O4'
_cell_volume   1179.37516759
_cell_formula_units_Z   2
loop_
 _symmetry_equiv_pos_site_id
 _symmetry_equiv_pos_as_xyz
  1  'x, y, z'
loop_
 _atom_site_type_symbol
 _atom_site_label
 _atom_site_symmetry_multiplicity
 _atom_site_fract_x
 _atom_site_fract_y
 _atom_site_fract_z
 _atom_site_occupancy
 _atom_site_hle17_bader_spin_density
 _atom_site_hle17_ddec_charge
 _atom_site_hle17_ddec_spin_density
 _atom_site_hle17_ddec_sum_bond_order
 _atom_site_hle17_magmom
 _atom_site_hse06_10hf_bader_spin_density
 _atom_site_hse06_10hf_ddec_charge
 _atom_site_hse06_10hf_ddec_spin_density
 _atom_site_hse06_10hf_ddec_sum_bond_order
 _atom_site_hse06_10hf_magmom
 _atom_site_hse06_bader_spin_density
 _atom_site_hse06_ddec_charge
 _atom_site_hse06_ddec_spin_density
 _atom_site_hse06_ddec_sum_bond_order
 _atom_site_hse06_magmom
 _atom_site_pbe_bader_charge
 _atom_site_pbe_bader_spin_density
 _atom_site_pbe_cm5_charge
 _atom_site_pbe_ddec_charge
 _atom_site_pbe_ddec_spin_density
 _atom_site_pbe_ddec_sum_bond_order
 _atom_site_pbe_magmom
Ag  Ag0  1  0.54452524  0.79538634  0.37731827  1  0  0.48708  0  1.464684  0  0  0.342753  0  1.90817  0  0  0.373021  0  1.867089  0  0.561979  0  0.442519  0.323754  0  1.935087  0
Ag  Ag1  1  0.45546896  0.20462240  0.62267992  1  0  0.487085  0  1.464654  0  0  0.342751  0  1.908143  0  0  0.373019  0  1.867062  0  0.561915  0  0.44252  0.323751  0  1.935063  0
H  H2  1  0.83659905  0.83021721  0.01857568  1  0  0.101601  0  0.948039  0  0  0.116832  0  1.011655  0  0  0.118054  0  1.012097  0  0.070608  0  0.095926  0.116807  0  1.010245  0
H  H3  1  0.16340909  0.16977522  0.98142438  1  0  0.101617  0  0.948077  0  0  0.116867  0  1.011691  0  0  0.118093  0  1.012131  0  0.070574  0  0.095918  0.116857  0  1.01028  0
H  H4  1  0.66492199  0.83436782  0.99213901  1  0  0.105275  0  0.94277  0  0  0.12084  0  1.00416  0  0  0.122218  0  1.004755  0  0.062991  0  0.098512  0.120461  0  1.002426  0
H  H5  1  0.33508614  0.16562767  0.00785836  1  0  0.105306  0  0.94274  0  0  0.120893  0  1.004119  0  0  0.122274  0  1.004712  0  0.064842  0  0.098511  0.120516  0  1.002386  0
H  H6  1  0.96024334  0.33369123  0.50409684  1  0  0.060658  0  0.95017  0  0  0.080498  0  1.010782  0  0  0.080422  0  1.013031  0  0.024357  0  0.085793  0.080801  0  1.008678  0
H  H7  1  0.03975516  0.66630630  0.49590346  1  0  0.06068  0  0.950209  0  0  0.08052  0  1.010809  0  0  0.080435  0  1.013069  0  0.024366  0  0.085823  0.080826  0  1.008707  0
H  H8  1  0.08575046  0.19911206  0.50398407  1  0  0.057465  0  0.965028  0  0  0.075242  0  1.030347  0  0  0.074838  0  1.033095  0  0.024636  0  0.085073  0.075356  0  1.028885  0
H  H9  1  0.91425124  0.80088751  0.49601935  1  0  0.057457  0  0.965045  0  0  0.075231  0  1.03037  0  0  0.074826  0  1.033117  0  0.024864  0  0.085089  0.075348  0  1.028909  0
H  H10  1  0.93792710  0.08773612  0.68260057  1  0  0.079569  0  0.922349  0  0  0.10077  0  0.979344  0  0  0.101077  0  0.980064  0  0.039154  0  0.097297  0.100502  0  0.978676  0
H  H11  1  0.06207352  0.91226651  0.31740346  1  0  0.079488  0  0.922359  0  0  0.100714  0  0.979341  0  0  0.101021  0  0.980065  0  0.03918  0  0.097281  0.100445  0  0.978675  0
H  H12  1  0.81254005  0.21878487  0.67923910  1  0  0.085204  0  0.941215  0  0  0.10289  0  1.00533  0  0  0.103109  0  1.00664  0  0.060484  0  0.097597  0.102318  0  1.004885  0
H  H13  1  0.18745952  0.78121469  0.32076156  1  0  0.085181  0  0.941258  0  0  0.102865  0  1.005383  0  0  0.103085  0  1.006694  0  0.060477  0  0.097589  0.102293  0  1.004939  0
H  H14  1  0.39754924  0.67905191  0.61204028  1  0  0.065386  0  0.942165  0  0  0.078714  0  1.000924  0  0  0.080398  0  0.999532  0  0.06951  0  0.111747  0.076903  0  1.00314  0
H  H15  1  0.60244604  0.32095378  0.38795807  1  0  0.065343  0  0.942243  0  0  0.078692  0  1.000971  0  0  0.080377  0  0.99958  0  0.06952  0  0.111774  0.076921  0  1.003143  0
H  H16  1  0.92558404  0.16048352  0.40367989  1  0  0.10164  0  0.970234  0  0  0.110492  0  1.036343  0  0  0.113186  0  1.036569  0  0.057957  0  0.103378  0.108426  0  1.036816  0
H  H17  1  0.07441981  0.83951298  0.59632352  1  0  0.101649  0  0.97022  0  0  0.110526  0  1.036304  0  0  0.113222  0  1.036527  0  0.057874  0  0.103367  0.108459  0  1.036781  0
H  H18  1  0.66790136  0.98851168  0.71203747  1  0  0.119746  0  0.944964  0  0  0.129803  0  1.004285  0  0  0.132912  0  1.00306  0  0.139405  0  0.111421  0.127529  0  1.005399  0
H  H19  1  0.33209500  0.01148584  0.28796552  1  0  0.119759  0  0.944927  0  0  0.129803  0  1.004252  0  0  0.132913  0  1.003025  0  0.139438  0  0.111426  0.12753  0  1.005365  0
H  H20  1  0.54576684  0.84940346  0.61454079  1  0  0.070939  0  0.935601  0  0  0.082535  0  0.99755  0  0  0.084685  0  0.995338  0  0.087225  0  0.113443  0.080543  0  1.00028  0
H  H21  1  0.45423166  0.15059611  0.38546005  1  0  0.07094  0  0.935543  0  0  0.082533  0  0.997497  0  0  0.084684  0  0.995282  0  0.087254  0  0.113432  0.080538  0  1.000233  0
H  H22  1  0.38097129  0.56397418  0.31824079  1  0  0.071396  0  0.955811  0  0  0.077702  0  1.027198  0  0  0.080162  0  1.024443  0  0.113869  0  0.111895  0.075861  0  1.029216  0
H  H23  1  0.61902612  0.43602946  0.68175977  1  0  0.07143  0  0.955816  0  0  0.077733  0  1.027208  0  0  0.080194  0  1.024452  0  0.113865  0  0.111911  0.075892  0  1.029225  0
H  H24  1  0.22812804  0.49581398  0.71247893  1  0  0.125611  0  0.940037  0  0  0.138145  0  0.993494  0  0  0.14127  0  0.992454  0  0.067379  0  0.113513  0.135878  0  0.994466  0
H  H25  1  0.77187152  0.50419069  0.28752038  1  0  0.125608  0  0.940055  0  0  0.138122  0  0.993537  0  0  0.141246  0  0.992498  0  0.06735  0  0.11348  0.135854  0  0.99451  0
H  H26  1  0.06541781  0.70403106  0.79131685  1  0  0.083089  0  0.949156  0  0  0.098369  0  1.002034  0  0  0.100757  0  1.001555  0  0.079388  0  0.099425  0.096641  0  1.002873  0
H  H27  1  0.93457318  0.29597768  0.20868420  1  0  0.083101  0  0.949275  0  0  0.098359  0  1.00218  0  0  0.100751  0  1.001688  0  0.079342  0  0.099414  0.09663  0  1.003019  0
H  H28  1  0.78256991  0.02116006  0.31762953  1  0  0.084504  0  0.932322  0  0  0.091819  0  0.995475  0  0  0.095163  0  0.992261  0  0.111612  0  0.114998  0.08948  0  0.997412  0
H  H29  1  0.21743179  0.97884052  0.68237145  1  0  0.084485  0  0.932313  0  0  0.091806  0  0.99547  0  0  0.09515  0  0.992255  0  0.111582  0  0.114995  0.089468  0  0.997407  0
H  H30  1  0.94745987  0.30687801  0.00483649  1  0  0.082301  0  0.982305  0  0  0.092268  0  1.048218  0  0  0.094644  0  1.047651  0  0.062031  0  0.094388  0.090567  0  1.048782  0
H  H31  1  0.05253755  0.69312359  0.99516741  1  0  0.082356  0  0.982267  0  0  0.092336  0  1.048161  0  0  0.094713  0  1.047595  0  0.062049  0  0.094416  0.090634  0  1.048726  0
H  H32  1  0.20044466  0.38621600  0.40473003  1  0  0.104881  0  0.969719  0  0  0.114521  0  1.0328  0  0  0.116679  0  1.034422  0  0.073302  0  0.104082  0.112621  0  1.03271  0
H  H33  1  0.79955061  0.61379070  0.59526976  1  0  0.104867  0  0.969682  0  0  0.114483  0  1.032782  0  0  0.116642  0  1.034405  0  0.07328  0  0.104079  0.112581  0  1.032694  0
H  H34  1  0.02919511  0.45902562  0.86219406  1  0  0.097649  0  0.951204  0  0  0.109038  0  1.011532  0  0  0.112526  0  1.009263  0  0.076811  0  0.103936  0.106554  0  1.013162  0
H  H35  1  0.97080229  0.54098312  0.13780825  1  0  0.097666  0  0.951223  0  0  0.109047  0  1.011559  0  0  0.112534  0  1.00929  0  0.076719  0  0.103951  0.106562  0  1.013189  0
H  H36  1  0.00141673  0.37945506  0.68317923  1  0  0.08526  0  0.939102  0  0  0.104377  0  0.998271  0  0  0.104503  0  1.000304  0  0.04864  0  0.096796  0.104156  0  0.996964  0
H  H37  1  0.99857962  0.62054960  0.31681984  1  0  0.085263  0  0.939102  0  0  0.104361  0  0.998282  0  0  0.10449  0  1.000314  0  0.0487  0  0.096789  0.10414  0  0.996975  0
H  H38  1  0.13101229  0.25095645  0.68011794  1  0  0.094497  0  0.924154  0  0  0.111873  0  0.986149  0  0  0.113052  0  0.985561  0  0.065884  0  0.101029  0.110821  0  0.98654  0
H  H39  1  0.86898726  0.74904821  0.31988370  1  0  0.094506  0  0.924181  0  0  0.111874  0  0.986155  0  0  0.113053  0  0.985572  0  0.065546  0  0.101033  0.11082  0  0.986546  0
H  H40  1  0.57743792  0.50593906  0.87485423  1  0  0.09778  0  0.94289  0  0  0.111039  0  0.997416  0  0  0.114157  0  0.996078  0  0.070831  0  0.104861  0.108656  0  0.998641  0
H  H41  1  0.42255951  0.49406050  0.12514602  1  0  0.09776  0  0.942972  0  0  0.111022  0  0.997488  0  0  0.114139  0  0.996151  0  0.070908  0  0.104838  0.108638  0  0.998714  0
H  H42  1  0.58250690  0.04164178  0.90312275  1  0  0.097522  0  0.967651  0  0  0.107871  0  1.03113  0  0  0.110682  0  1.030526  0  0.096659  0  0.097735  0.105795  0  1.031591  0
H  H43  1  0.41750231  0.95834962  0.09687335  1  0  0.097504  0  0.967662  0  0  0.107848  0  1.031151  0  0  0.110638  0  1.030573  0  0.045574  0  0.097719  0.10577  0  1.031617  0
H  H44  1  0.60684512  0.28652481  0.83781064  1  0  0.085469  0  0.974764  0  0  0.093826  0  1.04574  0  0  0.097029  0  1.043305  0  0.08648  0  0.095137  0.091304  0  1.047825  0
H  H45  1  0.39316302  0.71346557  0.16218498  1  0  0.085446  0  0.974795  0  0  0.09379  0  1.045791  0  0  0.09699  0  1.043353  0  0.086417  0  0.095131  0.091267  0  1.047876  0
H  H46  1  0.91852552  0.06139723  0.07279030  1  0  0.086195  0  0.951858  0  0  0.100024  0  1.010037  0  0  0.102449  0  1.009614  0  0.057076  0  0.096423  0.098282  0  1.010356  0
H  H47  1  0.08147725  0.93860336  0.92721361  1  0  0.086205  0  0.951893  0  0  0.100033  0  1.010069  0  0  0.102458  0  1.009646  0  0.057277  0  0.096424  0.098293  0  1.010384  0
H  H48  1  0.85818257  0.85182609  0.76103378  1  0  0.078363  0  0.972902  0  0  0.088754  0  1.038282  0  0  0.091043  0  1.038104  0  0.022685  0  0.094002  0.088346  0  1.03589  0
H  H49  1  0.14180737  0.14817653  0.23896426  1  0  0.078286  0  0.972978  0  0  0.0887  0  1.038336  0  0  0.090988  0  1.03816  0  0.022724  0  0.093961  0.088292  0  1.035943  0
H  H50  1  0.61405101  0.75043447  0.80273214  1  0  0.088746  0  0.944348  0  0  0.104299  0  0.995779  0  0  0.106965  0  0.994721  0  0.062682  0  0.102826  0.102146  0  0.997154  0
H  H51  1  0.38594108  0.24956305  0.19726534  1  0  0.088769  0  0.944359  0  0  0.104317  0  0.995787  0  0  0.106984  0  0.99473  0  0.064211  0  0.102835  0.102165  0  0.99716  0
C  C52  1  0.66777464  0.84639735  0.15558432  1  0  0.676367  0  3.8985  0  0  0.637856  0  4.185588  0  0  0.670192  0  4.181459  0  1.589474  0  0.17897  0.616572  0  4.186935  0
C  C53  1  0.33223028  0.15359711  0.84441448  1  0  0.676443  0  3.898291  0  0  0.637926  0  4.185409  0  0  0.670263  0  4.181281  0  1.589485  0  0.178993  0.616644  0  4.186755  0
C  C54  1  0.73286934  0.88286540  0.03435172  1  0  -0.311462  0  3.716508  0  0  -0.354173  0  3.955423  0  0  -0.360195  0  3.964865  0  -0.08866  0  -0.167684  -0.349292  0  3.94644  0
C  C55  1  0.26713879  0.11712804  0.96564744  1  0  -0.311616  0  3.716625  0  0  -0.354399  0  3.955525  0  0  -0.360431  0  3.96497  0  -0.090334  0  -0.167715  -0.349538  0  3.946533  0
C  C56  1  0.00744155  0.25654840  0.55709761  1  0  -0.101702  0  3.725584  0  0  -0.141392  0  3.979755  0  0  -0.141971  0  3.993643  0  -0.015207  0  -0.170468  -0.140408  0  3.96946  0
C  C57  1  0.99255695  0.74344912  0.44290347  1  0  -0.101844  0  3.725763  0  0  -0.141513  0  3.979854  0  0  -0.142082  0  3.993746  0  -0.015159  0  -0.170538  -0.140543  0  3.969575  0
C  C58  1  0.89141245  0.16129140  0.62630865  1  0  -0.159508  0  3.719317  0  0  -0.201129  0  3.965555  0  0  -0.202735  0  3.978953  0  -0.019606  0  -0.157768  -0.199974  0  3.956556  0
C  C59  1  0.10858712  0.83870612  0.37369380  1  0  -0.159302  0  3.719235  0  0  -0.200958  0  3.965487  0  0  -0.202569  0  3.978891  0  -0.019875  0  -0.157714  -0.199799  0  3.956492  0
C  C60  1  0.35163859  0.61151394  0.56902325  1  0  0.114739  0  3.755939  0  0  0.084059  0  4.009782  0  0  0.090596  0  4.030416  0  0.460416  0  0.036165  0.0799  0  3.996534  0
C  C61  1  0.64835776  0.38848971  0.43097749  1  0  0.114698  0  3.755921  0  0  0.084002  0  4.009767  0  0  0.090538  0  4.030406  0  0.460502  0  0.036165  0.079814  0  3.996518  0
C  C62  1  0.19366619  0.42863711  0.56743060  1  0  0.15544  0  3.716192  0  0  0.169643  0  3.959445  0  0  0.176423  0  3.977707  0  -0.07848  0  0.013359  0.164988  0  3.947244  0
C  C63  1  0.80633229  0.57136960  0.43257099  1  0  0.155417  0  3.716456  0  0  0.169569  0  3.959716  0  0  0.176354  0  3.977984  0  -0.078662  0  0.013359  0.164917  0  3.947509  0
C  C64  1  0.81258918  0.08280720  0.56647749  1  0  0.152326  0  3.723162  0  0  0.165071  0  3.963648  0  0  0.171057  0  3.984289  0  -0.062352  0  0.009857  0.161304  0  3.950555  0
C  C65  1  0.18741359  0.91719134  0.43352509  1  0  0.15227  0  3.723202  0  0  0.164997  0  3.963724  0  0  0.170986  0  3.984365  0  -0.062359  0  0.009839  0.161231  0  3.950631  0
C  C66  1  0.84262250  0.09228761  0.45393096  1  0  -0.177214  0  3.712626  0  0  -0.193479  0  3.959951  0  0  -0.201837  0  3.982253  0  0.010608  0  -0.090436  -0.188419  0  3.946078  0
C  C67  1  0.15738028  0.90770991  0.54607252  1  0  -0.177228  0  3.712707  0  0  -0.193493  0  3.959982  0  0  -0.201852  0  3.982284  0  0.01049  0  -0.090427  -0.188432  0  3.94611  0
C  C68  1  0.70103912  0.99580815  0.62460550  1  0  -0.191249  0  3.74867  0  0  -0.206939  0  4.006755  0  0  -0.213975  0  4.024313  0  -0.047502  0  -0.091201  -0.203525  0  3.996188  0
C  C69  1  0.29896472  0.00419039  0.37539613  1  0  -0.19118  0  3.748763  0  0  -0.206828  0  4.006802  0  0  -0.213866  0  4.024361  0  -0.047434  0  -0.091176  -0.203414  0  3.996233  0
C  C70  1  0.63133574  0.91881119  0.57010891  1  0  0.120851  0  3.756743  0  0  0.087044  0  4.018442  0  0  0.094466  0  4.035555  0  0.490064  0  0.038229  0.081955  0  4.008682  0
C  C71  1  0.36866489  0.08118735  0.42989247  1  0  0.120831  0  3.756903  0  0  0.087025  0  4.018596  0  0  0.094449  0  4.035706  0  0.489961  0  0.038256  0.081935  0  4.008834  0
C  C72  1  0.34133705  0.54835099  0.40545409  1  0  0.121183  0  3.731983  0  0  0.091277  0  3.984312  0  0  0.098611  0  4.002981  0  0.462637  0  0.040232  0.086794  0  3.97112  0
C  C73  1  0.65866144  0.45165367  0.59454539  1  0  0.121042  0  3.731915  0  0  0.091126  0  3.984239  0  0  0.09846  0  4.002909  0  0.46277  0  0.040176  0.086645  0  3.971044  0
C  C74  1  0.80079650  0.46360568  0.87307343  1  0  0.053775  0  3.783679  0  0  0.069672  0  4.013013  0  0  0.070227  0  4.037591  0  0.001155  0  -0.006974  0.069427  0  3.995995  0
C  C75  1  0.19919879  0.53639388  0.12692873  1  0  0.053798  0  3.783784  0  0  0.069772  0  4.013011  0  0  0.070326  0  4.037595  0  0.001153  0  -0.006911  0.069528  0  3.995994  0
C  C76  1  0.25480102  0.51144941  0.62471980  1  0  -0.166837  0  3.707253  0  0  -0.187444  0  3.960202  0  0  -0.194742  0  3.979738  0  0.033678  0  -0.082938  -0.183264  0  3.947614  0
C  C77  1  0.74519853  0.48855729  0.37527773  1  0  -0.166765  0  3.707021  0  0  -0.18735  0  3.959995  0  0  -0.194651  0  3.979536  0  0.033668  0  -0.082896  -0.183174  0  3.947423  0
C  C78  1  0.95826568  0.66077963  0.80876330  1  0  -0.07625  0  3.808289  0  0  -0.08834  0  4.057313  0  0  -0.089806  0  4.078861  0  -0.108636  0  -0.096434  -0.087765  0  4.043423  0
C  C79  1  0.04172532  0.33922606  0.19123732  1  0  -0.076229  0  3.808401  0  0  -0.088288  0  4.05738  0  0  -0.089752  0  4.078931  0  -0.108996  0  -0.096433  -0.087713  0  4.043487  0
C  C80  1  0.78059820  0.31665832  0.91518752  1  0  0.033232  0  3.804563  0  0  0.048982  0  4.032193  0  0  0.047835  0  4.057754  0  -0.007933  0  -0.018504  0.049304  0  4.016168  0
C  C81  1  0.21940457  0.68334227  0.08481094  1  0  0.03329  0  3.804414  0  0  0.049006  0  4.03204  0  0  0.04786  0  4.057599  0  -0.008334  0  -0.018521  0.049326  0  4.016016  0
C  C82  1  0.76471493  0.01438688  0.40523028  1  0  0.119357  0  3.716213  0  0  0.090879  0  3.969082  0  0  0.098145  0  3.986218  0  0.461565  0  0.041141  0.086666  0  3.956635  0
C  C83  1  0.23528570  0.98561166  0.59477188  1  0  0.119335  0  3.716224  0  0  0.090835  0  3.96911  0  0  0.098101  0  3.986245  0  0.461768  0  0.041114  0.086622  0  3.956663  0
C  C84  1  0.86744895  0.24916421  0.98168929  1  0  -0.117148  0  3.769443  0  0  -0.134091  0  4.013074  0  0  -0.136296  0  4.034719  0  -0.136321  0  -0.098108  -0.134537  0  4.001048  0
C  C85  1  0.13255275  0.75083433  0.01831114  1  0  -0.117271  0  3.769484  0  0  -0.134222  0  4.01313  0  0  -0.13643  0  4.034778  0  -0.13605  0  -0.098156  -0.134666  0  4.001102  0
C  C86  1  0.24071302  0.44793046  0.45500207  1  0  -0.178555  0  3.704719  0  0  -0.194497  0  3.949318  0  0  -0.202765  0  3.970869  0  -0.000683  0  -0.090371  -0.188986  0  3.935434  0
C  C87  1  0.75928333  0.55207420  0.54499544  1  0  -0.178453  0  3.705052  0  0  -0.194337  0  3.949624  0  0  -0.202607  0  3.971178  0  -0.00057  0  -0.090344  -0.188827  0  3.935738  0
C  C88  1  0.93766551  0.52270676  0.84950210  1  0  -0.123225  0  3.741199  0  0  -0.142514  0  3.988482  0  0  -0.1453  0  4.008708  0  -0.102055  0  -0.092242  -0.1406  0  3.974364  0
C  C89  1  0.06232869  0.47729892  0.15049799  1  0  -0.123299  0  3.741314  0  0  -0.142605  0  3.988573  0  0  -0.145391  0  4.008799  0  -0.102206  0  -0.092301  -0.140691  0  3.974455  0
C  C90  1  0.08150748  0.32672934  0.62726709  1  0  -0.165523  0  3.70613  0  0  -0.206219  0  3.952068  0  0  -0.208001  0  3.96433  0  -0.024865  0  -0.159122  -0.204806  0  3.9434  0
C  C91  1  0.91849101  0.67327328  0.37273185  1  0  -0.165472  0  3.706204  0  0  -0.20612  0  3.95209  0  0  -0.20791  0  3.96436  0  -0.024632  0  -0.159112  -0.204702  0  3.943421  0
C  C92  1  0.68518019  0.54832243  0.85467308  1  0  -0.11864  0  3.734287  0  0  -0.135207  0  3.974571  0  0  -0.138366  0  3.99554  0  -0.015935  0  -0.089666  -0.132872  0  3.959911  0
C  C93  1  0.31481510  0.45167713  0.14532596  1  0  -0.118654  0  3.734533  0  0  -0.135247  0  3.974774  0  0  -0.138405  0  3.995743  0  -0.015884  0  -0.089672  -0.13291  0  3.960111  0
C  C94  1  0.66256485  0.09935355  0.92651895  1  0  -0.133611  0  3.742011  0  0  -0.15244  0  3.988026  0  0  -0.156216  0  4.01036  0  -0.049456  0  -0.098974  -0.149231  0  3.971363  0
C  C95  1  0.33744541  0.90064092  0.07347818  1  0  -0.133556  0  3.741996  0  0  -0.152404  0  3.987982  0  0  -0.156162  0  4.010317  0  0.001504  0  -0.098954  -0.149194  0  3.971316  0
C  C96  1  0.74897779  0.03252350  0.99279713  1  0  0.128974  0  3.762731  0  0  0.14774  0  3.998831  0  0  0.149547  0  4.022288  0  0.005694  0  -0.010906  0.145996  0  3.981858  0
C  C97  1  0.25103247  0.96747199  0.00720221  1  0  0.12904  0  3.762667  0  0  0.147901  0  3.998653  0  0  0.149708  0  4.022105  0  0.005773  0  -0.01088  0.146147  0  3.98172  0
C  C98  1  0.67680610  0.23897792  0.88916897  1  0  -0.113943  0  3.756966  0  0  -0.132347  0  4.004508  0  0  -0.134387  0  4.025777  0  -0.121416  0  -0.096151  -0.13053  0  3.98974  0
C  C99  1  0.32320203  0.76101756  0.11082840  1  0  -0.113949  0  3.756844  0  0  -0.132346  0  4.004407  0  0  -0.134379  0  4.025661  0  -0.121068  0  -0.096123  -0.130526  0  3.989635  0
C  C100  1  0.85091729  0.11066190  0.02027555  1  0  -0.118993  0  3.759969  0  0  -0.139481  0  4.008073  0  0  -0.142197  0  4.029034  0  -0.008651  0  -0.097042  -0.138303  0  3.99558  0
C  C101  1  0.14908869  0.88933665  0.97972417  1  0  -0.11896  0  3.759963  0  0  -0.139481  0  4.008057  0  0  -0.142199  0  4.029021  0  -0.009047  0  -0.097019  -0.138303  0  3.995563  0
C  C102  1  0.84258215  0.74333080  0.79082902  1  0  -0.091542  0  3.798715  0  0  -0.105778  0  4.05131  0  0  -0.108018  0  4.073251  0  -0.020844  0  -0.101037  -0.103267  0  4.034842  0
C  C103  1  0.15740885  0.25667285  0.20916795  1  0  -0.091513  0  3.798979  0  0  -0.105786  0  4.05158  0  0  -0.108028  0  4.073527  0  -0.020663  0  -0.100998  -0.103275  0  4.035111  0
C  C104  1  0.70587759  0.68641366  0.81408781  1  0  -0.071066  0  3.797823  0  0  -0.082187  0  4.043758  0  0  -0.083548  0  4.065395  0  -0.080799  0  -0.092493  -0.081686  0  4.02932  0
C  C105  1  0.29411556  0.31358489  0.18591171  1  0  -0.071044  0  3.798001  0  0  -0.082167  0  4.043956  0  0  -0.083526  0  4.065591  0  -0.081997  0  -0.092486  -0.081665  0  4.029515  0
N  N106  1  0.39468763  0.63159376  0.46055940  1  0  -0.30991  0  3.365094  0  0  -0.22954  0  3.652328  0  0  -0.248411  0  3.669853  0  -1.190271  0  -0.352222  -0.216731  0  3.639746  0
N  N107  1  0.60530871  0.36840989  0.53943900  1  0  -0.309878  0  3.365067  0  0  -0.229494  0  3.6523  0  0  -0.248365  0  3.669824  0  -1.19027  0  -0.352233  -0.216689  0  3.639735  0
N  N108  1  0.66251909  0.92624231  0.46203441  1  0  -0.31325  0  3.313598  0  0  -0.239408  0  3.600159  0  0  -0.256901  0  3.615914  0  -1.26108  0  -0.344751  -0.227719  0  3.589651  0
N  N109  1  0.33748048  0.07375522  0.53796571  1  0  -0.313226  0  3.313719  0  0  -0.239375  0  3.600268  0  0  -0.25687  0  3.616024  0  -1.261196  0  -0.344764  -0.227686  0  3.589758  0
O  O110  1  0.61361880  0.94206237  0.20862526  1  0  -0.661376  0  1.936181  0  0  -0.593574  0  2.17342  0  0  -0.622557  0  2.164868  0  -1.178878  0  -0.358293  -0.57312  0  2.178475  0
O  O111  1  0.38638932  0.05793413  0.79137278  1  0  -0.661372  0  1.936096  0  0  -0.593576  0  2.173349  0  0  -0.622547  0  2.164772  0  -1.179041  0  -0.358317  -0.573121  0  2.178403  0
O  O112  1  0.67002779  0.72151076  0.19534110  1  0  -0.673069  0  1.888243  0  0  -0.617358  0  2.118464  0  0  -0.643894  0  2.10855  0  -1.189286  0  -0.36792  -0.598397  0  2.123862  0
O  O113  1  0.32997072  0.27848269  0.80465656  1  0  -0.673102  0  1.888141  0  0  -0.617375  0  2.118362  0  0  -0.64392  0  2.10846  0  -1.189152  0  -0.367922  -0.598416  0  2.123764  0
