# generated using pymatgen
data_ZnP2H10(C2O)4
_symmetry_space_group_name_H-M   'P 1'
_cell_length_a   5.41042431
_cell_length_b   8.81395049
_cell_length_c   21.18252150
_cell_angle_alpha   89.99991890
_cell_angle_beta   90.00011154
_cell_angle_gamma   90.00040322
_symmetry_Int_Tables_number   1
_chemical_formula_structural   ZnP2H10(C2O)4
_chemical_formula_sum   'Zn4 P8 H40 C32 O16'
_cell_volume   1010.13539348
_cell_formula_units_Z   4
loop_
 _symmetry_equiv_pos_site_id
 _symmetry_equiv_pos_as_xyz
  1  'x, y, z'
loop_
 _atom_site_type_symbol
 _atom_site_label
 _atom_site_symmetry_multiplicity
 _atom_site_fract_x
 _atom_site_fract_y
 _atom_site_fract_z
 _atom_site_occupancy
 _atom_site_hle17_bader_spin_density
 _atom_site_hle17_ddec_charge
 _atom_site_hle17_ddec_spin_density
 _atom_site_hle17_ddec_sum_bond_order
 _atom_site_hle17_magmom
 _atom_site_hse06_10hf_bader_spin_density
 _atom_site_hse06_10hf_ddec_charge
 _atom_site_hse06_10hf_ddec_spin_density
 _atom_site_hse06_10hf_ddec_sum_bond_order
 _atom_site_hse06_10hf_magmom
 _atom_site_hse06_bader_spin_density
 _atom_site_hse06_ddec_charge
 _atom_site_hse06_ddec_spin_density
 _atom_site_hse06_ddec_sum_bond_order
 _atom_site_hse06_magmom
 _atom_site_pbe_bader_spin_density
 _atom_site_pbe_cm5_charge
 _atom_site_pbe_ddec_charge
 _atom_site_pbe_ddec_spin_density
 _atom_site_pbe_ddec_sum_bond_order
 _atom_site_pbe_magmom
Zn  Zn0  1  0.85543201  0.80183863  0.72481546  1  0  1.232261  0  1.769991  0  0  1.072851  0  2.242239  0  0  1.11569  0  2.180302  0  0  0.719491  1.042431  0  2.285418  0
Zn  Zn1  1  0.64456698  0.19816188  0.22481658  1  0  1.232285  0  1.769973  0  0  1.072876  0  2.242211  0  0  1.115708  0  2.18027  0  0  0.719509  1.042452  0  2.285397  0
Zn  Zn2  1  0.35543562  0.69816513  0.27518241  1  0  1.232292  0  1.769947  0  0  1.072925  0  2.242185  0  0  1.115769  0  2.180242  0  0  0.719504  1.042502  0  2.285359  0
Zn  Zn3  1  0.14456641  0.30183648  0.77518386  1  0  1.232286  0  1.769961  0  0  1.07288  0  2.24219  0  0  1.115712  0  2.180251  0  0  0.719485  1.04245  0  2.285372  0
P  P4  1  0.35818368  0.96292987  0.74918586  1  0  1.548557  0  4.899089  0  0  1.396651  0  5.388246  0  0  1.447087  0  5.350719  0  0  0.340755  1.361172  0  5.414008  0
P  P5  1  0.14181445  0.03707068  0.24918565  1  0  1.548505  0  4.899186  0  0  1.396629  0  5.388336  0  0  1.447069  0  5.350799  0  0  0.340736  1.361147  0  5.414113  0
P  P6  1  0.85818445  0.53707049  0.25081438  1  0  1.548464  0  4.899207  0  0  1.396604  0  5.388356  0  0  1.447038  0  5.350822  0  0  0.340721  1.361136  0  5.414106  0
P  P7  1  0.64181475  0.46292880  0.75081573  1  0  1.548486  0  4.899189  0  0  1.396595  0  5.388346  0  0  1.447028  0  5.350816  0  0  0.340696  1.361117  0  5.414109  0
P  P8  1  0.53507282  0.90293467  0.61360669  1  0  1.132729  0  4.328449  0  0  1.039636  0  4.762366  0  0  1.070471  0  4.752329  0  0  0.245396  1.018368  0  4.768602  0
P  P9  1  0.96492162  0.09706733  0.11360661  1  0  1.132642  0  4.328668  0  0  1.039571  0  4.762588  0  0  1.070401  0  4.752555  0  0  0.245344  1.018303  0  4.768817  0
P  P10  1  0.03507982  0.59706884  0.38639292  1  0  1.132709  0  4.328615  0  0  1.039696  0  4.762527  0  0  1.070528  0  4.752484  0  0  0.245365  1.018424  0  4.768753  0
P  P11  1  0.46491753  0.40293127  0.88639305  1  0  1.132688  0  4.328597  0  0  1.039665  0  4.76243  0  0  1.070499  0  4.75238  0  0  0.245348  1.018389  0  4.768671  0
H  H12  1  0.19200808  0.05229828  0.64963374  1  0  0.182259  0  0.940421  0  0  0.194971  0  0.99483  0  0  0.198536  0  0.993509  0  0  0.117064  0.192335  0  0.996014  0
H  H13  1  0.30798743  0.94770373  0.14963305  1  0  0.18226  0  0.940398  0  0  0.194975  0  0.994813  0  0  0.198539  0  0.993489  0  0  0.117065  0.192335  0  0.995998  0
H  H14  1  0.69201250  0.44770256  0.35036719  1  0  0.182256  0  0.94041  0  0  0.194982  0  0.99482  0  0  0.198544  0  0.993498  0  0  0.117067  0.19234  0  0.996009  0
H  H15  1  0.80798931  0.55229529  0.85036763  1  0  0.182239  0  0.940405  0  0  0.194974  0  0.994795  0  0  0.198536  0  0.993468  0  0  0.11705  0.192332  0  0.995979  0
H  H16  1  0.48411329  0.13926216  0.66773220  1  0  0.195909  0  0.924205  0  0  0.208299  0  0.974402  0  0  0.21211  0  0.972978  0  0  0.12236  0.205486  0  0.975711  0
H  H17  1  0.01588606  0.86073979  0.16773095  1  0  0.195936  0  0.924175  0  0  0.208338  0  0.974362  0  0  0.212153  0  0.972931  0  0  0.122365  0.20552  0  0.975676  0
H  H18  1  0.98411472  0.36074107  0.33226841  1  0  0.195956  0  0.924163  0  0  0.208356  0  0.974364  0  0  0.212167  0  0.972934  0  0  0.122379  0.205538  0  0.975675  0
H  H19  1  0.51588695  0.63926250  0.83226959  1  0  0.195942  0  0.924185  0  0  0.208342  0  0.974364  0  0  0.212153  0  0.972934  0  0  0.122377  0.205526  0  0.975673  0
H  H20  1  0.36428836  0.67178250  0.65335836  1  0  0.196032  0  0.940898  0  0  0.211063  0  0.996791  0  0  0.214392  0  0.995659  0  0  0.116372  0.208315  0  0.99828  0
H  H21  1  0.13570903  0.32821950  0.15335844  1  0  0.196006  0  0.940897  0  0  0.211039  0  0.996793  0  0  0.214367  0  0.995662  0  0  0.11635  0.208289  0  0.998282  0
H  H22  1  0.86428953  0.82822016  0.34664329  1  0  0.196088  0  0.940823  0  0  0.211136  0  0.996704  0  0  0.214466  0  0.995569  0  0  0.116398  0.208387  0  0.998189  0
H  H23  1  0.63570117  0.17177996  0.84664341  1  0  0.196052  0  0.940873  0  0  0.211094  0  0.996773  0  0  0.214423  0  0.99564  0  0  0.11638  0.208344  0  0.99826  0
H  H24  1  0.41189793  0.66361046  0.56967759  1  0  0.155762  0  0.968761  0  0  0.172761  0  1.029178  0  0  0.174261  0  1.030925  0  0  0.10184  0.171618  0  1.027998  0
H  H25  1  0.08810435  0.33639180  0.06967812  1  0  0.155765  0  0.968735  0  0  0.17276  0  1.029164  0  0  0.174261  0  1.030909  0  0  0.101842  0.171615  0  1.02799  0
H  H26  1  0.91189984  0.83639240  0.43032409  1  0  0.155813  0  0.968796  0  0  0.172853  0  1.029184  0  0  0.174354  0  1.030929  0  0  0.101861  0.171705  0  1.028011  0
H  H27  1  0.58809150  0.16360859  0.93032418  1  0  0.15576  0  0.968813  0  0  0.172827  0  1.029177  0  0  0.174312  0  1.03094  0  0  0.101862  0.171684  0  1.028001  0
H  H28  1  0.15534946  0.76658071  0.60172656  1  0  0.178817  0  0.959853  0  0  0.194686  0  1.018125  0  0  0.197581  0  1.017714  0  0  0.106889  0.192517  0  1.018646  0
H  H29  1  0.34464754  0.23341918  0.10172822  1  0  0.178839  0  0.959822  0  0  0.194705  0  1.018104  0  0  0.1976  0  1.017693  0  0  0.106895  0.192534  0  1.018624  0
H  H30  1  0.65535547  0.73341651  0.39827499  1  0  0.178836  0  0.959844  0  0  0.194718  0  1.018106  0  0  0.197615  0  1.017693  0  0  0.106916  0.192545  0  1.018627  0
H  H31  1  0.84463931  0.26658005  0.89827468  1  0  0.178837  0  0.959816  0  0  0.194666  0  1.018162  0  0  0.197563  0  1.017748  0  0  0.106897  0.192496  0  1.018675  0
H  H32  1  0.19921877  0.88366581  0.50421028  1  0  0.084479  0  0.969068  0  0  0.097153  0  1.030935  0  0  0.099358  0  1.030643  0  0  0.100461  0.095505  0  1.031474  0
H  H33  1  0.30077192  0.11634007  0.00421058  1  0  0.084354  0  0.96907  0  0  0.09703  0  1.030955  0  0  0.099236  0  1.030662  0  0  0.100421  0.095379  0  1.031499  0
H  H34  1  0.69923898  0.61633387  0.49578798  1  0  0.084435  0  0.969046  0  0  0.097087  0  1.030931  0  0  0.099294  0  1.030639  0  0  0.10045  0.095439  0  1.03147  0
H  H35  1  0.80076395  0.38365896  0.99578804  1  0  0.084392  0  0.968996  0  0  0.097053  0  1.030883  0  0  0.09926  0  1.03059  0  0  0.100429  0.095405  0  1.031424  0
H  H36  1  0.23152143  0.99071453  0.39546542  1  0  0.105483  0  0.966159  0  0  0.115323  0  1.025613  0  0  0.118261  0  1.024591  0  0  0.105953  0.113257  0  1.026315  0
H  H37  1  0.26847599  0.00929010  0.89546664  1  0  0.105466  0  0.966201  0  0  0.115308  0  1.025658  0  0  0.118245  0  1.024636  0  0  0.105922  0.113237  0  1.026366  0
H  H38  1  0.73153754  0.50929096  0.60453287  1  0  0.10547  0  0.966163  0  0  0.115316  0  1.025611  0  0  0.118251  0  1.024594  0  0  0.105953  0.113249  0  1.026314  0
H  H39  1  0.76846791  0.49070199  0.10453292  1  0  0.105411  0  0.966358  0  0  0.115276  0  1.025761  0  0  0.118208  0  1.024752  0  0  0.105961  0.113209  0  1.02646  0
H  H40  1  0.58652929  0.15009228  0.36611043  1  0  0.097394  0  0.954669  0  0  0.108147  0  1.01608  0  0  0.111147  0  1.013969  0  0  0.104297  0.105921  0  1.017789  0
H  H41  1  0.91347079  0.84990664  0.86611214  1  0  0.09741  0  0.954687  0  0  0.108168  0  1.01609  0  0  0.111167  0  1.013981  0  0  0.104307  0.105936  0  1.017794  0
H  H42  1  0.08653927  0.34990924  0.63388762  1  0  0.0974  0  0.954683  0  0  0.108164  0  1.016082  0  0  0.111163  0  1.013974  0  0  0.104301  0.105936  0  1.017787  0
H  H43  1  0.41348015  0.65009169  0.13388906  1  0  0.097428  0  0.954643  0  0  0.108184  0  1.016047  0  0  0.111184  0  1.013936  0  0  0.104302  0.105955  0  1.01775  0
H  H44  1  0.91520471  0.20865570  0.44563077  1  0  0.08516  0  0.978623  0  0  0.094912  0  1.041462  0  0  0.096396  0  1.043397  0  0  0.096919  0.093903  0  1.040065  0
H  H45  1  0.58479599  0.79134297  0.94563142  1  0  0.085182  0  0.97863  0  0  0.094932  0  1.04148  0  0  0.096417  0  1.043414  0  0  0.096923  0.093922  0  1.040088  0
H  H46  1  0.41521340  0.29134155  0.55436744  1  0  0.085156  0  0.978629  0  0  0.094972  0  1.041409  0  0  0.096456  0  1.043344  0  0  0.096918  0.093963  0  1.040019  0
H  H47  1  0.08480171  0.70866189  0.05437010  1  0  0.085211  0  0.978527  0  0  0.094959  0  1.041384  0  0  0.096444  0  1.043318  0  0  0.096949  0.093954  0  1.039985  0
H  H48  1  0.88965012  0.09938779  0.55302547  1  0  0.088126  0  0.969834  0  0  0.096964  0  1.036663  0  0  0.099255  0  1.036235  0  0  0.099888  0.095173  0  1.037307  0
H  H49  1  0.61034200  0.90061554  0.05302613  1  0  0.088127  0  0.969834  0  0  0.097002  0  1.036614  0  0  0.099294  0  1.036183  0  0  0.0999  0.095212  0  1.037259  0
H  H50  1  0.38966109  0.40061163  0.44697273  1  0  0.088151  0  0.969859  0  0  0.097065  0  1.036597  0  0  0.099361  0  1.036162  0  0  0.099921  0.09527  0  1.037241  0
H  H51  1  0.11034596  0.59939283  0.94697492  1  0  0.088134  0  0.969799  0  0  0.096996  0  1.036597  0  0  0.099288  0  1.036169  0  0  0.099897  0.095211  0  1.037241  0
C  C52  1  0.38067530  0.03160646  0.66709489  1  0  -0.746211  0  3.596037  0  0  -0.742671  0  3.833211  0  0  -0.75791  0  3.833962  0  0  -0.179606  -0.731819  0  3.832265  0
C  C53  1  0.11932219  0.96839549  0.16709457  1  0  -0.746204  0  3.596034  0  0  -0.742682  0  3.833181  0  0  -0.757925  0  3.833946  0  0  -0.179602  -0.731818  0  3.832212  0
C  C54  1  0.88067798  0.46839632  0.33290567  1  0  -0.746221  0  3.59602  0  0  -0.742737  0  3.833199  0  0  -0.757973  0  3.833955  0  0  -0.179635  -0.731871  0  3.832218  0
C  C55  1  0.61932185  0.53160611  0.83290649  1  0  -0.746175  0  3.596076  0  0  -0.742643  0  3.83316  0  0  -0.757877  0  3.833915  0  0  -0.179556  -0.731791  0  3.832215  0
C  C56  1  0.34969450  0.73495966  0.60888299  1  0  -0.607203  0  3.581592  0  0  -0.660041  0  3.806588  0  0  -0.669752  0  3.810826  0  0  -0.249431  -0.653038  0  3.803552  0
C  C57  1  0.15030254  0.26504135  0.10888406  1  0  -0.607184  0  3.581541  0  0  -0.660022  0  3.806543  0  0  -0.669731  0  3.81078  0  0  -0.249422  -0.653023  0  3.803507  0
C  C58  1  0.84969898  0.76504180  0.39111866  1  0  -0.607349  0  3.581587  0  0  -0.66029  0  3.806627  0  0  -0.669999  0  3.810855  0  0  -0.249524  -0.653287  0  3.803589  0
C  C59  1  0.65029390  0.23495818  0.89111827  1  0  -0.607218  0  3.581566  0  0  -0.660153  0  3.806632  0  0  -0.669848  0  3.810884  0  0  -0.249491  -0.653156  0  3.803595  0
C  C60  1  0.54216116  0.98502853  0.53580337  1  0  -0.226233  0  3.785811  0  0  -0.186397  0  4.028087  0  0  -0.195178  0  4.052852  0  0  -0.032002  -0.180266  0  4.010883  0
C  C61  1  0.95782529  0.01497712  0.03580381  1  0  -0.226215  0  3.785795  0  0  -0.186398  0  4.028102  0  0  -0.195177  0  4.052862  0  0  -0.031973  -0.180265  0  4.010894  0
C  C62  1  0.04218445  0.51497388  0.46419529  1  0  -0.226259  0  3.785833  0  0  -0.186444  0  4.028121  0  0  -0.195225  0  4.052887  0  0  -0.031998  -0.180306  0  4.010907  0
C  C63  1  0.45782459  0.48502032  0.96419679  1  0  -0.226302  0  3.78581  0  0  -0.186474  0  4.028087  0  0  -0.195254  0  4.052846  0  0  -0.031979  -0.180336  0  4.010884  0
C  C64  1  0.35521799  0.95580294  0.49151068  1  0  -0.061566  0  3.760855  0  0  -0.081917  0  4.003601  0  0  -0.082358  0  4.026193  0  0  -0.083714  -0.081797  0  3.988368  0
C  C65  1  0.14477461  0.04420138  0.99150993  1  0  -0.061337  0  3.760964  0  0  -0.081682  0  4.003712  0  0  -0.082123  0  4.026309  0  0  -0.083652  -0.081563  0  3.98848  0
C  C66  1  0.85523932  0.54419968  0.50848861  1  0  -0.061416  0  3.761005  0  0  -0.081736  0  4.003751  0  0  -0.082166  0  4.026323  0  0  -0.083654  -0.081618  0  3.988519  0
C  C67  1  0.64476170  0.45579585  0.00848862  1  0  -0.061357  0  3.761019  0  0  -0.081696  0  4.003783  0  0  -0.082133  0  4.026369  0  0  -0.083666  -0.081579  0  3.988554  0
C  C68  1  0.37073978  0.01688924  0.43091149  1  0  -0.060357  0  3.721372  0  0  -0.072371  0  3.967416  0  0  -0.075074  0  3.988114  0  0  -0.083487  -0.070237  0  3.953334  0
C  C69  1  0.12925421  0.98311413  0.93091439  1  0  -0.06039  0  3.721578  0  0  -0.072405  0  3.967607  0  0  -0.075111  0  3.988311  0  0  -0.083474  -0.070267  0  3.953526  0
C  C70  1  0.87075739  0.48311350  0.56908482  1  0  -0.060338  0  3.721463  0  0  -0.072364  0  3.967507  0  0  -0.075068  0  3.98821  0  0  -0.083477  -0.070232  0  3.953436  0
C  C71  1  0.62925703  0.51688070  0.06908620  1  0  -0.060287  0  3.721399  0  0  -0.072314  0  3.96744  0  0  -0.075018  0  3.988142  0  0  -0.083466  -0.070179  0  3.953361  0
C  C72  1  0.57176329  0.10783303  0.41428695  1  0  -0.036178  0  3.701387  0  0  -0.049372  0  3.943015  0  0  -0.049206  0  3.962108  0  0  -0.075414  -0.049563  0  3.930091  0
C  C73  1  0.92823347  0.89216801  0.91428676  1  0  -0.036182  0  3.701186  0  0  -0.049385  0  3.942825  0  0  -0.049218  0  3.961916  0  0  -0.075403  -0.049571  0  3.929896  0
C  C74  1  0.07177523  0.39216729  0.58571204  1  0  -0.036213  0  3.701244  0  0  -0.049424  0  3.942908  0  0  -0.049258  0  3.962  0  0  -0.075425  -0.049614  0  3.929991  0
C  C75  1  0.42822903  0.60783038  0.08571304  1  0  -0.03625  0  3.701236  0  0  -0.049447  0  3.942887  0  0  -0.04928  0  3.961977  0  0  -0.07542  -0.049633  0  3.929958  0
C  C76  1  0.75680089  0.13888186  0.45839127  1  0  -0.072497  0  3.74824  0  0  -0.082625  0  3.994564  0  0  -0.08617  0  4.017492  0  0  -0.087107  -0.080198  0  3.978608  0
C  C77  1  0.74319067  0.86112017  0.95839337  1  0  -0.072518  0  3.748314  0  0  -0.08264  0  3.994631  0  0  -0.086184  0  4.017558  0  0  -0.087132  -0.080215  0  3.978679  0
C  C78  1  0.25681398  0.36112039  0.54160639  1  0  -0.072561  0  3.748386  0  0  -0.082732  0  3.994701  0  0  -0.08628  0  4.017634  0  0  -0.08716  -0.080308  0  3.978751  0
C  C79  1  0.24320658  0.63887856  0.04160775  1  0  -0.072554  0  3.748442  0  0  -0.082684  0  3.994774  0  0  -0.08623  0  4.017702  0  0  -0.087156  -0.080263  0  3.978825  0
C  C80  1  0.74302735  0.07744050  0.51900022  1  0  -0.061126  0  3.76955  0  0  -0.082467  0  4.013928  0  0  -0.082264  0  4.034981  0  0  -0.08369  -0.082323  0  3.999692  0
C  C81  1  0.75696635  0.92256180  0.01900047  1  0  -0.061228  0  3.769826  0  0  -0.082592  0  4.014213  0  0  -0.082389  0  4.035264  0  0  -0.08373  -0.082453  0  3.99998  0
C  C82  1  0.24304068  0.42255942  0.48099932  1  0  -0.061178  0  3.769754  0  0  -0.082581  0  4.014138  0  0  -0.082383  0  4.035198  0  0  -0.083726  -0.082429  0  3.999889  0
C  C83  1  0.25696293  0.57744039  0.98100113  1  0  -0.061168  0  3.769537  0  0  -0.082524  0  4.013923  0  0  -0.082321  0  4.034972  0  0  -0.083741  -0.082393  0  3.9997  0
O  O84  1  0.19591092  0.81919148  0.74898522  1  0  -0.875845  0  1.988401  0  0  -0.781007  0  2.282818  0  0  -0.809524  0  2.256567  0  0  -0.384475  -0.760829  0  2.301242  0
O  O85  1  0.30408721  0.18080908  0.24898548  1  0  -0.875846  0  1.988473  0  0  -0.781019  0  2.282894  0  0  -0.809533  0  2.256638  0  0  -0.38449  -0.760843  0  2.301322  0
O  O86  1  0.69591519  0.68080932  0.25101446  1  0  -0.875813  0  1.988424  0  0  -0.781048  0  2.282902  0  0  -0.809561  0  2.256644  0  0  -0.384487  -0.760875  0  2.301322  0
O  O87  1  0.80408585  0.31919224  0.75101550  1  0  -0.875814  0  1.988441  0  0  -0.780987  0  2.282854  0  0  -0.809501  0  2.256603  0  0  -0.384464  -0.76081  0  2.301284  0
O  O88  1  0.61945511  0.92452877  0.77282004  1  0  -0.87038  0  1.968837  0  0  -0.78033  0  2.260283  0  0  -0.808598  0  2.234745  0  0  -0.379605  -0.759979  0  2.277613  0
O  O89  1  0.88054426  0.07546932  0.27282135  1  0  -0.870355  0  1.968812  0  0  -0.78031  0  2.260249  0  0  -0.808573  0  2.234706  0  0  -0.379579  -0.759959  0  2.277584  0
O  O90  1  0.11945508  0.57546829  0.22717913  1  0  -0.870353  0  1.96884  0  0  -0.780306  0  2.260252  0  0  -0.808582  0  2.234728  0  0  -0.379581  -0.759958  0  2.277571  0
O  O91  1  0.38054657  0.42453006  0.72717968  1  0  -0.870373  0  1.968869  0  0  -0.780331  0  2.260315  0  0  -0.808596  0  2.234775  0  0  -0.379597  -0.75998  0  2.277646  0
O  O92  1  0.24253353  0.09207942  0.78700785  1  0  -0.875293  0  2.034389  0  0  -0.779199  0  2.329865  0  0  -0.807901  0  2.304244  0  0  -0.377344  -0.758559  0  2.347148  0
O  O93  1  0.25747044  0.90792101  0.28700669  1  0  -0.875242  0  2.034364  0  0  -0.779179  0  2.329838  0  0  -0.80791  0  2.304261  0  0  -0.377345  -0.758543  0  2.34713  0
O  O94  1  0.74252534  0.40791936  0.21299311  1  0  -0.87528  0  2.034376  0  0  -0.779181  0  2.329829  0  0  -0.807876  0  2.304197  0  0  -0.377363  -0.758549  0  2.347114  0
O  O95  1  0.75747356  0.59208005  0.71299302  1  0  -0.87527  0  2.03426  0  0  -0.779207  0  2.329752  0  0  -0.807919  0  2.304145  0  0  -0.377375  -0.758567  0  2.347036  0
O  O96  1  0.80249540  0.87753457  0.63516463  1  0  -0.790069  0  1.97862  0  0  -0.705008  0  2.252027  0  0  -0.730589  0  2.234529  0  0  -0.361785  -0.68737  0  2.264137  0
O  O97  1  0.69750290  0.12246737  0.13516629  1  0  -0.790049  0  1.978747  0  0  -0.70501  0  2.252187  0  0  -0.730594  0  2.234698  0  0  -0.361767  -0.68736  0  2.264265  0
O  O98  1  0.30249883  0.62247123  0.36483322  1  0  -0.790088  0  1.978764  0  0  -0.705051  0  2.252165  0  0  -0.730639  0  2.234678  0  0  -0.36175  -0.687414  0  2.264271  0
O  O99  1  0.19749650  0.37753123  0.86483465  1  0  -0.790093  0  1.978714  0  0  -0.705049  0  2.252124  0  0  -0.730637  0  2.234634  0  0  -0.361729  -0.687381  0  2.264186  0
