# generated using pymatgen
data_VCuPH9C10(NO2)3
_symmetry_space_group_name_H-M   'P 1'
_cell_length_a   7.29816779
_cell_length_b   9.90537392
_cell_length_c   9.97698695
_cell_angle_alpha   106.97102102
_cell_angle_beta   102.62892561
_cell_angle_gamma   99.26106132
_symmetry_Int_Tables_number   1
_chemical_formula_structural   VCuPH9C10(NO2)3
_chemical_formula_sum   'V2 Cu2 P2 H18 C20 N6 O12'
_cell_volume   653.33994047
_cell_formula_units_Z   2
loop_
 _symmetry_equiv_pos_site_id
 _symmetry_equiv_pos_as_xyz
  1  'x, y, z'
loop_
 _atom_site_type_symbol
 _atom_site_label
 _atom_site_symmetry_multiplicity
 _atom_site_fract_x
 _atom_site_fract_y
 _atom_site_fract_z
 _atom_site_occupancy
 _atom_site_hle17_ddec_charge
 _atom_site_hle17_ddec_spin_density
 _atom_site_hle17_ddec_sum_bond_order
 _atom_site_hle17_magmom
 _atom_site_hse06_10hf_ddec_charge
 _atom_site_hse06_10hf_ddec_spin_density
 _atom_site_hse06_10hf_ddec_sum_bond_order
 _atom_site_hse06_10hf_magmom
 _atom_site_hse06_ddec_charge
 _atom_site_hse06_ddec_spin_density
 _atom_site_hse06_ddec_sum_bond_order
 _atom_site_hse06_magmom
 _atom_site_pbe_cm5_charge
 _atom_site_pbe_ddec_charge
 _atom_site_pbe_ddec_spin_density
 _atom_site_pbe_ddec_sum_bond_order
 _atom_site_pbe_magmom
V  V0  1  0.96302140  0.70348782  0.61222014  1  1.950005  0.000469  2.970321  0.001  1.991844  -0.000237  3.376441  0.0  2.076092  -3e-06  3.36178  0.0  1.483671  1.924437  -0.00044  3.407018  0.0
V  V1  1  0.03697478  0.29650850  0.38777376  1  1.949997  -0.000482  2.970376  -0.001  1.991846  0.000238  3.376487  0.0  2.076096  3e-06  3.361819  0.0  1.48368  1.924402  0.00044  3.407085  0.0
Cu  Cu2  1  0.39771524  0.50914509  0.23886048  1  0.940875  0.723647  1.773313  0.516  0.923832  0.806885  2.161749  0.638  1.009563  0.880838  2.094166  0.722  0.786308  0.868343  0.749654  2.211041  0.579
Cu  Cu3  1  0.60228325  0.49085449  0.76113977  1  0.940912  -0.723636  1.773254  -0.516  0.923914  -0.806889  2.161675  -0.638  1.009657  -0.880846  2.094075  -0.722  0.786371  0.868417  -0.749655  2.21099  -0.579
P  P4  1  0.66257374  0.39349167  0.43094222  1  1.782183  -0.002889  4.881004  -0.005  1.626256  -0.001972  5.393486  -0.005  1.696635  -0.001834  5.329374  -0.004  0.411299  1.577119  -0.002076  5.43431  -0.005
P  P5  1  0.33742254  0.60650574  0.56906103  1  1.782084  0.002885  4.880967  0.005  1.626114  0.001969  5.393495  0.005  1.696487  0.00184  5.329388  0.004  0.411215  1.57698  0.002078  5.434326  0.005
H  H6  1  0.30532761  0.21049260  0.08410820  1  0.096499  0.001204  0.964295  0.002  0.105657  0.001194  1.023948  0.002  0.107107  0.000829  1.022066  0.002  0.121141  0.104133  0.001473  1.025869  0.003
H  H7  1  0.69468238  0.78950701  0.91588403  1  0.09651  -0.001205  0.964262  -0.002  0.105619  -0.001194  1.023963  -0.002  0.107069  -0.000829  1.022083  -0.002  0.121152  0.1041  -0.001473  1.025875  -0.003
H  H8  1  0.08704097  0.03484039  0.84185409  1  0.11208  0.000463  0.963595  0.001  0.120826  0.000514  1.02496  0.001  0.123771  0.000339  1.024571  0.0  0.108981  0.118034  0.00065  1.026734  0.001
H  H9  1  0.91296759  0.96516356  0.15813912  1  0.112174  -0.000462  0.963552  -0.001  0.120975  -0.000514  1.024869  -0.001  0.123921  -0.000339  1.024481  0.0  0.109023  0.118184  -0.00065  1.026639  -0.001
H  H10  1  0.92980910  0.13609853  0.65744251  1  0.110593  0.000598  0.919335  0.001  0.124203  0.0002  0.971962  0.0  0.126591  8.3e-05  0.969562  0.0  0.116798  0.122457  0.000307  0.973617  0.0
H  H11  1  0.07019183  0.86390867  0.34255932  1  0.110604  -0.0006  0.919226  -0.001  0.12421  -0.0002  0.971865  0.0  0.126602  -8.3e-05  0.969459  0.0  0.116794  0.122466  -0.000307  0.973522  0.0
H  H12  1  0.99596688  0.40756824  0.72040430  1  0.122594  0.000771  0.966262  0.001  0.125192  0.000772  1.040313  0.001  0.128406  0.000559  1.038722  0.001  0.111281  0.122654  0.000975  1.041889  0.001
H  H13  1  0.00403248  0.59243896  0.27960327  1  0.122621  -0.00077  0.966205  -0.001  0.125233  -0.000772  1.04021  -0.001  0.128446  -0.000559  1.038622  -0.001  0.111324  0.122698  -0.000975  1.041787  -0.001
H  H14  1  0.13218509  0.62538049  0.88051454  1  0.325426  -0.000192  0.92477  0.0  0.312511  -8.2e-05  0.98038  0.0  0.321575  -6.7e-05  0.972734  0.0  0.304681  0.306251  -0.000102  0.985556  0.0
H  H15  1  0.86781848  0.37462238  0.11949354  1  0.325416  0.000192  0.924735  0.0  0.312519  8.2e-05  0.980279  0.0  0.321586  6.7e-05  0.972628  0.0  0.304681  0.306239  0.000102  0.985491  0.0
H  H16  1  0.25842908  0.86285247  0.96854362  1  0.124513  0.00061  0.947226  0.001  0.136156  0.00062  1.003642  0.001  0.13921  0.000408  1.003236  0.001  0.115403  0.133459  0.00078  1.004797  0.001
H  H17  1  0.74156614  0.13714602  0.03145975  1  0.124593  -0.000609  0.947472  -0.001  0.136202  -0.00062  1.003904  -0.001  0.139257  -0.000408  1.003499  -0.001  0.115443  0.133505  -0.00078  1.005056  -0.001
H  H18  1  0.46140406  0.08358053  0.18242735  1  0.103798  0.000502  0.952024  0.001  0.114749  0.000186  1.009892  0.0  0.117315  6.5e-05  1.007322  0.0  0.110301  0.113151  0.000388  1.01118  0.0
H  H19  1  0.53860572  0.91641908  0.81757286  1  0.10379  -0.0005  0.952008  -0.001  0.114739  -0.000186  1.009885  0.0  0.117305  -6.5e-05  1.007314  0.0  0.110295  0.11314  -0.000388  1.011177  0.0
H  H20  1  0.64971535  0.04607086  0.40495935  1  0.12297  0.000605  0.955983  0.001  0.133065  0.000613  1.01265  0.001  0.135874  0.000412  1.012584  0.0  0.111711  0.130748  0.00071  1.01324  0.001
H  H21  1  0.35029796  0.95393093  0.59504109  1  0.123005  -0.000605  0.956015  -0.001  0.133068  -0.000613  1.012725  -0.001  0.135877  -0.000412  1.012659  0.0  0.111738  0.130753  -0.00071  1.013318  -0.001
H  H22  1  0.61639204  0.79428887  0.41233354  1  0.105074  0.001317  0.960389  0.003  0.110672  0.001212  1.024648  0.002  0.112417  0.000816  1.022221  0.002  0.121172  0.108936  0.001472  1.026851  0.003
H  H23  1  0.38361124  0.20571290  0.58767218  1  0.10509  -0.001313  0.960451  -0.003  0.110706  -0.001213  1.024671  -0.002  0.112452  -0.000816  1.022243  -0.002  0.121186  0.108972  -0.001472  1.026871  -0.003
C  C24  1  0.23493128  0.24687339  0.99797285  1  0.147791  -0.00551  3.687843  -0.006  0.118664  0.000221  3.943437  -0.001  0.130304  -0.001142  3.961579  -0.002  0.038445  0.111384  0.001267  3.931556  0.0
C  C25  1  0.76506944  0.75312402  0.00202315  1  0.147738  0.005525  3.687734  0.006  0.118673  -0.00022  3.943382  0.001  0.130312  0.001143  3.96153  0.002  0.03843  0.111393  -0.001268  3.931498  0.0
C  C26  1  0.11484005  0.15175684  0.86561351  1  -0.139791  0.015363  3.745621  0.016  -0.153824  0.00446  3.995361  0.006  -0.164299  0.00364  4.017896  0.005  -0.091068  -0.146898  0.005349  3.980633  0.006
C  C27  1  0.88516077  0.84824492  0.13437874  1  -0.139996  -0.015392  3.745563  -0.016  -0.154103  -0.00446  3.995339  -0.006  -0.164583  -0.003642  4.017875  -0.005  -0.091176  -0.147175  -0.00535  3.980612  -0.006
C  C28  1  0.02595759  0.20912202  0.76262665  1  0.031449  -0.010821  3.712331  -0.01  0.011932  -0.002631  3.963318  -0.003  0.020666  -0.002768  3.979376  -0.003  -0.059998  0.006786  -0.00255  3.951203  -0.003
C  C29  1  0.97403788  0.79088082  0.23736798  1  0.03149  0.010844  3.71207  0.011  0.011972  0.00263  3.963074  0.003  0.020707  0.002771  3.97913  0.003  -0.059949  0.006825  0.00255  3.950964  0.003
C  C30  1  0.06174200  0.35795501  0.79650570  1  -0.208155  0.016139  3.671321  0.016  -0.232541  0.005156  3.940169  0.006  -0.245412  0.004341  3.960767  0.005  -0.090406  -0.224133  0.005848  3.926407  0.007
C  C31  1  0.93825600  0.64205218  0.20349963  1  -0.208114  -0.016166  3.671071  -0.016  -0.232495  -0.005155  3.939885  -0.006  -0.245366  -0.004344  3.960482  -0.005  -0.090416  -0.224087  -0.005849  3.926125  -0.007
C  C32  1  0.18719060  0.44993777  0.93387461  1  0.419528  -0.004221  3.782983  -0.005  0.390182  0.000764  4.056391  0.0  0.411542  -0.000528  4.071538  -0.002  0.227689  0.375919  0.001696  4.045905  0.001
C  C33  1  0.81281385  0.55006292  0.06612699  1  0.41936  0.004233  3.78293  0.005  0.390089  -0.000764  4.056243  0.0  0.411447  0.000529  4.071394  0.002  0.227716  0.375827  -0.001697  4.045751  -0.001
C  C34  1  0.33101422  0.71377750  0.07978092  1  0.422191  -0.002013  3.79835  -0.003  0.396425  0.000802  4.061967  0.0  0.417115  -0.000505  4.078519  -0.001  0.231603  0.382889  0.001706  4.049884  0.001
C  C35  1  0.66898410  0.28622644  0.92022555  1  0.422364  0.002006  3.7983  0.003  0.39648  -0.0008  4.062052  0.0  0.417172  0.000506  4.078605  0.001  0.231634  0.382945  -0.001705  4.049962  -0.001
C  C36  1  0.34149011  0.85384105  0.06910141  1  -0.214655  0.013197  3.688772  0.013  -0.229564  0.00434  3.936252  0.005  -0.241709  0.003563  3.957115  0.004  -0.088216  -0.221651  0.00477  3.922465  0.005
C  C37  1  0.65851521  0.14615856  0.93090704  1  -0.214825  -0.013198  3.688923  -0.013  -0.229659  -0.00434  3.936395  -0.005  -0.241805  -0.003567  3.957259  -0.004  -0.088256  -0.221743  -0.004772  3.922602  -0.005
C  C38  1  0.45249990  0.97402969  0.18662058  1  0.024165  -0.009323  3.715491  -0.009  0.006317  -0.001875  3.963031  -0.002  0.014212  -0.002069  3.979005  -0.002  -0.060346  0.001487  -0.001842  3.951788  -0.002
C  C39  1  0.54750317  0.02597100  0.81337978  1  0.024199  0.009319  3.715462  0.009  0.006354  0.001875  3.96298  0.002  0.014248  0.002073  3.978954  0.002  -0.060345  0.001526  0.001843  3.951736  0.002
C  C40  1  0.55614940  0.95421975  0.31249380  1  -0.131568  0.016157  3.72088  0.016  -0.149331  0.004564  3.975056  0.006  -0.159813  0.003572  3.997827  0.005  -0.089282  -0.143059  0.005568  3.960631  0.007
C  C41  1  0.44385510  0.04577659  0.68750556  1  -0.131627  -0.016159  3.720826  -0.016  -0.149407  -0.004568  3.975065  -0.006  -0.159886  -0.003572  3.99783  -0.005  -0.089327  -0.143136  -0.00557  3.960642  -0.007
C  C42  1  0.53955400  0.81485562  0.31662329  1  0.146014  -0.006326  3.681903  -0.007  0.118065  0.001238  3.939248  0.001  0.128274  -0.000239  3.959862  -0.001  0.044413  0.111513  0.002214  3.926071  0.002
C  C43  1  0.46044650  0.18514615  0.68338093  1  0.14602  0.006312  3.681948  0.007  0.118084  -0.001235  3.93928  -0.001  0.128293  0.00024  3.959896  0.001  0.044425  0.111532  -0.002214  3.926099  -0.002
N  N44  1  0.27132069  0.39370666  0.03283667  1  -0.40427  0.093234  3.271463  0.114  -0.364818  0.063846  3.583804  0.085  -0.400095  0.051542  3.59897  0.072  -0.365381  -0.343143  0.070407  3.57543  0.09
N  N45  1  0.72867650  0.60628857  0.96715910  1  -0.404128  -0.093248  3.271309  -0.115  -0.364742  -0.063852  3.583661  -0.085  -0.400018  -0.051547  3.598826  -0.072  -0.365427  -0.343066  -0.070413  3.575289  -0.09
N  N46  1  0.21707065  0.59706243  0.96180745  1  -0.453604  0.007377  3.347623  0.01  -0.401087  0.000866  3.580269  0.002  -0.42522  0.000265  3.588884  0.001  -0.392248  -0.384036  0.001846  3.573409  0.003
N  N47  1  0.78292004  0.40293931  0.03819406  1  -0.45353  -0.007393  3.347784  -0.01  -0.400974  -0.000866  3.580394  -0.002  -0.425102  -0.000263  3.589006  -0.001  -0.392197  -0.383912  -0.001846  3.573553  -0.003
N  N48  1  0.42659653  0.69618676  0.20318752  1  -0.414276  0.089986  3.291472  0.111  -0.375654  0.064075  3.604843  0.085  -0.412147  0.051668  3.624004  0.072  -0.360656  -0.353303  0.0708  3.593284  0.091
N  N49  1  0.57340394  0.30381501  0.79681770  1  -0.414429  -0.089985  3.291663  -0.111  -0.375765  -0.064082  3.605043  -0.085  -0.412269  -0.051674  3.624215  -0.072  -0.360703  -0.353412  -0.070808  3.593484  -0.091
O  O50  1  0.51072344  0.35304479  0.28389241  1  -0.836872  0.053989  1.959783  0.069  -0.788999  0.034205  2.252596  0.047  -0.829256  0.026519  2.227531  0.038  -0.375372  -0.759711  0.038376  2.267858  0.051
O  O51  1  0.48927312  0.64694827  0.71610062  1  -0.836839  -0.053956  1.959826  -0.069  -0.788946  -0.034193  2.25263  -0.047  -0.829195  -0.026511  2.227557  -0.038  -0.375352  -0.759665  -0.038361  2.267904  -0.051
O  O52  1  0.58117509  0.39039116  0.55739601  1  -0.880537  -0.042466  2.121186  -0.054  -0.816281  -0.030103  2.418174  -0.04  -0.855411  -0.024582  2.391661  -0.034  -0.378676  -0.788316  -0.03352  2.435522  -0.043
O  O53  1  0.41881656  0.60960406  0.44259579  1  -0.880527  0.042479  2.121175  0.054  -0.816206  0.030105  2.418141  0.04  -0.855336  0.024582  2.39163  0.034  -0.378634  -0.78824  0.033521  2.435486  0.043
O  O54  1  0.80140862  0.54518178  0.45997070  1  -0.93225  0.000814  2.04559  0.001  -0.901301  0.000372  2.360851  0.001  -0.937372  0.000104  2.344063  0.0  -0.448389  -0.873398  0.000487  2.371592  0.001
O  O55  1  0.19858818  0.45481237  0.54002670  1  -0.932227  -0.000813  2.045458  -0.001  -0.901296  -0.00037  2.360753  -0.001  -0.93736  -0.000105  2.34396  0.0  -0.448424  -0.873372  -0.000487  2.371464  -0.001
O  O56  1  0.79271642  0.27947670  0.41559353  1  -0.884246  0.006016  1.950623  0.007  -0.838041  0.003119  2.230914  0.004  -0.872651  0.001913  2.213239  0.002  -0.438033  -0.810627  0.004496  2.242165  0.005
O  O57  1  0.20727184  0.72051309  0.58440616  1  -0.884232  -0.006008  1.950707  -0.007  -0.838011  -0.003117  2.230973  -0.004  -0.872637  -0.001912  2.213345  -0.002  -0.438011  -0.810607  -0.004493  2.242234  -0.005
O  O58  1  0.89583432  0.85235825  0.61388753  1  -0.743563  0.000954  1.222036  0.001  -0.750844  0.000653  1.45629  0.001  -0.776918  0.000377  1.450119  0.0  -0.597633  -0.730674  0.000934  1.463501  0.001
O  O59  1  0.10416526  0.14764025  0.38611159  1  -0.743506  -0.000951  1.222076  -0.001  -0.75081  -0.000654  1.456336  -0.001  -0.776889  -0.000376  1.450167  0.0  -0.5976  -0.730633  -0.000934  1.46355  -0.001
O  O60  1  0.97002976  0.67616669  0.76868547  1  -0.843966  -0.001375  1.417509  -0.002  -0.864307  -0.000973  1.699944  -0.002  -0.896411  -0.000561  1.692981  -0.001  -0.609219  -0.840792  -0.001414  1.707996  -0.002
O  O61  1  0.02996942  0.32383073  0.23131528  1  -0.843984  0.001382  1.417634  0.002  -0.864339  0.000974  1.700088  0.002  -0.896444  0.00056  1.693121  0.001  -0.609264  -0.840816  0.001413  1.70815  0.002
