# generated using pymatgen
data_NdH8C6O7
_symmetry_space_group_name_H-M   'P 1'
_cell_length_a   7.78459040
_cell_length_b   8.10906639
_cell_length_c   14.25907156
_cell_angle_alpha   96.95170997
_cell_angle_beta   95.85570602
_cell_angle_gamma   104.04641446
_symmetry_Int_Tables_number   1
_chemical_formula_structural   NdH8C6O7
_chemical_formula_sum   'Nd4 H32 C24 O28'
_cell_volume   858.67415519
_cell_formula_units_Z   4
loop_
 _symmetry_equiv_pos_site_id
 _symmetry_equiv_pos_as_xyz
  1  'x, y, z'
loop_
 _atom_site_type_symbol
 _atom_site_label
 _atom_site_symmetry_multiplicity
 _atom_site_fract_x
 _atom_site_fract_y
 _atom_site_fract_z
 _atom_site_occupancy
 _atom_site_hle17_bader_spin_density
 _atom_site_hle17_ddec_charge
 _atom_site_hle17_ddec_spin_density
 _atom_site_hle17_ddec_sum_bond_order
 _atom_site_hle17_magmom
 _atom_site_hse06_10hf_bader_spin_density
 _atom_site_hse06_10hf_ddec_charge
 _atom_site_hse06_10hf_ddec_spin_density
 _atom_site_hse06_10hf_ddec_sum_bond_order
 _atom_site_hse06_10hf_magmom
 _atom_site_hse06_bader_spin_density
 _atom_site_hse06_ddec_charge
 _atom_site_hse06_ddec_spin_density
 _atom_site_hse06_ddec_sum_bond_order
 _atom_site_hse06_magmom
 _atom_site_pbe_bader_spin_density
 _atom_site_pbe_cm5_charge
 _atom_site_pbe_ddec_charge
 _atom_site_pbe_ddec_spin_density
 _atom_site_pbe_ddec_sum_bond_order
 _atom_site_pbe_magmom
Nd  Nd0  1  0.62785747  0.57719570  0.79224127  1  0  2.308094  0  1.621009  0  0  2.145647  0  2.081309  0  0  2.243326  0  1.937514  0  0  1.499464  2.112322  0  2.114841  0
Nd  Nd1  1  0.37213915  0.42280325  0.20775753  1  0  2.308083  0  1.621008  0  0  2.145548  0  2.081451  0  0  2.243305  0  1.937519  0  0  1.499437  2.112227  0  2.114983  0
Nd  Nd2  1  0.08819069  0.49025387  0.69998751  1  0  2.310288  0  1.635521  0  0  2.147969  0  2.096899  0  0  2.245363  0  1.953332  0  0  1.506917  2.114337  0  2.131249  0
Nd  Nd3  1  0.91180657  0.50974764  0.30001361  1  0  2.310297  0  1.635532  0  0  2.148068  0  2.096782  0  0  2.245381  0  1.953346  0  0  1.506926  2.114433  0  2.131142  0
H  H4  1  0.90075075  0.90854384  0.51548243  1  0  0.108078  0  0.938256  0  0  0.123172  0  0.994196  0  0  0.125399  0  0.993271  0  0  0.107064  0.121619  0  0.994723  0
H  H5  1  0.09924941  0.09145383  0.48451649  1  0  0.108078  0  0.938291  0  0  0.123172  0  0.994236  0  0  0.125399  0  0.993312  0  0  0.107072  0.121623  0  0.994762  0
H  H6  1  0.82561937  0.96399285  0.62516319  1  0  0.140131  0  0.916763  0  0  0.152653  0  0.97571  0  0  0.155953  0  0.973367  0  0  0.117644  0.150392  0  0.977116  0
H  H7  1  0.17438112  0.03600611  0.37483584  1  0  0.140139  0  0.916761  0  0  0.152667  0  0.975701  0  0  0.155968  0  0.973358  0  0  0.117646  0.15041  0  0.97711  0
H  H8  1  0.54744241  0.70651202  0.57292576  1  0  0.114335  0  0.947133  0  0  0.127016  0  1.010472  0  0  0.129309  0  1.010326  0  0  0.114033  0.125156  0  1.011042  0
H  H9  1  0.45255549  0.29348693  0.42707381  1  0  0.114313  0  0.947176  0  0  0.126966  0  1.010529  0  0  0.129276  0  1.010365  0  0  0.114017  0.125108  0  1.011099  0
H  H10  1  0.56290107  0.87610784  0.50576857  1  0  0.100847  0  0.926936  0  0  0.118926  0  0.982484  0  0  0.120978  0  0.981404  0  0  0.103391  0.117417  0  0.983217  0
H  H11  1  0.43709943  0.12389112  0.49423046  1  0  0.100832  0  0.926962  0  0  0.118898  0  0.982508  0  0  0.12095  0  0.98143  0  0  0.103378  0.117385  0  0.983245  0
H  H12  1  0.13728342  0.99208751  0.00434000  1  0  0.11989  0  0.935531  0  0  0.135098  0  0.993693  0  0  0.137555  0  0.992764  0  0  0.11095  0.133381  0  0.994301  0
H  H13  1  0.86271809  0.00791531  0.99566006  1  0  0.119903  0  0.935535  0  0  0.135115  0  0.993688  0  0  0.137572  0  0.992758  0  0  0.110948  0.133398  0  0.994297  0
H  H14  1  0.30769291  0.88290496  0.00665773  1  0  0.106305  0  0.94104  0  0  0.12078  0  1.000596  0  0  0.123686  0  0.998303  0  0  0.10303  0.118788  0  1.001942  0
H  H15  1  0.69230628  0.11709399  0.99334192  1  0  0.106317  0  0.941018  0  0  0.12079  0  1.000576  0  0  0.123696  0  0.998282  0  0  0.103027  0.118799  0  1.001923  0
H  H16  1  0.11772793  0.90210366  0.15317188  1  0  0.144102  0  0.928739  0  0  0.157099  0  0.986558  0  0  0.160712  0  0.984419  0  0  0.11929  0.154616  0  0.987892  0
H  H17  1  0.88227194  0.09789786  0.84682799  1  0  0.144089  0  0.928748  0  0  0.157109  0  0.986574  0  0  0.160727  0  0.984428  0  0  0.11929  0.154626  0  0.987904  0
H  H18  1  0.95734403  0.73008041  0.08129660  1  0  0.11794  0  0.91341  0  0  0.13385  0  0.968761  0  0  0.136511  0  0.967543  0  0  0.115555  0.131963  0  0.969635  0
H  H19  1  0.04265782  0.26992369  0.91870357  1  0  0.117924  0  0.913368  0  0  0.133847  0  0.968738  0  0  0.136506  0  0.96752  0  0  0.11554  0.13196  0  0.969612  0
H  H20  1  0.31362729  0.95704553  0.64570666  1  0  0.118812  0  0.930442  0  0  0.132283  0  0.98823  0  0  0.134996  0  0.987265  0  0  0.107557  0.130422  0  0.988705  0
H  H21  1  0.68637189  0.04295342  0.35429369  1  0  0.118785  0  0.930433  0  0  0.132263  0  0.988212  0  0  0.134975  0  0.987249  0  0  0.10755  0.130403  0  0.988687  0
H  H22  1  0.52407465  0.10642864  0.69455577  1  0  0.114406  0  0.931926  0  0  0.126286  0  0.992571  0  0  0.128914  0  0.991865  0  0  0.109279  0.124346  0  0.993226  0
H  H23  1  0.47592679  0.89356904  0.30544393  1  0  0.114474  0  0.931832  0  0  0.126296  0  0.992548  0  0  0.128921  0  0.991846  0  0  0.109297  0.124357  0  0.993203  0
H  H24  1  0.21224058  0.97127404  0.80488856  1  0  0.114079  0  0.930584  0  0  0.129186  0  0.985921  0  0  0.131243  0  0.985753  0  0  0.110865  0.127736  0  0.986073  0
H  H25  1  0.78776186  0.02872749  0.19511217  1  0  0.114069  0  0.930613  0  0  0.129176  0  0.985945  0  0  0.131231  0  0.985777  0  0  0.110862  0.127725  0  0.986096  0
H  H26  1  0.41871385  0.12238235  0.85626084  1  0  0.112998  0  0.932549  0  0  0.127599  0  0.988562  0  0  0.130066  0  0.98762  0  0  0.106642  0.125866  0  0.989189  0
H  H27  1  0.58128891  0.87762046  0.14374140  1  0  0.113008  0  0.932539  0  0  0.12759  0  0.988572  0  0  0.130052  0  0.987634  0  0  0.106644  0.125856  0  0.989196  0
H  H28  1  0.36042487  0.68812013  0.90120887  1  0  0.425694  0  0.885816  0  0  0.393936  0  0.952196  0  0  0.405071  0  0.936251  0  0  0.296523  0.385895  0  0.963871  0
H  H29  1  0.63957466  0.31188011  0.09879089  1  0  0.4257  0  0.885804  0  0  0.393941  0  0.952188  0  0  0.405076  0  0.936243  0  0  0.296523  0.3859  0  0.963864  0
H  H30  1  0.47150540  0.65732119  0.99026068  1  0  0.450734  0  0.827218  0  0  0.428712  0  0.874453  0  0  0.438667  0  0.859849  0  0  0.319292  0.42179  0  0.884724  0
H  H31  1  0.52849542  0.34267906  0.00973916  1  0  0.450689  0  0.827275  0  0  0.428676  0  0.874494  0  0  0.438629  0  0.859892  0  0  0.319274  0.421754  0  0.884764  0
H  H32  1  0.86498407  0.29709792  0.51425134  1  0  0.445903  0  0.848966  0  0  0.415249  0  0.911531  0  0  0.426344  0  0.895547  0  0  0.303395  0.407393  0  0.923  0
H  H33  1  0.13501641  0.70290104  0.48574839  1  0  0.445887  0  0.848989  0  0  0.415236  0  0.911552  0  0  0.426332  0  0.895568  0  0  0.303385  0.407381  0  0.923022  0
H  H34  1  0.72266718  0.33531304  0.58590744  1  0  0.434806  0  0.863002  0  0  0.404365  0  0.925892  0  0  0.415567  0  0.909765  0  0  0.299534  0.396417  0  0.937443  0
H  H35  1  0.27733203  0.66468592  0.41409151  1  0  0.434804  0  0.863005  0  0  0.404361  0  0.9259  0  0  0.415564  0  0.909772  0  0  0.299539  0.396415  0  0.937448  0
C  C36  1  0.91225415  0.73731616  0.61587245  1  0  0.772749  0  3.755679  0  0  0.725003  0  4.053734  0  0  0.760068  0  4.046806  0  0  0.235008  0.700872  0  4.061372  0
C  C37  1  0.08774540  0.26268409  0.38412661  1  0  0.772616  0  3.755764  0  0  0.7249  0  4.053774  0  0  0.759965  0  4.04684  0  0  0.234948  0.700774  0  4.061412  0
C  C38  1  0.82103971  0.85644496  0.56924265  1  0  -0.244874  0  3.645265  0  0  -0.28454  0  3.893976  0  0  -0.289281  0  3.898704  0  0  -0.155346  -0.280836  0  3.889494  0
C  C39  1  0.17895690  0.14355398  0.43075684  1  0  -0.244835  0  3.645202  0  0  -0.284536  0  3.893905  0  0  -0.28928  0  3.898638  0  0  -0.155326  -0.28085  0  3.889443  0
C  C40  1  0.62748328  0.77529996  0.52351557  1  0  -0.239561  0  3.639453  0  0  -0.27925  0  3.886331  0  0  -0.283841  0  3.892593  0  0  -0.153772  -0.275636  0  3.880907  0
C  C41  1  0.37251720  0.22469900  0.47648417  1  0  -0.239523  0  3.639479  0  0  -0.279171  0  3.886309  0  0  -0.283773  0  3.892565  0  0  -0.153741  -0.275549  0  3.88089  0
C  C42  1  0.61216094  0.64816211  0.43358292  1  0  0.751443  0  3.79502  0  0  0.707057  0  4.093056  0  0  0.740554  0  4.087199  0  0  0.235988  0.684395  0  4.098122  0
C  C43  1  0.38783885  0.35183428  0.56641729  1  0  0.751471  0  3.795348  0  0  0.707152  0  4.093254  0  0  0.740642  0  4.087407  0  0  0.236031  0.684489  0  4.098321  0
C  C44  1  0.06144121  0.74872071  0.91500470  1  0  0.758798  0  3.784982  0  0  0.716785  0  4.080915  0  0  0.750774  0  4.073624  0  0  0.239655  0.69386  0  4.086879  0
C  C45  1  0.93855736  0.25128080  0.08499579  1  0  0.758638  0  3.785266  0  0  0.716777  0  4.08096  0  0  0.750765  0  4.073668  0  0  0.239596  0.69385  0  4.086929  0
C  C46  1  0.16329649  0.86493859  0.00495942  1  0  -0.248245  0  3.648918  0  0  -0.290142  0  3.896093  0  0  -0.29486  0  3.901638  0  0  -0.162892  -0.286477  0  3.891051  0
C  C47  1  0.83670398  0.13506037  0.99504101  1  0  -0.248271  0  3.648838  0  0  -0.29018  0  3.895981  0  0  -0.294895  0  3.901526  0  0  -0.162915  -0.286517  0  3.890943  0
C  C48  1  0.10086993  0.79620318  0.09447110  1  0  -0.24863  0  3.636593  0  0  -0.288178  0  3.886677  0  0  -0.293595  0  3.892113  0  0  -0.153524  -0.284119  0  3.882162  0
C  C49  1  0.89913121  0.20379834  0.90553026  1  0  -0.248539  0  3.636458  0  0  -0.2882  0  3.886704  0  0  -0.293621  0  3.892141  0  0  -0.153504  -0.28414  0  3.88219  0
C  C50  1  0.19959834  0.67492796  0.13267083  1  0  0.748824  0  3.785069  0  0  0.702892  0  4.084408  0  0  0.736355  0  4.080843  0  0  0.222552  0.679756  0  4.090179  0
C  C51  1  0.80040379  0.32507230  0.86732839  1  0  0.748879  0  3.785063  0  0  0.702965  0  4.084438  0  0  0.736429  0  4.080861  0  0  0.222605  0.679827  0  4.09021  0
C  C52  1  0.48619018  0.85922207  0.73764244  1  0  0.736626  0  3.810338  0  0  0.695484  0  4.103402  0  0  0.728334  0  4.100378  0  0  0.216048  0.672876  0  4.108419  0
C  C53  1  0.51380603  0.14077557  0.26235975  1  0  0.736535  0  3.81061  0  0  0.695476  0  4.103546  0  0  0.728325  0  4.100528  0  0  0.216091  0.672869  0  4.108563  0
C  C54  1  0.41323091  0.00488065  0.70957489  1  0  -0.23957  0  3.616851  0  0  -0.278068  0  3.866043  0  0  -0.283347  0  3.871768  0  0  -0.153356  -0.27399  0  3.861189  0
C  C55  1  0.58677049  0.99511702  0.29042622  1  0  -0.239547  0  3.616849  0  0  -0.278034  0  3.86604  0  0  -0.283318  0  3.871771  0  0  -0.153388  -0.273959  0  3.861184  0
C  C56  1  0.32227059  0.07499981  0.79126174  1  0  -0.229055  0  3.611254  0  0  -0.266396  0  3.856252  0  0  -0.271046  0  3.861842  0  0  -0.150124  -0.262941  0  3.851748  0
C  C57  1  0.67773218  0.92500300  0.20873981  1  0  -0.229146  0  3.611311  0  0  -0.266484  0  3.856349  0  0  -0.271125  0  3.861928  0  0  -0.150179  -0.263021  0  3.851834  0
C  C58  1  0.24419146  0.21742241  0.76230304  1  0  0.724271  0  3.84407  0  0  0.683266  0  4.141094  0  0  0.716026  0  4.1383  0  0  0.212172  0.660639  0  4.146529  0
C  C59  1  0.75581164  0.78257657  0.23769545  1  0  0.724351  0  3.843987  0  0  0.683346  0  4.141009  0  0  0.716106  0  4.138204  0  0  0.212228  0.660718  0  4.146445  0
O  O60  1  0.84574404  0.66123584  0.68293335  1  0  -0.831697  0  2.115586  0  0  -0.772405  0  2.381656  0  0  -0.810069  0  2.368809  0  0  -0.436362  -0.754253  0  2.388997  0
O  O61  1  0.15425418  0.33876439  0.31706703  1  0  -0.831661  0  2.115662  0  0  -0.772374  0  2.38171  0  0  -0.810042  0  2.36886  0  0  -0.436354  -0.754222  0  2.389048  0
O  O62  1  0.05989317  0.71409494  0.59294364  1  0  -0.708681  0  2.004214  0  0  -0.650669  0  2.241104  0  0  -0.680608  0  2.228416  0  0  -0.352704  -0.633511  0  2.249191  0
O  O63  1  0.94010470  0.28590400  0.40705733  1  0  -0.70862  0  2.004174  0  0  -0.650602  0  2.241019  0  0  -0.68053  0  2.228331  0  0  -0.352658  -0.633441  0  2.249102  0
O  O64  1  0.74399943  0.58550243  0.42251924  1  0  -0.723331  0  2.027009  0  0  -0.667742  0  2.282642  0  0  -0.699696  0  2.271414  0  0  -0.394174  -0.65026  0  2.288833  0
O  O65  1  0.25600363  0.41449654  0.57748066  1  0  -0.723414  0  2.02727  0  0  -0.667806  0  2.282819  0  0  -0.699769  0  2.271585  0  0  -0.394207  -0.650328  0  2.289013  0
O  O66  1  0.46771604  0.61020131  0.37458814  1  0  -0.740402  0  2.015487  0  0  -0.683443  0  2.261429  0  0  -0.715198  0  2.250704  0  0  -0.350997  -0.665334  0  2.267748  0
O  O67  1  0.53228407  0.38979635  0.62541289  1  0  -0.740415  0  2.015551  0  0  -0.683498  0  2.261463  0  0  -0.715239  0  2.250739  0  0  -0.351014  -0.665386  0  2.267781  0
O  O68  1  0.14778532  0.67327998  0.85909950  1  0  -0.751653  0  2.063698  0  0  -0.691408  0  2.308166  0  0  -0.724038  0  2.296322  0  0  -0.372538  -0.673062  0  2.315132  0
O  O69  1  0.85221389  0.32672410  0.14090261  1  0  -0.751612  0  2.063737  0  0  -0.691419  0  2.3081  0  0  -0.724039  0  2.296259  0  0  -0.372543  -0.67307  0  2.315068  0
O  O70  1  0.89460754  0.73213055  0.89988270  1  0  -0.722835  0  2.00589  0  0  -0.673728  0  2.258484  0  0  -0.705774  0  2.246003  0  0  -0.388854  -0.656297  0  2.265005  0
O  O71  1  0.10538218  0.26786705  0.10012048  1  0  -0.722766  0  2.006203  0  0  -0.673682  0  2.258712  0  0  -0.705739  0  2.246223  0  0  -0.38876  -0.656251  0  2.265237  0
O  O72  1  0.16153099  0.62079680  0.21153147  1  0  -0.829593  0  2.089577  0  0  -0.77236  0  2.357244  0  0  -0.809537  0  2.344495  0  0  -0.444498  -0.754551  0  2.364711  0
O  O73  1  0.83846662  0.37920599  0.78846905  1  0  -0.829633  0  2.089694  0  0  -0.772349  0  2.35727  0  0  -0.809547  0  2.344567  0  0  -0.444554  -0.754544  0  2.36474  0
O  O74  1  0.32035988  0.62678931  0.09154979  1  0  -0.698083  0  1.964458  0  0  -0.641722  0  2.194343  0  0  -0.671205  0  2.183542  0  0  -0.355794  -0.624737  0  2.200769  0
O  O75  1  0.67963839  0.37321093  0.90844849  1  0  -0.698145  0  1.964451  0  0  -0.641798  0  2.194333  0  0  -0.67127  0  2.183531  0  0  -0.355809  -0.624813  0  2.200761  0
O  O76  1  0.38313281  0.70463404  0.72379772  1  0  -0.844184  0  2.128685  0  0  -0.786094  0  2.394939  0  0  -0.822557  0  2.382304  0  0  -0.45017  -0.768621  0  2.402481  0
O  O77  1  0.61686672  0.29536620  0.27620204  1  0  -0.844259  0  2.128742  0  0  -0.786212  0  2.394971  0  0  -0.822673  0  2.38234  0  0  -0.450232  -0.768742  0  2.402527  0
O  O78  1  0.64671514  0.88673636  0.77500502  1  0  -0.655573  0  1.940875  0  0  -0.600448  0  2.165459  0  0  -0.629566  0  2.157559  0  0  -0.351838  -0.583697  0  2.169789  0
O  O79  1  0.35329345  0.11326392  0.22499460  1  0  -0.655432  0  1.941086  0  0  -0.600312  0  2.165626  0  0  -0.629435  0  2.157723  0  0  -0.351775  -0.583563  0  2.169959  0
O  O80  1  0.09651116  0.18126309  0.70900804  1  0  -0.656624  0  1.938446  0  0  -0.608913  0  2.172016  0  0  -0.637764  0  2.163908  0  0  -0.351088  -0.592295  0  2.176522  0
O  O81  1  0.90349062  0.81873587  0.29099178  1  0  -0.656646  0  1.938422  0  0  -0.608944  0  2.172008  0  0  -0.637787  0  2.163899  0  0  -0.351114  -0.592326  0  2.176517  0
O  O82  1  0.33000269  0.37677309  0.79159875  1  0  -0.852446  0  2.087164  0  0  -0.79303  0  2.345112  0  0  -0.829621  0  2.331791  0  0  -0.444312  -0.77549  0  2.352869  0
O  O83  1  0.66999520  0.62322585  0.20840152  1  0  -0.852463  0  2.087159  0  0  -0.793032  0  2.345096  0  0  -0.829628  0  2.331779  0  0  -0.444299  -0.775492  0  2.352857  0
O  O84  1  0.48599943  0.68906758  0.92679309  1  0  -0.905917  0  1.81842  0  0  -0.862475  0  1.999388  0  0  -0.885945  0  1.962711  0  0  -0.642608  -0.850173  0  2.02192  0
O  O85  1  0.51399976  0.31093137  0.07320656  1  0  -0.905876  0  1.818433  0  0  -0.862423  0  1.999398  0  0  -0.88591  0  1.96273  0  0  -0.642601  -0.850121  0  2.02193  0
O  O86  1  0.84183846  0.31283142  0.58172145  1  0  -0.909141  0  1.821272  0  0  -0.859297  0  2.013013  0  0  -0.884209  0  1.975653  0  0  -0.646889  -0.845966  0  2.036249  0
O  O87  1  0.15816073  0.68716754  0.41827820  1  0  -0.90913  0  1.821301  0  0  -0.859283  0  2.013021  0  0  -0.884185  0  1.975668  0  0  -0.646886  -0.845953  0  2.036258  0
