# generated using pymatgen
data_HgH9C8SBr2
_symmetry_space_group_name_H-M   'P 1'
_cell_length_a   6.25880969
_cell_length_b   11.83372916
_cell_length_c   15.02140630
_cell_angle_alpha   91.75224855
_cell_angle_beta   89.99647924
_cell_angle_gamma   89.99838112
_symmetry_Int_Tables_number   1
_chemical_formula_structural   HgH9C8SBr2
_chemical_formula_sum   'Hg4 H36 C32 S4 Br8'
_cell_volume   1112.04109369
_cell_formula_units_Z   4
loop_
 _symmetry_equiv_pos_site_id
 _symmetry_equiv_pos_as_xyz
  1  'x, y, z'
loop_
 _atom_site_type_symbol
 _atom_site_label
 _atom_site_symmetry_multiplicity
 _atom_site_fract_x
 _atom_site_fract_y
 _atom_site_fract_z
 _atom_site_occupancy
 _atom_site_hle17_bader_spin_density
 _atom_site_hle17_ddec_charge
 _atom_site_hle17_ddec_spin_density
 _atom_site_hle17_ddec_sum_bond_order
 _atom_site_hle17_magmom
 _atom_site_hse06_10hf_bader_spin_density
 _atom_site_hse06_10hf_ddec_charge
 _atom_site_hse06_10hf_ddec_spin_density
 _atom_site_hse06_10hf_ddec_sum_bond_order
 _atom_site_hse06_10hf_magmom
 _atom_site_hse06_bader_spin_density
 _atom_site_hse06_ddec_charge
 _atom_site_hse06_ddec_spin_density
 _atom_site_hse06_ddec_sum_bond_order
 _atom_site_hse06_magmom
 _atom_site_pbe_bader_spin_density
 _atom_site_pbe_cm5_charge
 _atom_site_pbe_ddec_charge
 _atom_site_pbe_ddec_spin_density
 _atom_site_pbe_ddec_sum_bond_order
 _atom_site_pbe_magmom
Hg  Hg0  1  0.96876566  0.61861451  0.76106290  1  0  0.552745  0  2.195205  0  0  0.428894  0  2.706233  0  0  0.470731  0  2.676547  0  0  0.378218  0.400862  0  2.725814  0
Hg  Hg1  1  0.46874459  0.38138904  0.73892869  1  0  0.55279  0  2.195293  0  0  0.42896  0  2.706352  0  0  0.470797  0  2.676655  0  0  0.378235  0.40092  0  2.72595  0
Hg  Hg2  1  0.03122455  0.38137759  0.23894329  1  0  0.552771  0  2.195136  0  0  0.428907  0  2.706159  0  0  0.470757  0  2.676461  0  0  0.378223  0.400874  0  2.725748  0
Hg  Hg3  1  0.53123124  0.61861829  0.26107911  1  0  0.552648  0  2.19526  0  0  0.428778  0  2.706338  0  0  0.470624  0  2.676638  0  0  0.37814  0.400752  0  2.725916  0
H  H4  1  0.23408265  0.82903861  0.68254684  1  0  0.092199  0  0.972065  0  0  0.101539  0  1.039342  0  0  0.104202  0  1.038161  0  0  0.090526  0.09957  0  1.040332  0
H  H5  1  0.73407317  0.17100053  0.81745331  1  0  0.092053  0  0.972116  0  0  0.101444  0  1.039355  0  0  0.104106  0  1.038175  0  0  0.090471  0.099476  0  1.04034  0
H  H6  1  0.76590596  0.17095356  0.31746801  1  0  0.092345  0  0.971956  0  0  0.101626  0  1.039287  0  0  0.10429  0  1.038105  0  0  0.090569  0.099658  0  1.040277  0
H  H7  1  0.26590266  0.82901269  0.18255194  1  0  0.092152  0  0.972004  0  0  0.101542  0  1.039238  0  0  0.104206  0  1.038055  0  0  0.090468  0.099573  0  1.040226  0
H  H8  1  0.28899376  0.03713088  0.69330908  1  0  0.090887  0  0.961246  0  0  0.100273  0  1.02362  0  0  0.102238  0  1.024598  0  0  0.097026  0.098859  0  1.023031  0
H  H9  1  0.78903599  0.96289650  0.80669280  1  0  0.09093  0  0.961364  0  0  0.100399  0  1.023672  0  0  0.102364  0  1.02465  0  0  0.097055  0.098983  0  1.023085  0
H  H10  1  0.71101563  0.96285789  0.30670238  1  0  0.090906  0  0.961324  0  0  0.100333  0  1.023647  0  0  0.102299  0  1.024625  0  0  0.097058  0.098917  0  1.023061  0
H  H11  1  0.21100055  0.03712010  0.19331251  1  0  0.090946  0  0.961467  0  0  0.100416  0  1.023757  0  0  0.102377  0  1.024739  0  0  0.097062  0.099  0  1.02317  0
H  H12  1  0.00494145  0.16697092  0.64206787  1  0  0.082799  0  0.98086  0  0  0.087515  0  1.05576  0  0  0.090794  0  1.053351  0  0  0.084763  0.085135  0  1.057554  0
H  H13  1  0.50493555  0.83304520  0.85791766  1  0  0.082759  0  0.980772  0  0  0.087465  0  1.055715  0  0  0.090743  0  1.053304  0  0  0.0847  0.085035  0  1.057559  0
H  H14  1  0.99509031  0.83302444  0.35792640  1  0  0.082841  0  0.980875  0  0  0.087529  0  1.055803  0  0  0.090808  0  1.053393  0  0  0.08475  0.085149  0  1.0576  0
H  H15  1  0.49509621  0.16695440  0.14207735  1  0  0.082805  0  0.980548  0  0  0.087488  0  1.055527  0  0  0.090767  0  1.053115  0  0  0.084712  0.085092  0  1.057339  0
H  H16  1  0.66420782  0.08948012  0.58104559  1  0  0.085807  0  0.989262  0  0  0.093506  0  1.056732  0  0  0.096901  0  1.054692  0  0  0.085232  0.091065  0  1.058234  0
H  H17  1  0.16417383  0.91055735  0.91893898  1  0  0.085906  0  0.989045  0  0  0.093511  0  1.056623  0  0  0.096925  0  1.05456  0  0  0.085288  0.091046  0  1.05815  0
H  H18  1  0.33583512  0.91052194  0.41894148  1  0  0.08578  0  0.989103  0  0  0.093421  0  1.056646  0  0  0.096845  0  1.054576  0  0  0.085228  0.090964  0  1.058162  0
H  H19  1  0.83583396  0.08942606  0.08104175  1  0  0.085806  0  0.988958  0  0  0.093384  0  1.056598  0  0  0.096818  0  1.054516  0  0  0.085243  0.090912  0  1.058135  0
H  H20  1  0.61167768  0.88037967  0.56632092  1  0  0.099467  0  0.95518  0  0  0.111219  0  1.014419  0  0  0.114361  0  1.012621  0  0  0.095739  0.108981  0  1.01575  0
H  H21  1  0.11164725  0.11963755  0.93367658  1  0  0.099486  0  0.955218  0  0  0.111258  0  1.014429  0  0  0.114398  0  1.012631  0  0  0.09571  0.109011  0  1.015784  0
H  H22  1  0.38833969  0.11961661  0.43368068  1  0  0.099462  0  0.955295  0  0  0.111252  0  1.014481  0  0  0.114393  0  1.012682  0  0  0.095716  0.109016  0  1.015805  0
H  H23  1  0.88832699  0.88034001  0.06631137  1  0  0.099575  0  0.955294  0  0  0.111343  0  1.014504  0  0  0.11441  0  1.012791  0  0  0.095711  0.10909  0  1.015868  0
H  H24  1  0.06749375  0.69618263  0.47496208  1  0  0.106143  0  0.932312  0  0  0.120569  0  0.995753  0  0  0.121905  0  0.995297  0  0  0.095132  0.119568  0  0.996167  0
H  H25  1  0.56748702  0.30382592  0.02502503  1  0  0.106126  0  0.932264  0  0  0.120511  0  0.995757  0  0  0.121846  0  0.995304  0  0  0.095143  0.119511  0  0.996167  0
H  H26  1  0.93247729  0.30382639  0.52504642  1  0  0.106127  0  0.932468  0  0  0.120643  0  0.995802  0  0  0.121978  0  0.995348  0  0  0.095191  0.119638  0  0.996215  0
H  H27  1  0.43251118  0.69617786  0.97496540  1  0  0.106156  0  0.932282  0  0  0.120597  0  0.995718  0  0  0.121932  0  0.995264  0  0  0.095146  0.119595  0  0.99613  0
H  H28  1  0.24353179  0.68266285  0.56810238  1  0  0.095228  0  0.958136  0  0  0.106458  0  1.027992  0  0  0.107947  0  1.027319  0  0  0.08692  0.105302  0  1.028618  0
H  H29  1  0.74350782  0.31733281  0.93187211  1  0  0.095183  0  0.958224  0  0  0.106406  0  1.028072  0  0  0.107918  0  1.027377  0  0  0.086911  0.10524  0  1.028706  0
H  H30  1  0.75645842  0.31733600  0.43190328  1  0  0.095177  0  0.95819  0  0  0.106408  0  1.02807  0  0  0.107898  0  1.027394  0  0  0.086869  0.105262  0  1.028686  0
H  H31  1  0.25646961  0.68266924  0.06811430  1  0  0.095243  0  0.958035  0  0  0.106425  0  1.027928  0  0  0.107934  0  1.027235  0  0  0.0869  0.105259  0  1.028563  0
H  H32  1  0.12706675  0.48323343  0.58631201  1  0  0.058519  0  0.981872  0  0  0.071267  0  1.057754  0  0  0.071521  0  1.058936  0  0  0.066377  0.070943  0  1.057078  0
H  H33  1  0.62708353  0.51677847  0.91368301  1  0  0.05848  0  0.981891  0  0  0.071208  0  1.057772  0  0  0.071458  0  1.058955  0  0  0.066396  0.070882  0  1.057094  0
H  H34  1  0.87290429  0.51676796  0.41369369  1  0  0.058497  0  0.982044  0  0  0.071226  0  1.057911  0  0  0.07148  0  1.059101  0  0  0.066411  0.070902  0  1.057233  0
H  H35  1  0.37291148  0.48322616  0.08630743  1  0  0.058489  0  0.981883  0  0  0.07121  0  1.057801  0  0  0.071463  0  1.058988  0  0  0.066402  0.070886  0  1.057123  0
H  H36  1  0.24286753  0.50603041  0.48193441  1  0  0.082244  0  0.929269  0  0  0.099214  0  0.991125  0  0  0.100004  0  0.991419  0  0  0.085539  0.098558  0  0.991061  0
H  H37  1  0.74286844  0.49395871  0.01805392  1  0  0.082272  0  0.929241  0  0  0.09918  0  0.991147  0  0  0.099975  0  0.991441  0  0  0.085528  0.098522  0  0.991088  0
H  H38  1  0.75711789  0.49396422  0.51807116  1  0  0.082228  0  0.929305  0  0  0.099155  0  0.991192  0  0  0.09995  0  0.991488  0  0  0.085513  0.0985  0  0.991121  0
H  H39  1  0.25712178  0.50604343  0.98194114  1  0  0.082189  0  0.929309  0  0  0.099105  0  0.991219  0  0  0.099898  0  0.991514  0  0  0.085495  0.098447  0  0.991157  0
C  C40  1  0.92020921  0.84297258  0.62293434  1  0  0.012602  0  3.779482  0  0  0.033991  0  4.03016  0  0  0.032841  0  4.056784  0  0  -0.018669  0.034669  0  4.012158  0
C  C41  1  0.42020270  0.15705712  0.87706827  1  0  0.012566  0  3.77985  0  0  0.034006  0  4.030458  0  0  0.032846  0  4.057096  0  0  -0.018591  0.034686  0  4.012455  0
C  C42  1  0.07981296  0.15702376  0.37707459  1  0  0.012617  0  3.779617  0  0  0.034042  0  4.030235  0  0  0.032878  0  4.056877  0  0  -0.018648  0.034726  0  4.012222  0
C  C43  1  0.57978271  0.84294934  0.12293818  1  0  0.012764  0  3.779755  0  0  0.034159  0  4.030423  0  0  0.033006  0  4.057033  0  0  -0.01858  0.034836  0  4.012419  0
C  C44  1  0.11077976  0.88622612  0.65921901  1  0  -0.114737  0  3.764971  0  0  -0.132012  0  4.006277  0  0  -0.134963  0  4.029393  0  0  -0.095026  -0.12987  0  3.990592  0
C  C45  1  0.61075729  0.11381057  0.84077954  1  0  -0.11451  0  3.76469  0  0  -0.131824  0  4.006054  0  0  -0.134773  0  4.029176  0  0  -0.094966  -0.129679  0  3.990359  0
C  C46  1  0.88922483  0.11378048  0.34080143  1  0  -0.114936  0  3.765067  0  0  -0.132185  0  4.006389  0  0  -0.135138  0  4.029513  0  0  -0.095144  -0.130029  0  3.99066  0
C  C47  1  0.38923132  0.88618738  0.15921944  1  0  -0.114651  0  3.764943  0  0  -0.13197  0  4.006308  0  0  -0.134917  0  4.02942  0  0  -0.094926  -0.129826  0  3.990615  0
C  C48  1  0.14049255  0.00296842  0.66565093  1  0  -0.057883  0  3.755499  0  0  -0.066794  0  3.995702  0  0  -0.069479  0  4.018894  0  0  -0.088322  -0.064955  0  3.979931  0
C  C49  1  0.64052705  0.99705345  0.83434594  1  0  -0.058262  0  3.75455  0  0  -0.067298  0  3.994852  0  0  -0.069981  0  4.018033  0  0  -0.088495  -0.065457  0  3.979073  0
C  C50  1  0.85950725  0.99703715  0.33434952  1  0  -0.057854  0  3.755297  0  0  -0.066786  0  3.995476  0  0  -0.06947  0  4.018663  0  0  -0.088281  -0.064946  0  3.979709  0
C  C51  1  0.35948712  0.00294882  0.16566444  1  0  -0.058249  0  3.754756  0  0  -0.067266  0  3.994977  0  0  -0.069944  0  4.018159  0  0  -0.088483  -0.065426  0  3.979207  0
C  C52  1  0.98027369  0.07580054  0.63690475  1  0  -0.05695  0  3.739446  0  0  -0.070727  0  3.984303  0  0  -0.072126  0  4.005705  0  0  -0.087539  -0.069661  0  3.969747  0
C  C53  1  0.48025850  0.92422812  0.86307836  1  0  -0.056755  0  3.739118  0  0  -0.070443  0  3.983829  0  0  -0.07184  0  4.005236  0  0  -0.087367  -0.069333  0  3.969282  0
C  C54  1  0.01973729  0.92419907  0.36309226  1  0  -0.057093  0  3.739417  0  0  -0.070842  0  3.98421  0  0  -0.072242  0  4.005623  0  0  -0.08758  -0.069777  0  3.969651  0
C  C55  1  0.51975248  0.07576471  0.13691519  1  0  -0.056883  0  3.739146  0  0  -0.070597  0  3.983958  0  0  -0.071996  0  4.005373  0  0  -0.087416  -0.069515  0  3.969394  0
C  C56  1  0.78952884  0.03208761  0.60209880  1  0  -0.05637  0  3.751962  0  0  -0.064298  0  3.991185  0  0  -0.067647  0  4.014051  0  0  -0.089881  -0.06197  0  3.975623  0
C  C57  1  0.28952027  0.96793966  0.89789175  1  0  -0.056387  0  3.752174  0  0  -0.064275  0  3.991439  0  0  -0.067638  0  4.014284  0  0  -0.089938  -0.061919  0  3.975871  0
C  C58  1  0.21049013  0.96790690  0.39789346  1  0  -0.056196  0  3.751882  0  0  -0.064063  0  3.991089  0  0  -0.067434  0  4.013931  0  0  -0.089851  -0.061725  0  3.975547  0
C  C59  1  0.71049550  0.03204895  0.10210306  1  0  -0.05617  0  3.752146  0  0  -0.064046  0  3.991402  0  0  -0.067419  0  4.014217  0  0  -0.089864  -0.061691  0  3.975836  0
C  C60  1  0.75864657  0.91540612  0.59473333  1  0  -0.096227  0  3.739755  0  0  -0.115339  0  3.979613  0  0  -0.117295  0  4.001237  0  0  -0.089665  -0.113849  0  3.964847  0
C  C61  1  0.25860326  0.08461738  0.90525926  1  0  -0.096375  0  3.739592  0  0  -0.115503  0  3.979422  0  0  -0.117455  0  4.00105  0  0  -0.089778  -0.114016  0  3.964651  0
C  C62  1  0.24137720  0.08458679  0.40526955  1  0  -0.096456  0  3.740076  0  0  -0.115606  0  3.979899  0  0  -0.117558  0  4.001531  0  0  -0.089729  -0.114117  0  3.965131  0
C  C63  1  0.74139015  0.91537538  0.09472764  1  0  -0.09656  0  3.739822  0  0  -0.115664  0  3.979649  0  0  -0.117566  0  4.001312  0  0  -0.089798  -0.11417  0  3.964872  0
C  C64  1  0.09481182  0.65209193  0.53728696  1  0  -0.144452  0  3.617477  0  0  -0.181614  0  3.87407  0  0  -0.180538  0  3.885585  0  0  -0.151153  -0.182217  0  3.866179  0
C  C65  1  0.59479424  0.34790932  0.96269403  1  0  -0.144418  0  3.617746  0  0  -0.181583  0  3.874374  0  0  -0.180533  0  3.885884  0  0  -0.151176  -0.182174  0  3.866487  0
C  C66  1  0.90517200  0.34790774  0.46271604  1  0  -0.144428  0  3.617682  0  0  -0.181693  0  3.874305  0  0  -0.180613  0  3.885822  0  0  -0.151185  -0.182305  0  3.866402  0
C  C67  1  0.40518160  0.65209022  0.03729499  1  0  -0.144568  0  3.61741  0  0  -0.181703  0  3.874013  0  0  -0.180641  0  3.885523  0  0  -0.151211  -0.182298  0  3.866129  0
C  C68  1  0.09979040  0.52449201  0.52263939  1  0  -0.10681  0  3.696843  0  0  -0.140196  0  3.940868  0  0  -0.14208  0  3.956948  0  0  -0.179534  -0.138704  0  3.929726  0
C  C69  1  0.59979679  0.47550587  0.97735074  1  0  -0.106838  0  3.696856  0  0  -0.140145  0  3.940853  0  0  -0.142031  0  3.956943  0  0  -0.179531  -0.138645  0  3.9297  0
C  C70  1  0.90018703  0.47550680  0.47736160  1  0  -0.106759  0  3.69691  0  0  -0.139998  0  3.940812  0  0  -0.141904  0  3.956916  0  0  -0.179582  -0.138495  0  3.929662  0
C  C71  1  0.40019342  0.52449030  0.02263889  1  0  -0.106658  0  3.696823  0  0  -0.139913  0  3.940675  0  0  -0.141819  0  3.956779  0  0  -0.179486  -0.138408  0  3.92952  0
S  S72  1  0.87278054  0.69530261  0.60965027  1  0  0.103688  0  2.737923  0  0  0.133699  0  3.128102  0  0  0.127092  0  3.129212  0  0  0.059023  0.137836  0  3.127508  0
S  S73  1  0.37276829  0.30473280  0.89034632  1  0  0.103924  0  2.738294  0  0  0.133911  0  3.128464  0  0  0.127314  0  3.129582  0  0  0.059161  0.138048  0  3.127866  0
S  S74  1  0.12719370  0.30469964  0.39035744  1  0  0.103876  0  2.737904  0  0  0.133864  0  3.128138  0  0  0.127267  0  3.129248  0  0  0.059137  0.138  0  3.127542  0
S  S75  1  0.62719636  0.69526597  0.10965068  1  0  0.103818  0  2.737935  0  0  0.133826  0  3.128106  0  0  0.127226  0  3.129212  0  0  0.059145  0.137967  0  3.127505  0
Br  Br76  1  0.42600242  0.61058874  0.74672764  1  0  -0.424469  0  1.185421  0  0  -0.363103  0  1.523884  0  0  -0.384608  0  1.503118  0  0  -0.218021  -0.348067  0  1.537622  0
Br  Br77  1  0.92597878  0.38942903  0.75327328  1  0  -0.424434  0  1.185506  0  0  -0.363079  0  1.524015  0  0  -0.384599  0  1.50328  0  0  -0.218015  -0.348046  0  1.537763  0
Br  Br78  1  0.57400856  0.38942205  0.25329022  1  0  -0.424451  0  1.185467  0  0  -0.363046  0  1.523867  0  0  -0.38457  0  1.50313  0  0  -0.218034  -0.348034  0  1.537656  0
Br  Br79  1  0.07400663  0.61056979  0.24672838  1  0  -0.424401  0  1.185452  0  0  -0.363033  0  1.52393  0  0  -0.384556  0  1.503197  0  0  -0.218005  -0.348007  0  1.537694  0
Br  Br80  1  0.93095665  0.71687311  0.91315519  1  0  -0.404491  0  1.0861  0  0  -0.354131  0  1.397043  0  0  -0.371857  0  1.380116  0  0  -0.206717  -0.342118  0  1.408561  0
Br  Br81  1  0.43109196  0.28319084  0.58681916  1  0  -0.404468  0  1.086206  0  0  -0.354168  0  1.397263  0  0  -0.371897  0  1.380332  0  0  -0.206661  -0.342162  0  1.408803  0
Br  Br82  1  0.06902078  0.28313497  0.08684198  1  0  -0.404525  0  1.086052  0  0  -0.354122  0  1.396918  0  0  -0.371856  0  1.380005  0  0  -0.206736  -0.342106  0  1.408442  0
Br  Br83  1  0.56900530  0.71684676  0.41317256  1  0  -0.404345  0  1.086194  0  0  -0.354015  0  1.397212  0  0  -0.371748  0  1.380292  0  0  -0.206598  -0.342009  0  1.40874  0
