# generated using pymatgen
data_Li2H8C4O7
_symmetry_space_group_name_H-M   'P 1'
_cell_length_a   7.54670393
_cell_length_b   8.54609917
_cell_length_c   11.11869868
_cell_angle_alpha   89.70413765
_cell_angle_beta   90.00005657
_cell_angle_gamma   89.99996898
_symmetry_Int_Tables_number   1
_chemical_formula_structural   Li2H8C4O7
_chemical_formula_sum   'Li8 H32 C16 O28'
_cell_volume   717.08957833
_cell_formula_units_Z   4
loop_
 _symmetry_equiv_pos_site_id
 _symmetry_equiv_pos_as_xyz
  1  'x, y, z'
loop_
 _atom_site_type_symbol
 _atom_site_label
 _atom_site_symmetry_multiplicity
 _atom_site_fract_x
 _atom_site_fract_y
 _atom_site_fract_z
 _atom_site_occupancy
 _atom_site_hle17_bader_spin_density
 _atom_site_hle17_ddec_charge
 _atom_site_hle17_ddec_spin_density
 _atom_site_hle17_ddec_sum_bond_order
 _atom_site_hle17_magmom
 _atom_site_hse06_10hf_bader_spin_density
 _atom_site_hse06_10hf_ddec_charge
 _atom_site_hse06_10hf_ddec_spin_density
 _atom_site_hse06_10hf_ddec_sum_bond_order
 _atom_site_hse06_10hf_magmom
 _atom_site_hse06_bader_spin_density
 _atom_site_hse06_ddec_charge
 _atom_site_hse06_ddec_spin_density
 _atom_site_hse06_ddec_sum_bond_order
 _atom_site_hse06_magmom
 _atom_site_pbe_bader_spin_density
 _atom_site_pbe_cm5_charge
 _atom_site_pbe_ddec_charge
 _atom_site_pbe_ddec_spin_density
 _atom_site_pbe_ddec_sum_bond_order
 _atom_site_pbe_magmom
Li  Li0  1  0.86330246  0.87332593  0.01815175  1  0  0.852912  0  0.390772  0  0  0.813201  0  0.49273  0  0  0.821999  0  0.477459  0  0  0.492018  0.806205  0  0.504512  0
Li  Li1  1  0.36330197  0.12667491  0.48184905  1  0  0.852911  0  0.39077  0  0  0.813197  0  0.492738  0  0  0.821995  0  0.477467  0  0  0.491988  0.80621  0  0.504515  0
Li  Li2  1  0.13669744  0.12667507  0.98184814  1  0  0.852928  0  0.390754  0  0  0.813228  0  0.492698  0  0  0.822026  0  0.477426  0  0  0.491984  0.806231  0  0.504485  0
Li  Li3  1  0.63669794  0.87332609  0.51815083  1  0  0.852919  0  0.390777  0  0  0.813197  0  0.492733  0  0  0.821995  0  0.477463  0  0  0.492022  0.80621  0  0.504507  0
Li  Li4  1  0.53906987  0.39214972  0.28966220  1  0  0.855607  0  0.393169  0  0  0.814758  0  0.498646  0  0  0.824066  0  0.482342  0  0  0.504508  0.807963  0  0.51055  0
Li  Li5  1  0.03906868  0.60785010  0.21033929  1  0  0.855609  0  0.393162  0  0  0.814753  0  0.498654  0  0  0.824061  0  0.48235  0  0  0.504511  0.807954  0  0.510559  0
Li  Li6  1  0.46093136  0.60785011  0.71033769  1  0  0.855612  0  0.393163  0  0  0.814769  0  0.49863  0  0  0.824078  0  0.482326  0  0  0.504523  0.807973  0  0.510532  0
Li  Li7  1  0.96093123  0.39215206  0.78966150  1  0  0.855569  0  0.393219  0  0  0.814743  0  0.498659  0  0  0.824049  0  0.482356  0  0  0.504497  0.807953  0  0.510563  0
H  H8  1  0.83558461  0.31037199  0.06952335  1  0  0.051873  0  0.928094  0  0  0.060215  0  0.992802  0  0  0.062848  0  0.990055  0  0  0.125186  0.057956  0  0.995772  0
H  H9  1  0.33558369  0.68962887  0.43047654  1  0  0.051861  0  0.928112  0  0  0.060226  0  0.992782  0  0  0.062857  0  0.990038  0  0  0.125194  0.057965  0  0.995751  0
H  H10  1  0.16441530  0.68962784  0.93047744  1  0  0.051876  0  0.928104  0  0  0.060232  0  0.992789  0  0  0.062865  0  0.990045  0  0  0.125192  0.057971  0  0.995758  0
H  H11  1  0.66441489  0.31037096  0.56952335  1  0  0.051861  0  0.928104  0  0  0.060211  0  0.992794  0  0  0.062843  0  0.990049  0  0  0.125181  0.057951  0  0.995763  0
H  H12  1  0.85139348  0.13587025  0.87737696  1  0  0.390005  0  0.913143  0  0  0.365624  0  0.981991  0  0  0.376716  0  0.967416  0  0  0.313898  0.357863  0  0.99056  0
H  H13  1  0.35139201  0.86412963  0.62262305  1  0  0.390002  0  0.91313  0  0  0.365618  0  0.981979  0  0  0.376711  0  0.967412  0  0  0.313922  0.357858  0  0.990547  0
H  H14  1  0.14860775  0.86412958  0.12262293  1  0  0.390004  0  0.913131  0  0  0.365621  0  0.981981  0  0  0.376714  0  0.967411  0  0  0.313924  0.35786  0  0.990549  0
H  H15  1  0.64860657  0.13587020  0.37737684  1  0  0.390004  0  0.913145  0  0  0.365626  0  0.981987  0  0  0.376719  0  0.967411  0  0  0.313903  0.357866  0  0.990554  0
H  H16  1  0.53698207  0.16524601  0.92108782  1  0  0.137747  0  0.914712  0  0  0.152651  0  0.968493  0  0  0.155436  0  0.967567  0  0  0.123151  0.150559  0  0.969546  0
H  H17  1  0.03698320  0.83475754  0.57891108  1  0  0.137768  0  0.914754  0  0  0.152709  0  0.968504  0  0  0.155495  0  0.967574  0  0  0.123166  0.150602  0  0.969574  0
H  H18  1  0.46301783  0.83475617  0.07891117  1  0  0.137766  0  0.914795  0  0  0.152693  0  0.968535  0  0  0.155478  0  0.967611  0  0  0.123174  0.1506  0  0.969588  0
H  H19  1  0.96301803  0.16524463  0.42108880  1  0  0.137764  0  0.914816  0  0  0.152678  0  0.968564  0  0  0.155463  0  0.967638  0  0  0.123166  0.150586  0  0.969616  0
H  H20  1  0.48992641  0.29136682  0.04036250  1  0  0.125627  0  0.961713  0  0  0.133634  0  1.033514  0  0  0.136983  0  1.031599  0  0  0.121578  0.131189  0  1.03498  0
H  H21  1  0.98992368  0.70863748  0.45963659  1  0  0.125618  0  0.961699  0  0  0.133614  0  1.033516  0  0  0.13696  0  1.031605  0  0  0.121569  0.131167  0  1.03498  0
H  H22  1  0.51007615  0.70863535  0.95963739  1  0  0.125639  0  0.961684  0  0  0.133641  0  1.033489  0  0  0.136986  0  1.031581  0  0  0.121572  0.131193  0  1.034956  0
H  H23  1  0.01007490  0.29136469  0.54036329  1  0  0.125621  0  0.961731  0  0  0.133608  0  1.033543  0  0  0.136956  0  1.03163  0  0  0.121561  0.131163  0  1.035008  0
H  H24  1  0.78795225  0.86066304  0.78545913  1  0  0.439012  0  0.858035  0  0  0.409316  0  0.918618  0  0  0.420333  0  0.902464  0  0  0.3009  0.401537  0  0.930061  0
H  H25  1  0.28795268  0.13934038  0.71454084  1  0  0.438948  0  0.858129  0  0  0.409291  0  0.918644  0  0  0.420307  0  0.902491  0  0  0.300869  0.401512  0  0.930088  0
H  H26  1  0.21204633  0.13934030  0.21453986  1  0  0.438958  0  0.858131  0  0  0.409282  0  0.918679  0  0  0.420299  0  0.902525  0  0  0.300873  0.401503  0  0.930122  0
H  H27  1  0.71204722  0.86066414  0.28545815  1  0  0.438957  0  0.858119  0  0  0.409281  0  0.918668  0  0  0.420298  0  0.902515  0  0  0.30089  0.401502  0  0.93011  0
H  H28  1  0.78845985  0.68747367  0.84362471  1  0  0.418975  0  0.883878  0  0  0.389963  0  0.945982  0  0  0.400455  0  0.9302  0  0  0.305295  0.382453  0  0.957269  0
H  H29  1  0.28846009  0.31252624  0.65637616  1  0  0.418982  0  0.883865  0  0  0.389971  0  0.945967  0  0  0.400461  0  0.93019  0  0  0.305291  0.382464  0  0.957252  0
H  H30  1  0.21153873  0.31252850  0.15637608  1  0  0.418971  0  0.883884  0  0  0.389958  0  0.945992  0  0  0.40045  0  0.930211  0  0  0.305288  0.382449  0  0.957279  0
H  H31  1  0.71153981  0.68747476  0.34362462  1  0  0.419002  0  0.88385  0  0  0.389986  0  0.94596  0  0  0.400477  0  0.930179  0  0  0.305304  0.382477  0  0.957246  0
H  H32  1  0.71806306  0.62009028  0.13189510  1  0  0.42854  0  0.877451  0  0  0.400367  0  0.937384  0  0  0.411091  0  0.921827  0  0  0.304514  0.392711  0  0.948583  0
H  H33  1  0.21806489  0.37990828  0.36810741  1  0  0.428586  0  0.877387  0  0  0.400411  0  0.937328  0  0  0.411135  0  0.921773  0  0  0.304524  0.392756  0  0.948527  0
H  H34  1  0.28193552  0.37991305  0.86810748  1  0  0.428587  0  0.877376  0  0  0.400424  0  0.9373  0  0  0.411146  0  0.921748  0  0  0.30454  0.39277  0  0.948499  0
H  H35  1  0.78193502  0.62009273  0.63189158  1  0  0.428569  0  0.877413  0  0  0.400393  0  0.937356  0  0  0.411116  0  0.921801  0  0  0.30452  0.392737  0  0.948556  0
H  H36  1  0.83812733  0.57177538  0.02594552  1  0  0.426692  0  0.872895  0  0  0.401678  0  0.92798  0  0  0.410856  0  0.914485  0  0  0.311666  0.395195  0  0.937581  0
H  H37  1  0.33813061  0.42822429  0.47405887  1  0  0.426766  0  0.872782  0  0  0.401739  0  0.927897  0  0  0.41092  0  0.914398  0  0  0.311697  0.395256  0  0.937498  0
H  H38  1  0.16187258  0.42822911  0.97405976  1  0  0.426801  0  0.87273  0  0  0.40177  0  0.927861  0  0  0.410951  0  0.914362  0  0  0.311709  0.395286  0  0.937462  0
H  H39  1  0.66187194  0.57177671  0.52594192  1  0  0.426765  0  0.872789  0  0  0.401739  0  0.927901  0  0  0.410919  0  0.914402  0  0  0.311711  0.395254  0  0.937503  0
C  C40  1  0.71219312  0.11655249  0.15490017  1  0  0.68221  0  3.809694  0  0  0.636898  0  4.103641  0  0  0.668753  0  4.095331  0  0  0.241817  0.615355  0  4.108461  0
C  C41  1  0.21218268  0.88342620  0.34509786  1  0  0.682458  0  3.808846  0  0  0.636964  0  4.103092  0  0  0.668818  0  4.094785  0  0  0.241824  0.615424  0  4.107909  0
C  C42  1  0.28781739  0.88342512  0.84509705  1  0  0.682546  0  3.809152  0  0  0.637165  0  4.103211  0  0  0.669022  0  4.094897  0  0  0.241909  0.615624  0  4.108031  0
C  C43  1  0.78781193  0.11655024  0.65490025  1  0  0.682335  0  3.809541  0  0  0.636987  0  4.103532  0  0  0.668841  0  4.095223  0  0  0.241897  0.615447  0  4.108349  0
C  C44  1  0.75973164  0.20724435  0.03983522  1  0  0.148503  0  3.65327  0  0  0.123436  0  3.907377  0  0  0.126352  0  3.913994  0  0  0.011778  0.121105  0  3.903469  0
C  C45  1  0.25973070  0.79275538  0.46016462  1  0  0.148493  0  3.653183  0  0  0.123494  0  3.907322  0  0  0.12641  0  3.913945  0  0  0.011793  0.121163  0  3.90341  0
C  C46  1  0.24026959  0.79275432  0.96016467  1  0  0.148455  0  3.653241  0  0  0.123418  0  3.907355  0  0  0.126331  0  3.913981  0  0  0.011805  0.121088  0  3.903445  0
C  C47  1  0.74026920  0.20724445  0.53983527  1  0  0.148544  0  3.653185  0  0  0.123479  0  3.907291  0  0  0.126395  0  3.913918  0  0  0.011772  0.12115  0  3.903382  0
C  C48  1  0.59298269  0.26149953  0.97442282  1  0  -0.352466  0  3.657959  0  0  -0.391964  0  3.89927  0  0  -0.399377  0  3.906561  0  0  -0.153907  -0.386829  0  3.89443  0
C  C49  1  0.09298115  0.73850282  0.52557612  1  0  -0.352553  0  3.657966  0  0  -0.392162  0  3.899447  0  0  -0.399579  0  3.906741  0  0  -0.153947  -0.387021  0  3.894604  0
C  C50  1  0.40701854  0.73850147  0.02557707  1  0  -0.352547  0  3.65806  0  0  -0.392099  0  3.899464  0  0  -0.399515  0  3.90676  0  0  -0.153938  -0.386964  0  3.894623  0
C  C51  1  0.90701876  0.26149818  0.47442287  1  0  -0.352538  0  3.658007  0  0  -0.392038  0  3.899382  0  0  -0.399456  0  3.90668  0  0  -0.153915  -0.386904  0  3.89454  0
C  C52  1  0.61700499  0.40273374  0.89233924  1  0  0.758331  0  3.806889  0  0  0.707186  0  4.11218  0  0  0.740289  0  4.103918  0  0  0.237178  0.684844  0  4.116691  0
C  C53  1  0.11700631  0.59726861  0.60765702  1  0  0.758722  0  3.806966  0  0  0.707633  0  4.112157  0  0  0.74074  0  4.103883  0  0  0.237369  0.6853  0  4.116656  0
C  C54  1  0.38299359  0.59726961  0.10765795  1  0  0.758485  0  3.806875  0  0  0.707366  0  4.112115  0  0  0.740472  0  4.10385  0  0  0.237249  0.685017  0  4.116634  0
C  C55  1  0.88299625  0.40273241  0.39233927  1  0  0.758538  0  3.80682  0  0  0.707354  0  4.112147  0  0  0.740458  0  4.103881  0  0  0.23723  0.685011  0  4.116659  0
O  O56  1  0.64725487  0.19694958  0.24051395  1  0  -0.704568  0  2.014935  0  0  -0.655813  0  2.249881  0  0  -0.679638  0  2.238188  0  0  -0.372407  -0.63894  0  2.257265  0
O  O57  1  0.14725628  0.80305020  0.25948671  1  0  -0.704451  0  2.015425  0  0  -0.655624  0  2.250466  0  0  -0.679442  0  2.238772  0  0  -0.372282  -0.638755  0  2.257849  0
O  O58  1  0.35274371  0.80304792  0.75948594  1  0  -0.704442  0  2.015488  0  0  -0.65565  0  2.25047  0  0  -0.679471  0  2.238776  0  0  -0.372269  -0.63878  0  2.257852  0
O  O59  1  0.85274627  0.19694846  0.74051318  1  0  -0.704599  0  2.014876  0  0  -0.655862  0  2.249858  0  0  -0.679681  0  2.238162  0  0  -0.372427  -0.638992  0  2.257243  0
O  O60  1  0.74139633  0.97089634  0.15797446  1  0  -0.664184  0  1.972516  0  0  -0.609627  0  2.190272  0  0  -0.632223  0  2.178704  0  0  -0.344483  -0.59392  0  2.198035  0
O  O61  1  0.24139569  0.02911160  0.34202356  1  0  -0.664511  0  1.971373  0  0  -0.609884  0  2.189226  0  0  -0.632485  0  2.177661  0  0  -0.344591  -0.59418  0  2.196991  0
O  O62  1  0.25860490  0.02910819  0.84202362  1  0  -0.664599  0  1.971636  0  0  -0.610042  0  2.189447  0  0  -0.632641  0  2.177874  0  0  -0.344683  -0.594331  0  2.197216  0
O  O63  1  0.75860289  0.97089409  0.65797453  1  0  -0.664348  0  1.972587  0  0  -0.609674  0  2.190254  0  0  -0.63227  0  2.178685  0  0  -0.344525  -0.59397  0  2.198016  0
O  O64  1  0.86942924  0.11110914  0.96563256  1  0  -0.691343  0  2.177843  0  0  -0.647538  0  2.417016  0  0  -0.661965  0  2.401188  0  0  -0.469301  -0.636727  0  2.426714  0
O  O65  1  0.36942762  0.88888607  0.53436567  1  0  -0.691323  0  2.177799  0  0  -0.647544  0  2.417031  0  0  -0.661957  0  2.40118  0  0  -0.469351  -0.636747  0  2.426737  0
O  O66  1  0.13057199  0.88888602  0.03436553  1  0  -0.691332  0  2.17778  0  0  -0.647553  0  2.417  0  0  -0.66197  0  2.401163  0  0  -0.469361  -0.636749  0  2.426702  0
O  O67  1  0.63057096  0.11110910  0.46563243  1  0  -0.691332  0  2.177815  0  0  -0.647548  0  2.417027  0  0  -0.661964  0  2.401169  0  0  -0.46931  -0.636747  0  2.426729  0
O  O68  1  0.76542606  0.47503034  0.88988235  1  0  -0.743547  0  2.005613  0  0  -0.678993  0  2.23548  0  0  -0.702902  0  2.221969  0  0  -0.364538  -0.662097  0  2.244454  0
O  O69  1  0.26542345  0.52497545  0.61011670  1  0  -0.743774  0  2.005875  0  0  -0.679235  0  2.235749  0  0  -0.703143  0  2.222226  0  0  -0.364661  -0.662344  0  2.244725  0
O  O70  1  0.23457517  0.52497300  0.11011844  1  0  -0.743685  0  2.005714  0  0  -0.679133  0  2.235606  0  0  -0.703042  0  2.222084  0  0  -0.364619  -0.662236  0  2.244587  0
O  O71  1  0.73457646  0.47502907  0.38988318  1  0  -0.743684  0  2.005652  0  0  -0.679096  0  2.23554  0  0  -0.703005  0  2.222021  0  0  -0.364599  -0.662199  0  2.244515  0
O  O72  1  0.48387927  0.44508385  0.83024905  1  0  -0.715482  0  1.986631  0  0  -0.663328  0  2.225671  0  0  -0.68727  0  2.213254  0  0  -0.373247  -0.646747  0  2.23415  0
O  O73  1  0.98387753  0.55491949  0.66974925  1  0  -0.71559  0  1.986608  0  0  -0.663436  0  2.225591  0  0  -0.687381  0  2.213178  0  0  -0.373275  -0.646863  0  2.234076  0
O  O74  1  0.51612329  0.55491949  0.16975174  1  0  -0.71546  0  1.98653  0  0  -0.663314  0  2.225576  0  0  -0.687246  0  2.21313  0  0  -0.373212  -0.646734  0  2.234064  0
O  O75  1  0.01612238  0.44508385  0.33025064  1  0  -0.715543  0  1.986609  0  0  -0.663357  0  2.225644  0  0  -0.687302  0  2.213234  0  0  -0.373235  -0.646778  0  2.234127  0
O  O76  1  0.80098318  0.79929553  0.86141908  1  0  -0.919333  0  1.781171  0  0  -0.875496  0  1.954314  0  0  -0.89176  0  1.921246  0  0  -0.658396  -0.863898  0  1.977923  0
O  O77  1  0.30098611  0.20070672  0.63858180  1  0  -0.919293  0  1.781234  0  0  -0.875438  0  1.954305  0  0  -0.891702  0  1.921242  0  0  -0.658364  -0.86384  0  1.977915  0
O  O78  1  0.19901540  0.20070546  0.13858261  1  0  -0.919311  0  1.781264  0  0  -0.87546  0  1.954355  0  0  -0.891725  0  1.921288  0  0  -0.65838  -0.863855  0  1.977966  0
O  O79  1  0.69901644  0.79929546  0.36141809  1  0  -0.919324  0  1.781219  0  0  -0.875474  0  1.954322  0  0  -0.891741  0  1.921255  0  0  -0.658398  -0.86388  0  1.977934  0
O  O80  1  0.84030845  0.63811884  0.09859412  1  0  -0.925097  0  1.789961  0  0  -0.886167  0  1.969567  0  0  -0.901048  0  1.936457  0  0  -0.657205  -0.875767  0  1.993659  0
O  O81  1  0.34031034  0.36188084  0.40140757  1  0  -0.925188  0  1.789832  0  0  -0.886275  0  1.969427  0  0  -0.901157  0  1.936318  0  0  -0.65724  -0.875875  0  1.99352  0
O  O82  1  0.15969013  0.36188567  0.90140756  1  0  -0.925199  0  1.789695  0  0  -0.886292  0  1.96925  0  0  -0.901173  0  1.936139  0  0  -0.657271  -0.875889  0  1.993343  0
O  O83  1  0.65969089  0.63812017  0.59859141  1  0  -0.925186  0  1.789873  0  0  -0.886278  0  1.969473  0  0  -0.901159  0  1.936365  0  0  -0.657261  -0.87588  0  1.993566  0
