# generated using pymatgen
data_Mn2H14C10O9
_symmetry_space_group_name_H-M   'P 1'
_cell_length_a   7.57141731
_cell_length_b   9.01837883
_cell_length_c   17.97490000
_cell_angle_alpha   90.00000000
_cell_angle_beta   90.00000000
_cell_angle_gamma   90.00000000
_symmetry_Int_Tables_number   1
_chemical_formula_structural   Mn2H14C10O9
_chemical_formula_sum   'Mn8 H56 C40 O36'
_cell_volume   1227.36049741
_cell_formula_units_Z   4
loop_
 _symmetry_equiv_pos_site_id
 _symmetry_equiv_pos_as_xyz
  1  'x, y, z'
loop_
 _atom_site_type_symbol
 _atom_site_label
 _atom_site_symmetry_multiplicity
 _atom_site_fract_x
 _atom_site_fract_y
 _atom_site_fract_z
 _atom_site_occupancy
 _atom_site_hle17_ddec_charge
 _atom_site_hle17_ddec_spin_density
 _atom_site_hle17_ddec_sum_bond_order
 _atom_site_hle17_magmom
 _atom_site_hse06_10hf_ddec_charge
 _atom_site_hse06_10hf_ddec_spin_density
 _atom_site_hse06_10hf_ddec_sum_bond_order
 _atom_site_hse06_10hf_magmom
 _atom_site_hse06_ddec_charge
 _atom_site_hse06_ddec_spin_density
 _atom_site_hse06_ddec_sum_bond_order
 _atom_site_hse06_magmom
 _atom_site_pbe_bader_charge
 _atom_site_pbe_bader_spin_density
 _atom_site_pbe_cm5_charge
 _atom_site_pbe_ddec_charge
 _atom_site_pbe_ddec_spin_density
 _atom_site_pbe_ddec_sum_bond_order
 _atom_site_pbe_magmom
Mn  Mn0  1  0.70629181  0.05512632  0.52508275  1  1.264211  4.792816  1.660112  4.685  1.105766  4.722026  2.143567  4.551  1.165414  4.762307  2.071342  4.611  1.527118  4.567744  0.611394  1.058371  4.680709  2.196747  4.493
Mn  Mn1  1  0.70629181  0.05512521  0.97491725  1  1.264165  4.792815  1.66015  4.685  1.105741  4.722024  2.143573  4.552  1.165363  4.762303  2.071389  4.611  1.527125  4.56775  0.61139  1.058343  4.680709  2.196753  4.493
Mn  Mn2  1  0.70628916  0.44487375  0.02508387  1  1.264164  4.792818  1.660094  4.685  1.105729  4.722032  2.143552  4.551  1.165379  4.762312  2.071324  4.611  1.527023  4.567761  0.611374  1.058333  4.680714  2.19673  4.493
Mn  Mn3  1  0.29370855  0.55512749  0.52508331  1  1.264166  4.792823  1.660181  4.685  1.105741  4.722038  2.143613  4.551  1.16537  4.762318  2.071413  4.611  1.527116  4.567744  0.611379  1.058343  4.68072  2.196793  4.493
Mn  Mn4  1  0.29370855  0.94487270  0.47491725  1  1.264169  4.792827  1.660154  4.685  1.105744  4.72204  2.143587  4.552  1.165377  4.762319  2.071383  4.611  1.52712  4.567746  0.611386  1.058348  4.680723  2.196769  4.493
Mn  Mn5  1  0.29370855  0.94487381  0.02508275  1  1.264157  4.792825  1.660132  4.685  1.105718  4.72204  2.143552  4.552  1.165348  4.762317  2.071376  4.611  1.527127  4.567753  0.611387  1.058316  4.680726  2.196731  4.493
Mn  Mn6  1  0.29370987  0.55512527  0.97491558  1  1.264169  4.792811  1.660065  4.685  1.105744  4.722023  2.143498  4.552  1.165388  4.762302  2.071293  4.611  1.527031  4.567766  0.611383  1.058347  4.680708  2.196676  4.493
Mn  Mn7  1  0.70629048  0.44487264  0.47491725  1  1.264197  4.792829  1.660117  4.685  1.105768  4.722041  2.143555  4.551  1.165406  4.762321  2.071342  4.611  1.527118  4.567744  0.611396  1.058371  4.680724  2.196736  4.493
H  H8  1  0.29992007  0.12144090  0.32608526  1  0.109128  0.000283  0.957505  0.001  0.122459  0.000848  1.020652  0.001  0.125073  0.000545  1.019234  0.001  0.04863  0.002325  0.102981  0.120515  0.001146  1.021889  0.001
H  H9  1  0.29991875  0.12143979  0.17391474  1  0.109135  0.000282  0.95747  0.001  0.12246  0.000848  1.020611  0.001  0.125076  0.000545  1.019189  0.001  0.048614  0.002325  0.10299  0.120516  0.001146  1.021849  0.001
H  H10  1  0.29992139  0.37855695  0.82608582  1  0.109127  0.000283  0.957512  0.001  0.122458  0.000848  1.020662  0.001  0.125078  0.000545  1.019236  0.001  0.048489  0.002325  0.102972  0.120502  0.001146  1.021911  0.001
H  H11  1  0.70007897  0.62144096  0.32608526  1  0.109138  0.000278  0.957508  0.001  0.122461  0.000848  1.020653  0.001  0.125075  0.000544  1.019234  0.001  0.048641  0.002325  0.102987  0.120514  0.001146  1.021893  0.001
H  H12  1  0.70008161  0.87855813  0.67391474  1  0.109166  0.000288  0.957455  0.001  0.122473  0.000848  1.020621  0.001  0.125089  0.000545  1.019202  0.001  0.048621  0.002325  0.102984  0.120528  0.001146  1.021859  0.001
H  H13  1  0.70008161  0.87856034  0.82608526  1  0.109155  0.000283  0.95744  0.001  0.122464  0.000848  1.020599  0.001  0.125078  0.000545  1.019181  0.001  0.048609  0.002325  0.102985  0.12052  0.001146  1.021837  0.001
H  H14  1  0.70008029  0.62144318  0.17391418  1  0.109111  0.00028  0.957519  0.001  0.122449  0.000848  1.020657  0.001  0.125067  0.000545  1.019234  0.001  0.048633  0.002325  0.102964  0.120493  0.001146  1.021907  0.001
H  H15  1  0.29992007  0.37855917  0.67391418  1  0.109116  0.000281  0.957532  0.001  0.122451  0.000848  1.020671  0.001  0.12507  0.000545  1.019246  0.001  0.048639  0.002325  0.102962  0.120495  0.001146  1.02192  0.001
H  H16  1  0.48842771  0.01312653  0.31699759  1  0.114127  -0.000281  0.947  0.0  0.127191  3.8e-05  1.010814  0.001  0.129475  -0.000137  1.01028  0.0  0.088893  0.001154  0.10648  0.124829  0.00022  1.012432  0.001
H  H17  1  0.48842639  0.01312653  0.18300241  1  0.114146  -0.000277  0.946969  0.0  0.127199  3.8e-05  1.01079  0.001  0.129483  -0.000137  1.010255  0.0  0.088894  0.001154  0.106481  0.124837  0.00022  1.012408  0.001
H  H18  1  0.48843035  0.48687021  0.81699870  1  0.11415  -0.000278  0.946986  0.0  0.127214  3.8e-05  1.010782  0.001  0.129498  -0.000137  1.010246  0.0  0.088914  0.001153  0.106485  0.124851  0.00022  1.0124  0.001
H  H19  1  0.51157133  0.51312770  0.31699815  1  0.114132  -0.000286  0.947018  0.0  0.127194  3.8e-05  1.01082  0.001  0.129478  -0.000137  1.010284  0.0  0.088883  0.001153  0.106483  0.124831  0.00022  1.012438  0.001
H  H20  1  0.51157397  0.98687360  0.68300241  1  0.114152  -0.000279  0.946977  0.0  0.127214  3.8e-05  1.010783  0.001  0.129499  -0.000137  1.010249  0.0  0.088904  0.001154  0.106486  0.124851  0.00022  1.012401  0.001
H  H21  1  0.51157397  0.98687360  0.81699759  1  0.114141  -0.000275  0.946983  0.0  0.127203  3.8e-05  1.010789  0.001  0.129486  -0.000137  1.010253  0.0  0.088892  0.001153  0.106483  0.12484  0.00022  1.012406  0.001
H  H22  1  0.51157001  0.51312992  0.18300130  1  0.114142  -0.000281  0.947008  0.0  0.127202  3.8e-05  1.010812  0.001  0.129487  -0.000137  1.010276  0.0  0.088909  0.001153  0.106484  0.124841  0.00022  1.012428  0.001
H  H23  1  0.48842771  0.48687243  0.68300185  1  0.114137  -0.000283  0.947007  0.0  0.127192  3.8e-05  1.010825  0.001  0.129474  -0.000137  1.010291  0.0  0.08889  0.001153  0.106476  0.124828  0.00022  1.012444  0.001
H  H24  1  0.64027774  0.23291769  0.24999972  1  0.063607  -0.000246  0.946907  0.0  0.079692  -0.000168  1.013574  0.0  0.080878  -0.000225  1.012961  0.0  0.000607  0.000576  0.090525  0.078726  -9e-05  1.014241  0.0
H  H25  1  0.64027774  0.26707904  0.74999917  1  0.063617  -0.000247  0.946906  0.0  0.079676  -0.000168  1.013602  0.0  0.080863  -0.000225  1.01299  0.0  0.000572  0.000576  0.090511  0.078715  -9e-05  1.014264  0.0
H  H26  1  0.35972129  0.73291998  0.25000028  1  0.063612  -0.000246  0.946901  0.0  0.079677  -0.000168  1.013593  0.0  0.080862  -0.000225  1.012983  0.0  0.00057  0.000576  0.090519  0.078719  -9e-05  1.014249  0.0
H  H27  1  0.35972261  0.76708244  0.75000028  1  0.06362  -0.000243  0.946894  0.0  0.079694  -0.000168  1.013582  0.0  0.080881  -0.000225  1.012968  0.0  0.000549  0.000576  0.090535  0.078726  -9e-05  1.014253  0.0
H  H28  1  0.43656688  0.32486659  0.24999972  1  0.0615  -0.000152  0.945361  0.0  0.08307  -0.000154  1.002459  0.0  0.083004  -0.000157  1.003787  0.0  0.006226  0.000168  0.090815  0.082501  -0.000153  1.002859  0.0
H  H29  1  0.43656820  0.17513125  0.74999917  1  0.061513  -0.000156  0.945334  0.0  0.08308  -0.000154  1.002423  0.0  0.083017  -0.000157  1.003752  0.0  0.006255  0.000168  0.090818  0.082513  -0.000154  1.002824  0.0
H  H30  1  0.56343216  0.82486887  0.25000083  1  0.061508  -0.000155  0.94534  0.0  0.083076  -0.000154  1.002427  0.0  0.083011  -0.000157  1.003755  0.0  0.006252  0.000168  0.090814  0.082508  -0.000153  1.002827  0.0
H  H31  1  0.56343348  0.67513354  0.75000083  1  0.061515  -0.000154  0.945336  0.0  0.08309  -0.000154  1.002434  0.0  0.083025  -0.000157  1.003763  0.0  0.006273  0.000168  0.090826  0.082539  -0.000154  1.00281  0.0
H  H32  1  0.81684046  0.47655572  0.74999972  1  0.067209  -9.9e-05  0.937282  0.0  0.089319  -7.3e-05  0.992593  0.0  0.089637  -8.7e-05  0.994087  0.0  0.001506  0.000218  0.093447  0.089096  -6e-05  0.991635  0.0
H  H33  1  0.81684178  0.02344435  0.25000028  1  0.067197  -0.000108  0.937154  0.0  0.089299  -7.3e-05  0.992472  0.0  0.089622  -8.7e-05  0.993958  0.0  0.001523  0.000218  0.093428  0.089077  -6e-05  0.991512  0.0
H  H34  1  0.18315990  0.97655578  0.75000028  1  0.067208  -0.000108  0.937283  0.0  0.089315  -7.3e-05  0.992596  0.0  0.089632  -8.7e-05  0.994091  0.0  0.001503  0.000218  0.093446  0.089093  -6e-05  0.991637  0.0
H  H35  1  0.18315990  0.52344441  0.25000028  1  0.0672  -0.00011  0.937281  0.0  0.089308  -7.3e-05  0.992595  0.0  0.089626  -8.7e-05  0.994089  0.0  0.001503  0.000218  0.093445  0.089085  -6e-05  0.991636  0.0
H  H36  1  0.04262478  0.42720428  0.75000028  1  0.061012  -8.6e-05  0.95376  0.0  0.080175  -6e-06  1.016708  0.0  0.080583  -4.2e-05  1.017651  0.0  0.027392  0.000334  0.091007  0.079374  4.9e-05  1.016981  0.0
H  H37  1  0.04262610  0.07279579  0.25000028  1  0.061008  -9.2e-05  0.953745  0.0  0.080166  -6e-06  1.016693  0.0  0.080577  -4.2e-05  1.01763  0.0  0.027386  0.000334  0.090999  0.079358  4.9e-05  1.016985  0.0
H  H38  1  0.95737425  0.92720434  0.75000028  1  0.061012  -9.3e-05  0.953752  0.0  0.080172  -6e-06  1.016704  0.0  0.080584  -4.2e-05  1.017639  0.0  0.027389  0.000334  0.091003  0.079367  4.9e-05  1.016988  0.0
H  H39  1  0.95737425  0.57279696  0.25000028  1  0.061007  -9.5e-05  0.953734  0.0  0.080169  -6e-06  1.016684  0.0  0.080578  -4.2e-05  1.017626  0.0  0.02739  0.000334  0.091  0.079368  4.9e-05  1.016957  0.0
H  H40  1  0.88950981  0.70971070  0.67909474  1  0.101058  -0.000205  0.955289  0.0  0.114264  -9.7e-05  1.018672  0.0  0.116169  -0.000169  1.018582  0.0  0.050379  0.000735  0.097317  0.112732  -1.5e-05  1.019215  0.0
H  H41  1  0.88950717  0.70971181  0.82090415  1  0.10105  -0.000211  0.955277  0.0  0.114247  -9.7e-05  1.018676  0.0  0.116152  -0.000169  1.018587  0.0  0.050369  0.000735  0.097306  0.112715  -1.5e-05  1.01922  0.0
H  H42  1  0.88950849  0.79028949  0.17909529  1  0.101064  -0.000201  0.955287  0.0  0.114269  -9.7e-05  1.018671  0.0  0.116173  -0.000169  1.018584  0.0  0.050392  0.000735  0.097311  0.112738  -1.5e-05  1.01921  0.0
H  H43  1  0.11049186  0.20971064  0.67909529  1  0.101076  -0.000204  0.955269  0.0  0.114282  -9.7e-05  1.018651  0.0  0.116185  -0.000169  1.018565  0.0  0.050388  0.000735  0.097319  0.112751  -1.5e-05  1.01919  0.0
H  H44  1  0.11049186  0.29028942  0.32090471  1  0.101065  -0.00021  0.955283  0.0  0.114272  -9.7e-05  1.018663  0.0  0.116175  -0.000169  1.018576  0.0  0.050381  0.000735  0.097312  0.112741  -1.5e-05  1.019204  0.0
H  H45  1  0.11049186  0.29029053  0.17909474  1  0.101054  -0.000201  0.95531  0.0  0.114251  -9.7e-05  1.018698  0.0  0.116155  -0.000169  1.018609  0.0  0.050372  0.000735  0.09731  0.112721  -1.5e-05  1.019239  0.0
H  H46  1  0.11049186  0.20971064  0.82090471  1  0.101079  -0.000206  0.955267  0.0  0.114284  -9.7e-05  1.018652  0.0  0.116188  -0.000169  1.018564  0.0  0.050388  0.000735  0.097318  0.112754  -1.5e-05  1.019191  0.0
H  H47  1  0.88950981  0.79028949  0.32090471  1  0.101069  -0.000213  0.955279  0.0  0.114272  -9.7e-05  1.018667  0.0  0.116176  -0.000169  1.018579  0.0  0.050389  0.000735  0.097321  0.11274  -1.5e-05  1.019211  0.0
H  H48  1  0.11687772  0.65769249  0.67865412  1  0.112405  2.4e-05  0.945104  0.0  0.125376  0.000335  1.0073  0.001  0.127988  0.000135  1.006316  0.0  0.069746  0.001575  0.103108  0.123442  0.000584  1.008098  0.001
H  H49  1  0.11687640  0.65769360  0.82134588  1  0.112431  2e-05  0.945076  0.0  0.125409  0.000335  1.007259  0.001  0.128022  0.000135  1.006274  0.0  0.069775  0.001575  0.103126  0.123476  0.000584  1.008056  0.001
H  H50  1  0.11687772  0.84230660  0.17865412  1  0.112423  2.4e-05  0.945072  0.0  0.125404  0.000335  1.007265  0.001  0.128018  0.000136  1.006276  0.0  0.069741  0.001575  0.103116  0.12347  0.000584  1.008063  0.001
H  H51  1  0.88312263  0.15769353  0.67865412  1  0.112424  2.4e-05  0.945076  0.0  0.125398  0.000335  1.007264  0.001  0.128011  0.000135  1.006279  0.0  0.069759  0.001575  0.103112  0.123465  0.000584  1.008061  0.001
H  H52  1  0.88312263  0.34230653  0.32134588  1  0.112435  2.3e-05  0.945076  0.0  0.125401  0.000335  1.007276  0.001  0.128012  0.000135  1.006294  0.0  0.069767  0.001575  0.10312  0.123466  0.000584  1.008074  0.001
H  H53  1  0.88312395  0.34230653  0.17865412  1  0.112431  2.2e-05  0.945101  0.0  0.12541  0.000335  1.007282  0.001  0.128023  0.000135  1.006297  0.0  0.069768  0.001575  0.103124  0.123476  0.000584  1.008079  0.001
H  H54  1  0.88312263  0.15769353  0.82134588  1  0.112424  2.4e-05  0.945077  0.0  0.125395  0.000335  1.00727  0.001  0.128009  0.000135  1.006284  0.0  0.069758  0.001575  0.103111  0.123461  0.000584  1.008069  0.001
H  H55  1  0.11687772  0.84230660  0.32134588  1  0.112416  1.6e-05  0.945082  0.0  0.125402  0.000335  1.007268  0.001  0.128014  0.000136  1.006282  0.0  0.069752  0.001575  0.103112  0.123469  0.000584  1.008064  0.001
H  H56  1  0.98540731  0.18965049  0.46627019  1  0.42542  -0.000525  0.876151  0.001  0.393081  0.00056  0.945062  0.002  0.404786  0.000147  0.928365  0.002  0.645526  0.002146  0.300095  0.384763  0.000946  0.956864  0.003
H  H57  1  0.98540599  0.18965049  0.03372981  1  0.425425  -0.000526  0.876156  0.001  0.393062  0.00056  0.945094  0.002  0.404772  0.000147  0.928389  0.002  0.645529  0.002146  0.300083  0.384742  0.000946  0.956897  0.003
H  H58  1  0.98540599  0.31035068  0.96627019  1  0.425415  -0.000526  0.876185  0.001  0.393051  0.00056  0.945112  0.002  0.404761  0.000147  0.928409  0.002  0.645526  0.002146  0.30008  0.384731  0.000946  0.956916  0.003
H  H59  1  0.01459436  0.68964945  0.46627019  1  0.425425  -0.000524  0.876159  0.001  0.393069  0.00056  0.945084  0.002  0.404775  0.000147  0.928385  0.002  0.645526  0.002146  0.30008  0.384751  0.000946  0.956885  0.003
H  H60  1  0.01459436  0.81034964  0.53373037  1  0.425433  -0.000525  0.876147  0.001  0.393076  0.000561  0.945074  0.002  0.404783  0.000147  0.928373  0.002  0.645527  0.002146  0.300087  0.384757  0.000946  0.956876  0.003
H  H61  1  0.01459436  0.81034964  0.96627019  1  0.425433  -0.000524  0.876146  0.001  0.393079  0.00056  0.94507  0.002  0.404784  0.000147  0.928372  0.002  0.64553  0.002146  0.300087  0.38476  0.000946  0.956872  0.003
H  H62  1  0.01459436  0.68964945  0.03372981  1  0.425425  -0.000525  0.876157  0.001  0.393069  0.00056  0.945082  0.002  0.404776  0.000147  0.928382  0.002  0.645528  0.002146  0.300082  0.38475  0.000946  0.956885  0.003
H  H63  1  0.98540731  0.31035068  0.53372981  1  0.425416  -0.000524  0.876164  0.001  0.393075  0.00056  0.945072  0.002  0.404781  0.000147  0.928375  0.002  0.645522  0.002146  0.300097  0.384757  0.000946  0.956874  0.003
C  C64  1  0.51752794  0.18932782  0.39147033  1  0.76393  0.011317  3.747958  0.012  0.705149  0.02058  4.051721  0.019  0.74293  0.015365  4.042346  0.015  1.541454  0.026056  0.244374  0.678226  0.025443  4.056915  0.023
C  C65  1  0.51752398  0.18932449  0.10852967  1  0.763848  0.011309  3.748083  0.012  0.705127  0.02058  4.051745  0.019  0.742907  0.015365  4.042365  0.015  1.541462  0.026055  0.244351  0.678201  0.025443  4.056936  0.023
C  C66  1  0.51753322  0.31066448  0.89147033  1  0.763907  0.011323  3.747818  0.012  0.705088  0.02058  4.05164  0.019  0.742871  0.015366  4.042262  0.015  1.541468  0.026053  0.244375  0.678168  0.025442  4.056824  0.023
C  C67  1  0.48247109  0.68932899  0.39147033  1  0.763935  0.011317  3.747892  0.012  0.705132  0.02058  4.051684  0.019  0.742914  0.015365  4.042308  0.015  1.54157  0.026053  0.244396  0.67821  0.025442  4.056872  0.023
C  C68  1  0.48247242  0.81067231  0.60852967  1  0.764017  0.011333  3.747859  0.012  0.705258  0.020581  4.05159  0.019  0.743039  0.015365  4.042212  0.015  1.541446  0.026056  0.244432  0.678335  0.025443  4.056785  0.023
C  C69  1  0.48247374  0.81067453  0.89147033  1  0.76391  0.011332  3.747976  0.012  0.705198  0.020578  4.051624  0.019  0.742978  0.015365  4.042244  0.015  1.541477  0.026054  0.24441  0.678272  0.025441  4.056814  0.023
C  C70  1  0.48246713  0.68933565  0.10852967  1  0.763868  0.011318  3.747891  0.012  0.705051  0.020579  4.051708  0.019  0.742831  0.015365  4.042331  0.015  1.541467  0.026051  0.244366  0.67813  0.025441  4.05689  0.023
C  C71  1  0.51752926  0.31067114  0.60852967  1  0.763956  0.01133  3.747856  0.012  0.705162  0.020579  4.051629  0.019  0.742942  0.015365  4.042256  0.015  1.541567  0.026053  0.244398  0.67824  0.025442  4.056817  0.023
C  C72  1  0.44419953  0.12937026  0.31968578  1  -0.292893  0.00194  3.680722  0.002  -0.331201  0.003181  3.935214  0.002  -0.338262  0.002216  3.942868  0.002  -0.03548  0.005521  -0.166269  -0.325543  0.004265  3.929785  0.003
C  C73  1  0.44419821  0.12937026  0.18031533  1  -0.292882  0.001936  3.680707  0.002  -0.331182  0.003182  3.935164  0.002  -0.338238  0.002213  3.942811  0.002  -0.035491  0.005521  -0.166252  -0.325524  0.004265  3.929735  0.003
C  C74  1  0.44420085  0.37062648  0.81968578  1  -0.292909  0.001934  3.680705  0.002  -0.331236  0.003181  3.93521  0.002  -0.338291  0.002215  3.942858  0.002  -0.035276  0.005521  -0.166273  -0.325571  0.004266  3.929785  0.003
C  C75  1  0.55579951  0.62937032  0.31968523  1  -0.292911  0.001961  3.680754  0.002  -0.331208  0.003181  3.935221  0.002  -0.338262  0.002216  3.942869  0.002  -0.03546  0.005521  -0.166287  -0.325548  0.004265  3.929794  0.003
C  C76  1  0.55580083  0.87062876  0.68031422  1  -0.292996  0.001931  3.680749  0.002  -0.331262  0.00318  3.935191  0.002  -0.338329  0.002217  3.942849  0.002  -0.035471  0.005521  -0.166288  -0.325604  0.004265  3.929765  0.003
C  C77  1  0.55580215  0.87062987  0.81968467  1  -0.292901  0.001926  3.680678  0.002  -0.331195  0.003181  3.935138  0.002  -0.33825  0.002212  3.942786  0.002  -0.035479  0.005521  -0.166254  -0.325537  0.004265  3.929713  0.003
C  C78  1  0.55579951  0.62937254  0.18031422  1  -0.292867  0.00195  3.680681  0.002  -0.331209  0.003182  3.935208  0.002  -0.338263  0.002216  3.942855  0.002  -0.035426  0.005522  -0.166268  -0.325545  0.004266  3.929784  0.003
C  C79  1  0.44420085  0.37062870  0.68031477  1  -0.292884  0.001946  3.680731  0.002  -0.331209  0.00318  3.935221  0.002  -0.338264  0.002215  3.94287  0.002  -0.035454  0.005521  -0.166255  -0.325544  0.004265  3.929798  0.003
C  C80  1  0.49690300  0.21398857  0.25000028  1  -0.048123  5.9e-05  3.719677  0.0  -0.09556  0.000661  3.983452  0.001  -0.094015  0.000339  3.996388  0.001  0.044962  0.00201  -0.16832  -0.096434  0.000943  3.97501  0.001
C  C81  1  0.49690432  0.28600928  0.74999972  1  -0.048177  5.9e-05  3.719752  0.0  -0.095573  0.000661  3.983464  0.001  -0.094038  0.000339  3.996414  0.001  0.044897  0.00201  -0.168322  -0.096448  0.000943  3.975014  0.001
C  C82  1  0.50309603  0.71399085  0.25000028  1  -0.048181  5.3e-05  3.719758  0.0  -0.095576  0.00066  3.983464  0.001  -0.094038  0.00034  3.996405  0.001  0.04491  0.00201  -0.168326  -0.096453  0.000943  3.975015  0.001
C  C83  1  0.50309735  0.78601045  0.74999972  1  -0.048129  5e-05  3.719696  0.0  -0.095576  0.000661  3.983472  0.001  -0.094034  0.00034  3.996413  0.001  0.044966  0.00201  -0.168348  -0.09646  0.000943  3.975032  0.001
C  C84  1  0.95164217  0.52213486  0.74999972  1  -0.043914  0.000622  3.648128  0.001  -0.085511  0.001604  3.904881  0.001  -0.085028  0.00104  3.918649  0.001  0.020349  0.003  -0.154983  -0.085723  0.002296  3.895761  0.002
C  C85  1  0.95164349  0.97786422  0.25000028  1  -0.043871  0.000642  3.648029  0.001  -0.085452  0.001604  3.904768  0.001  -0.084971  0.00104  3.918537  0.001  0.020358  0.003  -0.15494  -0.085666  0.002296  3.895647  0.002
C  C86  1  0.04835819  0.02213480  0.75000028  1  -0.043904  0.000653  3.648144  0.001  -0.085503  0.001604  3.904896  0.001  -0.085019  0.00104  3.918666  0.001  0.020359  0.003  -0.154983  -0.085717  0.002296  3.895776  0.002
C  C87  1  0.04835819  0.47786416  0.25000028  1  -0.043867  0.000653  3.648103  0.001  -0.085458  0.001604  3.904841  0.001  -0.084975  0.001041  3.91861  0.001  0.020358  0.003  -0.154961  -0.08567  0.002296  3.895721  0.002
C  C88  1  0.98078070  0.61531680  0.67955705  1  -0.277752  0.000468  3.65398  0.001  -0.318226  0.001197  3.911271  0.001  -0.324712  0.000625  3.918731  0.001  -0.02245  0.00273  -0.167888  -0.313391  0.001848  3.90621  0.001
C  C89  1  0.98077806  0.61531458  0.82044406  1  -0.277697  0.000484  3.654024  0.001  -0.318189  0.001197  3.911295  0.001  -0.324676  0.000626  3.918755  0.001  -0.022469  0.00273  -0.167849  -0.313354  0.001848  3.906233  0.001
C  C90  1  0.98078070  0.88468561  0.17955594  1  -0.277759  0.000451  3.654023  0.0  -0.318241  0.001197  3.911305  0.001  -0.324727  0.000625  3.918761  0.001  -0.022453  0.00273  -0.16786  -0.313405  0.001848  3.906243  0.001
C  C91  1  0.01921965  0.11531452  0.67955594  1  -0.277771  0.000458  3.654001  0.0  -0.318233  0.001198  3.911274  0.001  -0.324723  0.000625  3.918738  0.001  -0.022446  0.00273  -0.167861  -0.313397  0.001848  3.906211  0.001
C  C92  1  0.01922097  0.38468555  0.32044406  1  -0.277781  0.000475  3.654011  0.001  -0.318247  0.001198  3.911301  0.001  -0.324735  0.000623  3.918762  0.001  -0.022484  0.00273  -0.167875  -0.313412  0.001848  3.906239  0.001
C  C93  1  0.01922097  0.38468333  0.17955705  1  -0.277796  0.000456  3.653996  0.0  -0.318266  0.001197  3.911281  0.001  -0.324753  0.000625  3.918743  0.001  -0.02245  0.00273  -0.167894  -0.31343  0.001848  3.906218  0.001
C  C94  1  0.01921965  0.11531452  0.82044406  1  -0.277791  0.000458  3.654025  0.0  -0.318254  0.001197  3.911302  0.001  -0.324744  0.000624  3.918765  0.001  -0.022466  0.002731  -0.167871  -0.313418  0.001848  3.90624  0.001
C  C95  1  0.98078070  0.88468450  0.32044406  1  -0.277772  0.000506  3.65402  0.001  -0.318259  0.001197  3.911304  0.001  -0.324747  0.000624  3.918769  0.001  -0.02247  0.002731  -0.167884  -0.313423  0.001848  3.90624  0.001
C  C96  1  0.94971254  0.52569093  0.60959060  1  0.72924  0.011209  3.78152  0.011  0.677107  0.019026  4.081457  0.017  0.712859  0.013965  4.073388  0.013  1.520714  0.025852  0.229872  0.651609  0.02478  4.086536  0.022
C  C97  1  0.94971254  0.52569093  0.89040940  1  0.729054  0.011196  3.781793  0.011  0.676995  0.019026  4.081598  0.017  0.712757  0.013966  4.073528  0.013  1.520706  0.025852  0.229808  0.651492  0.024781  4.086677  0.022
C  C98  1  0.94971254  0.97430926  0.10959115  1  0.729172  0.011217  3.781622  0.011  0.677015  0.019025  4.081579  0.017  0.712778  0.013965  4.073504  0.013  1.520665  0.02585  0.229831  0.651513  0.024779  4.086657  0.022
C  C99  1  0.05028781  0.02569087  0.60959115  1  0.729191  0.011215  3.781589  0.011  0.677055  0.019025  4.081523  0.017  0.71281  0.013964  4.073453  0.013  1.520669  0.025852  0.229863  0.651556  0.02478  4.086601  0.022
C  C100  1  0.05028781  0.47430919  0.39040940  1  0.729217  0.011194  3.781575  0.011  0.677073  0.019025  4.081523  0.017  0.712828  0.013965  4.073452  0.013  1.520707  0.025851  0.229866  0.651575  0.024779  4.086601  0.022
C  C101  1  0.05028913  0.47430919  0.10959060  1  0.729272  0.011213  3.78157  0.011  0.677155  0.019025  4.081475  0.017  0.712908  0.013964  4.073405  0.013  1.520717  0.025852  0.22989  0.651656  0.024779  4.086553  0.022
C  C102  1  0.05028781  0.02569087  0.89040885  1  0.729194  0.011208  3.781598  0.011  0.677056  0.019025  4.081544  0.017  0.712808  0.013965  4.073471  0.013  1.520696  0.025851  0.229852  0.651557  0.024779  4.086621  0.022
C  C103  1  0.94971254  0.97430926  0.39040940  1  0.729216  0.011188  3.781561  0.011  0.677078  0.019026  4.081508  0.017  0.712827  0.013965  4.073442  0.013  1.520714  0.025852  0.229858  0.651579  0.02478  4.086585  0.022
O  O104  1  0.90710625  0.25000059  0.50000000  1  -0.886061  0.047157  1.969982  0.026  -0.822155  0.066774  2.210999  0.041  -0.848402  0.060035  2.171582  0.036  -1.316123  0.091596  -0.54877  -0.801685  0.072649  2.238119  0.046
O  O105  1  0.90710625  0.25000059  0.00000000  1  -0.886088  0.047164  1.970091  0.026  -0.822167  0.066776  2.211135  0.041  -0.84841  0.060037  2.171706  0.036  -1.316121  0.091594  -0.548747  -0.801697  0.072651  2.23826  0.046
O  O106  1  0.09289410  0.74999954  0.50000000  1  -0.886052  0.047157  1.969989  0.026  -0.822119  0.066774  2.211  0.041  -0.848363  0.060035  2.171578  0.036  -1.316132  0.091598  -0.548743  -0.801649  0.072648  2.23812  0.046
O  O107  1  0.09289410  0.74999954  0.00000000  1  -0.886084  0.047158  1.970036  0.026  -0.822163  0.066775  2.211062  0.041  -0.848406  0.060036  2.171644  0.036  -1.316124  0.091593  -0.548746  -0.801693  0.07265  2.238185  0.046
O  O108  1  0.79882930  0.53020394  0.57940295  1  -0.632137  0.032139  1.99669  0.022  -0.56049  0.039132  2.24679  0.026  -0.590591  0.033963  2.234558  0.021  -1.193713  0.066054  -0.298366  -0.538539  0.044534  2.255021  0.031
O  O109  1  0.79882534  0.53020505  0.92059705  1  -0.632047  0.032138  1.996706  0.022  -0.560443  0.039131  2.246765  0.026  -0.590541  0.033962  2.23453  0.021  -1.193742  0.066052  -0.29834  -0.538485  0.044532  2.254988  0.031
O  O110  1  0.79882930  0.96979514  0.07940350  1  -0.632089  0.032128  1.996672  0.022  -0.560459  0.039133  2.246796  0.026  -0.590553  0.033963  2.234554  0.021  -1.193714  0.066056  -0.298362  -0.538507  0.044534  2.255028  0.031
O  O111  1  0.20117105  0.03020388  0.57940350  1  -0.632073  0.03213  1.996652  0.022  -0.56045  0.039132  2.246772  0.026  -0.590544  0.033961  2.234533  0.021  -1.193717  0.066054  -0.298362  -0.5385  0.044533  2.255003  0.031
O  O112  1  0.20117105  0.46979619  0.42059705  1  -0.632115  0.03214  1.996694  0.022  -0.560466  0.039131  2.246796  0.026  -0.590565  0.033962  2.234563  0.021  -1.193722  0.066053  -0.298368  -0.538515  0.044532  2.255027  0.031
O  O113  1  0.20117105  0.46979730  0.07940295  1  -0.632089  0.032127  1.996733  0.022  -0.560475  0.03913  2.246851  0.026  -0.590568  0.033961  2.234612  0.021  -1.193724  0.066051  -0.298349  -0.538524  0.044532  2.255081  0.031
O  O114  1  0.20117105  0.03020499  0.92059650  1  -0.63209  0.032134  1.996674  0.022  -0.56046  0.039133  2.246794  0.026  -0.590557  0.033963  2.234559  0.021  -1.193715  0.066056  -0.298366  -0.538508  0.044534  2.255025  0.031
O  O115  1  0.79882930  0.96979625  0.42059705  1  -0.632127  0.032141  1.996686  0.022  -0.560474  0.039132  2.246783  0.026  -0.590575  0.033963  2.234551  0.021  -1.193718  0.066055  -0.298363  -0.53852  0.044534  2.25501  0.031
O  O116  1  0.61789092  0.30141559  0.39032150  1  -0.650248  0.038129  2.055181  0.026  -0.578083  0.046379  2.325061  0.03  -0.610195  0.040168  2.311166  0.025  -1.203617  0.07568  -0.293969  -0.553708  0.052822  2.333949  0.037
O  O117  1  0.61788696  0.30141670  0.10968017  1  -0.650251  0.038141  2.054985  0.026  -0.578124  0.046379  2.324862  0.03  -0.610232  0.040171  2.310964  0.025  -1.203581  0.075683  -0.294014  -0.553762  0.052824  2.333787  0.037
O  O118  1  0.61788828  0.19858115  0.89032039  1  -0.650166  0.038132  2.055229  0.026  -0.577954  0.046373  2.325087  0.03  -0.610077  0.040167  2.31121  0.025  -1.203743  0.075675  -0.293919  -0.553593  0.052816  2.333997  0.037
O  O119  1  0.38211076  0.80141566  0.39032150  1  -0.650244  0.038135  2.055141  0.026  -0.578062  0.046377  2.325033  0.03  -0.610178  0.040169  2.311137  0.025  -1.203741  0.07568  -0.293991  -0.553709  0.052821  2.333963  0.037
O  O120  1  0.38210944  0.69858454  0.60967850  1  -0.650311  0.038136  2.055113  0.026  -0.578156  0.046381  2.324996  0.03  -0.610266  0.040172  2.311101  0.025  -1.203615  0.075681  -0.294018  -0.55378  0.052824  2.333885  0.037
O  O121  1  0.38211340  0.69858343  0.89031983  1  -0.650259  0.038135  2.055032  0.026  -0.578142  0.046381  2.324912  0.03  -0.610247  0.040172  2.311013  0.025  -1.203605  0.075683  -0.29402  -0.553781  0.052825  2.33384  0.037
O  O122  1  0.38211208  0.80141787  0.10967961  1  -0.65015  0.038131  2.055282  0.026  -0.57794  0.046372  2.325143  0.03  -0.610056  0.040165  2.311261  0.025  -1.203727  0.075676  -0.293916  -0.553573  0.052815  2.33405  0.037
O  O123  1  0.61788960  0.19858447  0.60967850  1  -0.650257  0.038133  2.055129  0.026  -0.578077  0.046378  2.325014  0.03  -0.610195  0.04017  2.311122  0.025  -1.203741  0.075679  -0.293997  -0.553722  0.052822  2.333934  0.037
O  O124  1  0.07859691  0.44562666  0.58452119  1  -0.701071  0.027668  2.040315  0.014  -0.622239  0.03625  2.291027  0.019  -0.653654  0.032056  2.276873  0.016  -1.213178  0.058352  -0.313599  -0.599154  0.040395  2.300765  0.022
O  O125  1  0.07859427  0.44562887  0.91547881  1  -0.70102  0.027675  2.040382  0.014  -0.622158  0.036246  2.291  0.019  -0.653613  0.032055  2.27688  0.016  -1.213165  0.058352  -0.313579  -0.599064  0.040391  2.30073  0.022
O  O126  1  0.07859559  0.05437341  0.08452175  1  -0.701054  0.02767  2.040318  0.014  -0.622156  0.036247  2.290986  0.019  -0.653616  0.032055  2.276869  0.016  -1.213176  0.058354  -0.313574  -0.599061  0.040392  2.300717  0.022
O  O127  1  0.92140345  0.94562672  0.58452119  1  -0.701109  0.02767  2.040354  0.014  -0.622243  0.03625  2.291037  0.019  -0.653677  0.032057  2.276896  0.016  -1.213179  0.058352  -0.313603  -0.599159  0.040395  2.300777  0.022
O  O128  1  0.92140345  0.55437347  0.41547881  1  -0.701114  0.027678  2.040332  0.014  -0.622261  0.03625  2.29103  0.019  -0.653686  0.032059  2.276882  0.016  -1.21318  0.058351  -0.313612  -0.599178  0.040396  2.300771  0.022
O  O129  1  0.92140212  0.55437236  0.08452119  1  -0.701126  0.027671  2.040298  0.014  -0.622268  0.03625  2.290977  0.019  -0.653694  0.032056  2.27683  0.016  -1.213162  0.058351  -0.313617  -0.599182  0.040395  2.300713  0.022
O  O130  1  0.92140345  0.94562672  0.91547825  1  -0.701084  0.027674  2.040323  0.014  -0.622239  0.036251  2.291025  0.019  -0.653643  0.032057  2.27686  0.016  -1.213167  0.058354  -0.313584  -0.59915  0.040396  2.300759  0.022
O  O131  1  0.07859691  0.05437341  0.41547881  1  -0.70107  0.027676  2.040323  0.014  -0.622241  0.036249  2.291038  0.019  -0.653654  0.032057  2.276882  0.016  -1.213176  0.058353  -0.313598  -0.599156  0.040396  2.300779  0.022
O  O132  1  0.47991675  0.11842927  0.45181726  1  -0.703037  0.061389  2.112511  0.038  -0.624694  0.076223  2.406947  0.046  -0.660617  0.068359  2.389068  0.04  -1.216684  0.114664  -0.302403  -0.597089  0.084038  2.417959  0.054
O  O133  1  0.47991807  0.11842816  0.04818386  1  -0.702939  0.061379  2.112684  0.038  -0.624626  0.076218  2.407099  0.046  -0.660539  0.068353  2.389213  0.04  -1.216254  0.114651  -0.302361  -0.597019  0.084032  2.418114  0.054
O  O134  1  0.47992336  0.38156858  0.95181726  1  -0.703027  0.061376  2.112315  0.038  -0.624662  0.07622  2.406733  0.046  -0.660606  0.068354  2.388906  0.04  -1.216552  0.114651  -0.30242  -0.597063  0.084035  2.417753  0.054
O  O135  1  0.52008360  0.61842933  0.45181670  1  -0.702987  0.061373  2.112438  0.038  -0.624644  0.07622  2.406888  0.046  -0.660569  0.068353  2.389016  0.04  -1.216224  0.114653  -0.302392  -0.597041  0.084034  2.417903  0.054
O  O136  1  0.52008360  0.88157086  0.54818274  1  -0.703012  0.061367  2.112458  0.038  -0.624679  0.07622  2.406884  0.046  -0.660606  0.068355  2.389018  0.04  -1.21672  0.114667  -0.302393  -0.597075  0.084035  2.417899  0.054
O  O137  1  0.52008228  0.88157197  0.95181614  1  -0.702994  0.061374  2.112562  0.038  -0.624687  0.07622  2.406991  0.046  -0.660601  0.068355  2.389104  0.04  -1.216278  0.114655  -0.302405  -0.597085  0.084035  2.418013  0.054
O  O138  1  0.52007700  0.61843155  0.04818274  1  -0.703005  0.061375  2.112334  0.038  -0.624628  0.076217  2.406731  0.046  -0.660575  0.068351  2.388911  0.04  -1.216517  0.114648  -0.302405  -0.597027  0.084033  2.417748  0.054
O  O139  1  0.47991675  0.38157080  0.54818330  1  -0.703053  0.061377  2.112489  0.038  -0.624704  0.076224  2.406927  0.046  -0.660624  0.068358  2.389045  0.04  -1.216256  0.114655  -0.302408  -0.597097  0.084039  2.417937  0.054
