# generated using pymatgen
data_CdH16C11N10
_symmetry_space_group_name_H-M   'P 1'
_cell_length_a   7.95176790
_cell_length_b   10.28446297
_cell_length_c   10.36020010
_cell_angle_alpha   104.27155481
_cell_angle_beta   102.14602612
_cell_angle_gamma   105.85587258
_symmetry_Int_Tables_number   1
_chemical_formula_structural   CdH16C11N10
_chemical_formula_sum   'Cd2 H32 C22 N20'
_cell_volume   753.99293684
_cell_formula_units_Z   2
loop_
 _symmetry_equiv_pos_site_id
 _symmetry_equiv_pos_as_xyz
  1  'x, y, z'
loop_
 _atom_site_type_symbol
 _atom_site_label
 _atom_site_symmetry_multiplicity
 _atom_site_fract_x
 _atom_site_fract_y
 _atom_site_fract_z
 _atom_site_occupancy
 _atom_site_pbe_bader_spin_density
 _atom_site_pbe_cm5_charge
 _atom_site_pbe_ddec_charge
 _atom_site_pbe_ddec_spin_density
 _atom_site_pbe_ddec_sum_bond_order
 _atom_site_pbe_magmom
Cd  Cd0  1  0.68293123  0.56381276  0.41784321  1  0  0.816975  0.830645  0  2.392879  0
Cd  Cd1  1  0.31707172  0.43619054  0.58215734  1  0  0.816973  0.830604  0  2.39286  0
H  H2  1  0.50144050  0.90045211  0.28483150  1  0  0.137247  0.112275  0  1.017368  0
H  H3  1  0.49855894  0.09954905  0.71516797  1  0  0.137254  0.112279  0  1.017349  0
H  H4  1  0.53310351  0.81204901  0.41134260  1  0  0.132171  0.089544  0  1.029611  0
H  H5  1  0.46689804  0.18795108  0.58865696  1  0  0.132168  0.089535  0  1.02963  0
H  H6  1  0.68242690  0.07749761  0.24084305  1  0  0.093392  0.132972  0  1.062307  0
H  H7  1  0.31757476  0.92250569  0.75915825  1  0  0.093393  0.133022  0  1.062271  0
H  H8  1  0.70793802  0.97584476  0.08547663  1  0  0.096199  0.13866  0  1.004037  0
H  H9  1  0.29206364  0.02415854  0.91452467  1  0  0.09621  0.138676  0  1.003995  0
H  H10  1  0.89587001  0.12578527  0.20506771  1  0  0.099431  0.150326  0  1.009929  0
H  H11  1  0.10413213  0.87421911  0.79493393  1  0  0.099408  0.150308  0  1.009868  0
H  H12  1  0.16901138  0.69396769  0.34591970  1  0  0.096382  0.141921  0  1.001521  0
H  H13  1  0.83098550  0.30603345  0.65407644  1  0  0.096383  0.141923  0  1.001538  0
H  H14  1  0.11917737  0.72631609  0.50724747  1  0  0.09727  0.136458  0  1.036127  0
H  H15  1  0.88082547  0.27368399  0.49274941  1  0  0.097248  0.136454  0  1.036173  0
H  H16  1  0.28365144  0.86302590  0.47786030  1  0  0.091872  0.130245  0  1.019879  0
H  H17  1  0.71635093  0.13697311  0.52213528  1  0  0.091864  0.130239  0  1.019863  0
H  H18  1  0.13231986  0.44826836  0.92056029  1  0  0.106145  0.14857  0  1.017484  0
H  H19  1  0.86767254  0.55172856  0.07944376  1  0  0.106129  0.148578  0  1.017456  0
H  H20  1  0.13970135  0.99593476  0.28716154  1  0  0.100897  0.140727  0  1.064475  0
H  H21  1  0.86030254  0.00407067  0.71283871  1  0  0.100923  0.140728  0  1.064494  0
H  H22  1  0.44967713  0.28623613  0.11969738  1  0  0.093566  0.134227  0  1.0244  0
H  H23  1  0.55032311  0.71376400  0.88030776  1  0  0.093546  0.134186  0  1.024362  0
H  H24  1  0.24185914  0.23361010  0.98181760  1  0  0.089418  0.129776  0  1.034202  0
H  H25  1  0.75814239  0.76639003  0.01818679  1  0  0.089434  0.12979  0  1.034133  0
H  H26  1  0.23706259  0.25895903  0.15690493  1  0  0.093781  0.138408  0  1.016432  0
H  H27  1  0.76293590  0.74104003  0.84309870  1  0  0.093757  0.138383  0  1.016481  0
H  H28  1  0.35590041  0.82941897  0.00286965  1  0  0.097227  0.139676  0  1.005402  0
H  H29  1  0.64409211  0.17058114  0.99713131  1  0  0.097234  0.139695  0  1.005431  0
H  H30  1  0.22934696  0.84417782  0.12438147  1  0  0.095359  0.136024  0  1.029712  0
H  H31  1  0.77064101  0.15581479  0.87561407  1  0  0.095365  0.136069  0  1.029679  0
H  H32  1  0.12310636  0.71939935  0.95320564  1  0  0.102858  0.154838  0  0.995881  0
H  H33  1  0.87689062  0.28059327  0.04679139  1  0  0.102884  0.154912  0  0.995826  0
C  C34  1  0.54755093  0.81585488  0.30937559  1  0  0.061422  -0.027808  0  3.900062  0
C  C35  1  0.45245109  0.18414628  0.69062333  1  0  0.061409  -0.027772  0  3.900098  0
C  C36  1  0.77827655  0.03522367  0.19686049  1  0  -0.238925  -0.44372  0  3.954909  0
C  C37  1  0.22172558  0.96478070  0.80314114  1  0  -0.23892  -0.44377  0  3.954827  0
C  C38  1  0.15208597  0.77505510  0.42888377  1  0  -0.241972  -0.430875  0  3.931686  0
C  C39  1  0.84791348  0.22494603  0.57111183  1  0  -0.241925  -0.430833  0  3.931692  0
C  C40  1  0.00641985  0.82896813  0.37280989  1  0  0.09887  0.277345  0  4.038865  0
C  C41  1  0.99358136  0.17103408  0.62718722  1  0  0.098866  0.277341  0  4.038976  0
C  C42  1  0.33517699  0.45093017  0.10869683  1  0  0.1017  0.283306  0  4.028832  0
C  C43  1  0.66482407  0.54906889  0.89130819  1  0  0.101767  0.28343  0  4.028794  0
C  C44  1  0.84555647  0.94399078  0.27077118  1  0  0.10394  0.224689  0  3.982675  0
C  C45  1  0.15444566  0.05601359  0.72923142  1  0  0.1039  0.224611  0  3.982707  0
C  C46  1  0.23656396  0.50670330  0.02002009  1  0  -0.118845  -0.340137  0  3.944966  0
C  C47  1  0.76343746  0.49329360  0.97998061  1  0  -0.118876  -0.34024  0  3.944927  0
C  C48  1  0.01839356  0.93305680  0.30515893  1  0  -0.125117  -0.349749  0  3.947787  0
C  C49  1  0.98160729  0.06694756  0.69484056  1  0  -0.125122  -0.349679  0  3.9478  0
C  C50  1  0.30209600  0.65377407  0.08370893  1  0  0.101  0.21183  0  3.988802  0
C  C51  1  0.69789898  0.34622284  0.91629168  1  0  0.101023  0.211933  0  3.988711  0
C  C52  1  0.31553981  0.29897033  0.09065872  1  0  -0.242005  -0.438533  0  3.946386  0
C  C53  1  0.68446173  0.70102979  0.90934470  1  0  -0.241999  -0.438513  0  3.946323  0
C  C54  1  0.25041236  0.76816759  0.03960773  1  0  -0.233651  -0.436921  0  3.964864  0
C  C55  1  0.74958087  0.23182824  0.96039137  1  0  -0.233714  -0.437142  0  3.964862  0
N  N56  1  0.45534718  0.55736046  0.22120384  1  0  -0.249504  -0.297558  0  3.312222  0
N  N57  1  0.54465436  0.44263964  0.77879765  1  0  -0.249507  -0.29761  0  3.31218  0
N  N58  1  0.50413545  0.64723695  0.55875934  1  0  -0.307053  -0.518176  0  3.054909  0
N  N59  1  0.49586586  0.35276849  0.44124242  1  0  -0.30707  -0.51827  0  3.054714  0
N  N60  1  0.83588877  0.77902553  0.38133352  1  0  -0.252919  -0.308052  0  3.334811  0
N  N61  1  0.16411325  0.22097562  0.61866540  1  0  -0.252929  -0.308046  0  3.334916  0
N  N62  1  0.43403688  0.68003007  0.20474133  1  0  -0.156362  0.069376  0  3.753773  0
N  N63  1  0.56596338  0.31997003  0.79525898  1  0  -0.156371  0.069371  0  3.753759  0
N  N64  1  0.96242974  0.40997104  0.33139938  1  0  0.078322  0.42371  0  4.537844  0
N  N65  1  0.03757695  0.59002907  0.66860200  1  0  0.078241  0.423576  0  4.537873  0
N  N66  1  0.82598068  0.43347687  0.29217120  1  0  -0.275181  -0.480493  0  2.879199  0
N  N67  1  0.17401559  0.56652004  0.70783059  1  0  -0.275097  -0.480322  0  2.87942  0
N  N68  1  0.53483776  0.76804300  0.62759199  1  0  0.079962  0.421623  0  4.518878  0
N  N69  1  0.46516285  0.23195497  0.37240787  1  0  0.080029  0.421766  0  4.519035  0
N  N70  1  0.73922054  0.84944259  0.31857667  1  0  -0.153425  0.075341  0  3.745207  0
N  N71  1  0.26078149  0.15055855  0.68142128  1  0  -0.153387  0.075311  0  3.745219  0
N  N72  1  0.09618742  0.38075581  0.36196868  1  0  -0.263266  -0.476611  0  2.854458  0
N  N73  1  0.90381519  0.61924962  0.63803039  1  0  -0.26326  -0.476627  0  2.854225  0
N  N74  1  0.56473600  0.88687885  0.69288682  1  0  -0.207193  -0.423862  0  2.686508  0
N  N75  1  0.43526788  0.11312660  0.30711826  1  0  -0.207219  -0.423914  0  2.686921  0
