# generated using pymatgen
data_Er2U3H26(C3O4)10
_symmetry_space_group_name_H-M   'P 1'
_cell_length_a   10.49197650
_cell_length_b   11.51861042
_cell_length_c   13.47461135
_cell_angle_alpha   66.77477734
_cell_angle_beta   77.45278207
_cell_angle_gamma   63.21839520
_symmetry_Int_Tables_number   1
_chemical_formula_structural   Er2U3H26(C3O4)10
_chemical_formula_sum   'Er2 U3 H26 C30 O40'
_cell_volume   1334.40024417
_cell_formula_units_Z   1
loop_
 _symmetry_equiv_pos_site_id
 _symmetry_equiv_pos_as_xyz
  1  'x, y, z'
loop_
 _atom_site_type_symbol
 _atom_site_label
 _atom_site_symmetry_multiplicity
 _atom_site_fract_x
 _atom_site_fract_y
 _atom_site_fract_z
 _atom_site_occupancy
 _atom_site_pbe_bader_charge
 _atom_site_pbe_bader_spin_density
 _atom_site_pbe_cm5_charge
 _atom_site_pbe_ddec_charge
 _atom_site_pbe_ddec_spin_density
 _atom_site_pbe_ddec_sum_bond_order
 _atom_site_pbe_magmom
Er  Er0  1  0.58558987  0.24535497  0.74331079  1  2.208308  0  1.502577  2.14425  0  2.02985  0
Er  Er1  1  0.41440275  0.75465296  0.25667494  1  2.208415  0  1.502646  2.1442  0  2.030007  0
U  U2  1  0.61703885  0.71313710  0.84259872  1  2.92214  0  2.198587  2.44135  0  4.800899  0
U  U3  1  0.38295437  0.28681309  0.15743737  1  2.922954  0  2.198516  2.441203  0  4.800861  0
U  U4  1  0.99999364  0.50002304  0.50001003  1  2.903455  0  2.157794  2.418039  0  4.704454  0
H  H5  1  0.55339131  0.52418057  0.59177662  1  0.651602  0  0.306895  0.395133  0  0.945093  0
H  H6  1  0.44660364  0.47584514  0.40819560  1  0.652167  0  0.30695  0.395196  0  0.945014  0
H  H7  1  0.71781708  0.41605502  0.59726182  1  0.643826  0  0.310165  0.396808  0  0.943435  0
H  H8  1  0.28217913  0.58397680  0.40271269  1  0.643703  0  0.310168  0.396769  0  0.943529  0
H  H9  1  0.37880001  0.46641608  0.57868160  1  0.645857  0  0.320667  0.420733  0  0.888437  0
H  H10  1  0.62127114  0.53350097  0.42123819  1  0.644491  0  0.320865  0.420765  0  0.888349  0
H  H11  1  0.27316338  0.40607905  0.65523177  1  0.665197  0  0.31764  0.433903  0  0.871553  0
H  H12  1  0.72684171  0.59397510  0.34475269  1  0.664605  0  0.317608  0.433803  0  0.871629  0
H  H13  1  0.49551307  0.51730957  0.78104187  1  0.653731  0  0.310263  0.412955  0  0.909124  0
H  H14  1  0.50447622  0.48268999  0.21895006  1  0.653643  0  0.31019  0.412876  0  0.909246  0
H  H15  1  0.49691944  0.40121220  0.89438806  1  0.631908  0  0.316259  0.43083  0  0.881361  0
H  H16  1  0.50306030  0.59879153  0.10560185  1  0.631595  0  0.316248  0.430908  0  0.881253  0
H  H17  1  0.73483838  0.93566094  0.86747880  1  0.653447  0  0.309784  0.411266  0  0.917896  0
H  H18  1  0.26516709  0.06433055  0.13250642  1  0.6535  0  0.309795  0.411219  0  0.917984  0
H  H19  1  0.83216596  0.01528398  0.85608910  1  0.622991  0  0.333139  0.423104  0  0.863516  0
H  H20  1  0.16784692  0.98469936  0.14389308  1  0.622854  0  0.333161  0.423188  0  0.863407  0
H  H21  1  0.65303795  0.21570664  0.53220929  1  0.648047  0  0.296376  0.395359  0  0.945071  0
H  H22  1  0.34697939  0.78431877  0.46777424  1  0.648021  0  0.296463  0.395415  0  0.945  0
H  H23  1  0.71732947  0.06558367  0.62259236  1  0.619123  0  0.332912  0.429222  0  0.857875  0
H  H24  1  0.28264590  0.93443046  0.37739268  1  0.619027  0  0.332934  0.429317  0  0.857821  0
H  H25  1  0.09245563  0.36703774  0.96899744  1  0.140718  0  0.123618  0.140481  0  0.997609  0
H  H26  1  0.90754374  0.63292852  0.03101171  1  0.141253  0  0.12367  0.140542  0  0.997465  0
H  H27  1  0.15209946  0.10635731  0.73195072  1  0.114622  0  0.117003  0.129553  0  0.99344  0
H  H28  1  0.84791346  0.89363712  0.26803976  1  0.114875  0  0.117027  0.129558  0  0.993393  0
H  H29  1  0.73070952  0.00472424  0.40874907  1  0.112016  0  0.118927  0.130598  0  0.974687  0
H  H30  1  0.26927787  0.99532710  0.59126662  1  0.111697  0  0.118956  0.130607  0  0.974614  0
C  C31  1  0.98988523  0.34021447  0.86291258  1  0.022736  0  0.00045  -0.035364  0  3.940562  0
C  C32  1  0.01011643  0.65974871  0.13709645  1  0.021998  0  0.000303  -0.035316  0  3.940738  0
C  C33  1  0.10680186  0.30980124  0.91647294  1  -0.004022  0  -0.055773  -0.078478  0  3.886262  0
C  C34  1  0.89319487  0.69017107  0.08354063  1  -0.003536  0  -0.055658  -0.078502  0  3.886136  0
C  C35  1  0.24249474  0.21349700  0.89858256  1  -0.052206  0  -0.005376  -0.08742  0  3.962776  0
C  C36  1  0.75750063  0.78648765  0.10143024  1  -0.051695  0  -0.005416  -0.087244  0  3.962717  0
C  C37  1  0.25900648  0.14280731  0.82856642  1  0.022598  0  0.00988  -0.017722  0  3.90803  0
C  C38  1  0.74100553  0.85716835  0.17143543  1  0.023071  0  0.009955  -0.017699  0  3.908249  0
C  C39  1  0.13882608  0.16407476  0.78358134  1  -0.026841  0  -0.070882  -0.12495  0  3.925518  0
C  C40  1  0.86118963  0.83589679  0.21642050  1  -0.026636  0  -0.070953  -0.125035  0  3.925711  0
C  C41  1  0.00463262  0.26450319  0.79772428  1  -0.007783  0  0.017861  -0.020452  0  3.910569  0
C  C42  1  0.99537955  0.73545571  0.20229110  1  -0.008559  0  0.017881  -0.020531  0  3.910509  0
C  C43  1  0.62859298  0.00389094  0.44832709  1  -0.009427  0  -0.066095  -0.109532  0  3.918169  0
C  C44  1  0.37139333  0.99615839  0.55168719  1  -0.006045  0  -0.066021  -0.10909  0  3.918305  0
C  C45  1  0.62110925  0.87612016  0.50646274  1  0.030553  0  0.008371  -0.011342  0  3.914565  0
C  C46  1  0.37887458  0.12392824  0.49354779  1  0.029412  0  0.008242  -0.012002  0  3.915522  0
C  C47  1  0.49075087  0.87240886  0.55898852  1  -0.072233  0  0.008571  -0.054961  0  3.954897  0
C  C48  1  0.50924064  0.12763715  0.44103489  1  -0.069022  0  0.008539  -0.054669  0  3.955017  0
C  C49  1  0.85542810  0.46079203  0.86796283  1  1.521813  0  0.210562  0.569058  0  4.192865  0
C  C50  1  0.14457053  0.53916901  0.13204960  1  1.521809  0  0.210569  0.568777  0  4.193195  0
C  C51  1  0.36213384  0.19032927  0.95736256  1  1.57347  0  0.25495  0.659583  0  4.109974  0
C  C52  1  0.63785863  0.80965563  0.04264024  1  1.573045  0  0.255007  0.659418  0  4.109737  0
C  C53  1  0.40106453  0.04602444  0.79647666  1  1.618694  0  0.24474  0.65234  0  4.149328  0
C  C54  1  0.59894486  0.95395736  0.20352663  1  1.618006  0  0.244571  0.652171  0  4.148784  0
C  C55  1  0.88422312  0.29127219  0.73643513  1  1.629807  0  0.257598  0.67466  0  4.099477  0
C  C56  1  0.11576937  0.70873331  0.26356550  1  1.629454  0  0.25753  0.674521  0  4.099137  0
C  C57  1  0.47342727  0.73985834  0.62438867  1  1.650487  0  0.251877  0.634792  0  4.143525  0
C  C58  1  0.52658571  0.26016763  0.37561321  1  1.650344  0  0.251858  0.635104  0  4.143419  0
C  C59  1  0.75232427  0.74742741  0.51074342  1  1.5529  0  0.210217  0.567249  0  4.206104  0
C  C60  1  0.24766453  0.25262290  0.48927237  1  1.553694  0  0.210187  0.567157  0  4.206012  0
O  O61  1  0.52466538  0.63444123  0.96178515  1  -0.883127  0  -0.744391  -0.70219  0  1.858385  0
O  O62  1  0.47532645  0.36551040  0.03823437  1  -0.884322  0  -0.744233  -0.702141  0  1.85791  0
O  O63  1  0.71206198  0.79356942  0.72837856  1  -0.855636  0  -0.757415  -0.688328  0  1.816951  0
O  O64  1  0.28796345  0.20637149  0.27165753  1  -0.855128  0  -0.757566  -0.688243  0  1.817206  0
O  O65  1  0.08575429  0.48682467  0.61023556  1  -0.887628  0  -0.749085  -0.713476  0  1.860167  0
O  O66  1  0.91425841  0.51321640  0.38982015  1  -0.888354  0  -0.749498  -0.713165  0  1.861369  0
O  O67  1  0.84505444  0.53681248  0.92024350  1  -1.133303  0  -0.344309  -0.577308  0  2.169013  0
O  O68  1  0.15494349  0.46316431  0.07975508  1  -1.133402  0  -0.344136  -0.57699  0  2.168839  0
O  O69  1  0.75063610  0.49388142  0.81384678  1  -1.125262  0  -0.333863  -0.559833  0  2.271442  0
O  O70  1  0.24935148  0.50607314  0.18617918  1  -1.1254  0  -0.333918  -0.559861  0  2.271666  0
O  O71  1  0.79835412  0.23486058  0.78397986  1  -1.182821  0  -0.367692  -0.643032  0  2.262825  0
O  O72  1  0.20165214  0.76512696  0.21599907  1  -1.182662  0  -0.367637  -0.642938  0  2.262554  0
O  O73  1  0.88141999  0.36259133  0.63555579  1  -1.161972  0  -0.337998  -0.596006  0  2.379628  0
O  O74  1  0.11857387  0.63744267  0.36445476  1  -1.161963  0  -0.338061  -0.595953  0  2.379449  0
O  O75  1  0.41258814  0.92362494  0.81593439  1  -1.155171  0  -0.370581  -0.625796  0  2.273051  0
O  O76  1  0.58742653  0.07636532  0.18405863  1  -1.154892  0  -0.370562  -0.62571  0  2.272689  0
O  O77  1  0.49658458  0.08958967  0.74977689  1  -1.178978  0  -0.36345  -0.652721  0  2.343818  0
O  O78  1  0.50343297  0.91037971  0.25022980  1  -1.179178  0  -0.363375  -0.652609  0  2.343668  0
O  O79  1  0.48396120  0.17701060  0.91354945  1  -1.181681  0  -0.364373  -0.628614  0  2.32323  0
O  O80  1  0.51602456  0.82299685  0.08645535  1  -1.181697  0  -0.364438  -0.628566  0  2.323324  0
O  O81  1  0.33000119  0.18662680  0.05665478  1  -1.173111  0  -0.365897  -0.636332  0  2.353382  0
O  O82  1  0.67000821  0.81335518  0.94334102  1  -1.173043  0  -0.365933  -0.636327  0  2.353249  0
O  O83  1  0.49433277  0.68926686  0.72597893  1  -1.178918  0  -0.352037  -0.610754  0  2.319501  0
O  O84  1  0.50565834  0.31075074  0.27403066  1  -1.178849  0  -0.351908  -0.610803  0  2.31951  0
O  O85  1  0.43097674  0.68700933  0.57926698  1  -1.184194  0  -0.28302  -0.516686  0  2.207824  0
O  O86  1  0.56906745  0.31302659  0.42070511  1  -1.184779  0  -0.283135  -0.516963  0  2.207926  0
O  O87  1  0.74726360  0.62922117  0.55823570  1  -1.133468  0  -0.325897  -0.578327  0  2.28759  0
O  O88  1  0.25272077  0.37082841  0.44176842  1  -1.133959  0  -0.325873  -0.57821  0  2.287124  0
O  O89  1  0.87003863  0.75418834  0.46457109  1  -1.133855  0  -0.336445  -0.575924  0  2.205479  0
O  O90  1  0.12995233  0.24586634  0.53543404  1  -1.134385  0  -0.336307  -0.575683  0  2.20573  0
O  O91  1  0.61826478  0.42928165  0.59087473  1  -1.275185  0  -0.628293  -0.831905  0  2.078937  0
O  O92  1  0.38173139  0.57072926  0.40911466  1  -1.275494  0  -0.628315  -0.831855  0  2.078966  0
O  O93  1  0.37381375  0.39327582  0.64677392  1  -1.282901  0  -0.630578  -0.86313  0  2.037611  0
O  O94  1  0.62621391  0.60668996  0.35317068  1  -1.280907  0  -0.630685  -0.863022  0  2.037495  0
O  O95  1  0.49723193  0.42316830  0.81560433  1  -1.259164  0  -0.64406  -0.883691  0  2.053427  0
O  O96  1  0.50274409  0.57683937  0.18439233  1  -1.25877  0  -0.644011  -0.883743  0  2.053356  0
O  O97  1  0.75688628  0.01731130  0.82340233  1  -1.241178  0  -0.626719  -0.837281  0  2.071372  0
O  O98  1  0.24310680  0.98268611  0.17659339  1  -1.241122  0  -0.626766  -0.837371  0  2.071298  0
O  O99  1  0.70250508  0.16171596  0.60275691  1  -1.229942  0  -0.644411  -0.841026  0  2.038698  0
O  O100  1  0.29749542  0.83829381  0.39723660  1  -1.229873  0  -0.644474  -0.841154  0  2.038611  0
