# generated using pymatgen
data_CuH36C44S(NO)4
_symmetry_space_group_name_H-M   'P 1'
_cell_length_a   12.64308492
_cell_length_b   13.22212762
_cell_length_c   13.72649202
_cell_angle_alpha   91.24211844
_cell_angle_beta   108.08157145
_cell_angle_gamma   116.27450483
_symmetry_Int_Tables_number   1
_chemical_formula_structural   CuH36C44S(NO)4
_chemical_formula_sum   'Cu2 H72 C88 S2 N8 O8'
_cell_volume   1921.59197865
_cell_formula_units_Z   2
loop_
 _symmetry_equiv_pos_site_id
 _symmetry_equiv_pos_as_xyz
  1  'x, y, z'
loop_
 _atom_site_type_symbol
 _atom_site_label
 _atom_site_symmetry_multiplicity
 _atom_site_fract_x
 _atom_site_fract_y
 _atom_site_fract_z
 _atom_site_occupancy
 _atom_site_pbe_bader_charge
 _atom_site_pbe_bader_spin_density
 _atom_site_pbe_cm5_charge
 _atom_site_pbe_ddec_charge
 _atom_site_pbe_ddec_spin_density
 _atom_site_pbe_ddec_sum_bond_order
 _atom_site_pbe_magmom
Cu  Cu0  1  0.99999352  0.00000235  0.99999831  1  1.06432  -0.5685  0.781347  0.699637  -0.734054  2.279162  -0.567
Cu  Cu1  1  0.49999515  0.99999264  0.99999963  1  1.051629  -0.559529  0.782381  0.683526  -0.723914  2.249452  -0.558
H  H2  1  0.54383958  0.70658108  0.22280792  1  0.090129  -0.001167  0.10285  0.108176  -0.000592  1.045697  -0.001
H  H3  1  0.45617278  0.29340812  0.77720087  1  0.090206  -0.001167  0.10286  0.108259  -0.000592  1.045488  -0.001
H  H4  1  0.60961046  0.87846394  0.91940794  1  0.141923  -0.002248  0.119953  0.09394  -0.00103  1.045694  -0.002
H  H5  1  0.39039046  0.12153830  0.08060434  1  0.142049  -0.002247  0.119908  0.093917  -0.00103  1.045637  -0.002
H  H6  1  0.48438170  0.85859269  0.16676168  1  0.166669  -0.002173  0.119487  0.105689  -0.00104  1.031367  -0.002
H  H7  1  0.51562317  0.14139492  0.83325587  1  0.166672  -0.002175  0.119538  0.105759  -0.001041  1.031371  -0.002
H  H8  1  0.66441340  0.72185215  0.95891244  1  0.08293  -0.001085  0.102621  0.105708  -0.000532  1.041052  -0.001
H  H9  1  0.33557932  0.27814401  0.04108429  1  0.082918  -0.001085  0.102616  0.10571  -0.000532  1.041045  -0.001
H  H10  1  0.54697148  0.36424878  0.22653107  1  0.077676  -3.7e-05  0.100727  0.094725  -2.8e-05  1.006539  0.0
H  H11  1  0.45303594  0.63574209  0.77346467  1  0.07807  -3.7e-05  0.100678  0.094722  -2.8e-05  1.006617  0.0
H  H12  1  0.49956080  0.52538178  0.19018319  1  0.059593  -4.8e-05  0.094205  0.090203  -2.9e-05  1.061474  0.0
H  H13  1  0.50044571  0.47460735  0.80980936  1  0.059519  -4.8e-05  0.094261  0.090159  -2.9e-05  1.061556  0.0
H  H14  1  0.78957561  0.66377662  0.05648143  1  0.069037  6e-06  0.094217  0.087396  5.7e-05  1.063607  0.0
H  H15  1  0.21043409  0.33621859  0.94352159  1  0.069502  6e-06  0.094263  0.087429  5.7e-05  1.063423  0.0
H  H16  1  0.71421907  0.35162152  0.17668521  1  0.050435  5.1e-05  0.091524  0.083226  8.3e-05  1.075418  0.0
H  H17  1  0.28578993  0.64836762  0.82331023  1  0.049682  5.1e-05  0.091465  0.083151  8.3e-05  1.075569  0.0
H  H18  1  0.83568729  0.50219854  0.09139975  1  0.042497  -3.4e-05  0.099362  0.096881  -2.7e-05  0.995199  0.0
H  H19  1  0.16432248  0.49779838  0.90860259  1  0.042731  -3.4e-05  0.099384  0.096909  -2.7e-05  0.99508  0.0
H  H20  1  0.54235923  0.07648450  0.22669913  1  0.174058  -0.002324  0.122455  0.112093  -0.001124  1.029939  -0.002
H  H21  1  0.45764000  0.92350821  0.77330304  1  0.173782  -0.002325  0.122446  0.112082  -0.001124  1.029952  -0.002
H  H22  1  0.95069652  0.29873683  0.18412447  1  0.076968  -0.001016  0.102252  0.104662  -0.00052  1.048224  -0.001
H  H23  1  0.04930361  0.70125757  0.81587581  1  0.076867  -0.001016  0.102258  0.104654  -0.000519  1.048389  -0.001
H  H24  1  0.72529602  0.21481559  0.38060619  1  0.078089  -0.001272  0.114457  0.124803  -0.000651  0.987753  -0.001
H  H25  1  0.27470421  0.78518220  0.61938542  1  0.078108  -0.001273  0.114523  0.124905  -0.000651  0.987599  -0.001
H  H26  1  0.75528019  0.16398660  0.03631744  1  0.183377  -0.00202  0.122439  0.107516  -0.000933  1.038674  -0.002
H  H27  1  0.24472218  0.83601209  0.96368208  1  0.183223  -0.002021  0.122448  0.107548  -0.000933  1.038548  -0.002
H  H28  1  0.06446258  0.45331154  0.28674457  1  0.035196  -5.3e-05  0.097775  0.093137  -3.4e-05  1.032795  0.0
H  H29  1  0.93553429  0.54668459  0.71325261  1  0.035258  -5.3e-05  0.0978  0.093146  -3.4e-05  1.032716  0.0
H  H30  1  0.90394081  0.27374833  0.50610177  1  0.046973  -9.6e-05  0.103965  0.100362  -6.2e-05  1.005189  0.0
H  H31  1  0.09606609  0.72625898  0.49390356  1  0.046961  -9.6e-05  0.103988  0.100346  -6.2e-05  1.005298  0.0
H  H32  1  0.09506466  0.41219894  0.65169693  1  0.069197  -1.4e-05  0.101081  0.098066  -9e-06  1.008611  0.0
H  H33  1  0.90494411  0.58781348  0.34830391  1  0.069586  -1.4e-05  0.101121  0.098125  -9e-06  1.008544  0.0
H  H34  1  0.27281397  0.56713503  0.61568454  1  0.054711  -5e-06  0.095988  0.088713  1e-06  1.037914  0.0
H  H35  1  0.72719184  0.43287652  0.38431180  1  0.0543  -5e-06  0.095989  0.088713  1e-06  1.037897  0.0
H  H36  1  0.25573310  0.58735012  0.43167468  1  0.075703  -1e-06  0.095394  0.093504  2e-06  1.052408  0.0
H  H37  1  0.74426652  0.41265284  0.56831684  1  0.07588  -1e-06  0.095403  0.093503  2e-06  1.052481  0.0
H  H38  1  0.84867341  0.04565543  0.08912243  1  0.171249  -0.001959  0.113889  0.094745  -0.000876  1.0668  -0.002
H  H39  1  0.15131624  0.95433647  0.91087627  1  0.1715  -0.001959  0.113939  0.0948  -0.000876  1.066831  -0.002
H  H40  1  0.97956346  0.81787657  0.32698833  1  0.052969  -0.001267  0.107508  0.113313  -0.000635  1.008395  -0.001
H  H41  1  0.02044299  0.18212037  0.67301307  1  0.052693  -0.001268  0.107527  0.113359  -0.000635  1.008449  -0.001
H  H42  1  0.03961159  0.85602872  0.17242795  1  0.169726  -0.002102  0.116633  0.097201  -0.00098  1.05668  -0.002
H  H43  1  0.96038883  0.14397259  0.82757470  1  0.169706  -0.002102  0.116614  0.097166  -0.000981  1.0566  -0.002
H  H44  1  0.78574301  0.02051680  0.24536077  1  0.064973  -0.001019  0.099609  0.100265  -0.00048  1.057282  -0.001
H  H45  1  0.21425720  0.97947936  0.75464466  1  0.064911  -0.001019  0.099639  0.100304  -0.00048  1.0573  -0.001
H  H46  1  0.86598700  0.75073058  0.41941969  1  0.057302  -6e-05  0.09254  0.086537  -4e-05  1.067488  0.0
H  H47  1  0.13401760  0.24927075  0.58058998  1  0.057344  -6e-05  0.092555  0.086535  -4e-05  1.067554  0.0
H  H48  1  0.81738866  0.05377212  0.40067827  1  0.037637  -6.5e-05  0.092233  0.08457  -4.4e-05  1.057718  0.0
H  H49  1  0.18261485  0.94623347  0.59932387  1  0.037734  -6.4e-05  0.092191  0.084471  -4.4e-05  1.057693  0.0
H  H50  1  0.76426353  0.03115725  0.56136462  1  0.076184  -1.3e-05  0.105712  0.108698  -1e-05  0.987331  0.0
H  H51  1  0.23572586  0.96884838  0.43862766  1  0.076632  -1.3e-05  0.105752  0.108707  -1e-05  0.987451  0.0
H  H52  1  0.76995125  0.87648556  0.65375928  1  0.078339  1.3e-05  0.098998  0.100076  2.8e-05  1.040412  0.0
H  H53  1  0.23004478  0.12352955  0.34624160  1  0.078096  1.3e-05  0.099057  0.100091  2.8e-05  1.04048  0.0
H  H54  1  0.82368740  0.73486763  0.58309011  1  0.039788  -7e-06  0.093917  0.09072  -4e-06  1.020148  0.0
H  H55  1  0.17630594  0.26514238  0.41691722  1  0.039744  -7e-06  0.093969  0.090761  -4e-06  1.020063  0.0
H  H56  1  0.98101692  0.21909312  0.98739948  1  0.188019  -0.002129  0.121071  0.105147  -0.001027  1.040683  -0.002
H  H57  1  0.01897511  0.78091596  0.01259580  1  0.188175  -0.00213  0.121107  0.105193  -0.001027  1.040605  -0.002
H  H58  1  0.10161687  0.41757811  0.08735488  1  0.087806  -0.001171  0.108613  0.111995  -0.000621  1.006416  -0.001
H  H59  1  0.89837350  0.58242149  0.91263758  1  0.087882  -0.001171  0.108611  0.112023  -0.00062  1.006458  -0.001
H  H60  1  0.36335534  0.31783303  0.29059194  1  0.064125  -0.001056  0.1102  0.115041  -0.00054  1.008638  -0.001
H  H61  1  0.63664009  0.68216827  0.70940418  1  0.063994  -0.001056  0.110191  0.115011  -0.00054  1.008719  -0.001
H  H62  1  0.23555111  0.12550908  0.18137635  1  0.204445  -0.001907  0.120283  0.106876  -0.000889  1.061172  -0.002
H  H63  1  0.76444046  0.87449913  0.81861805  1  0.204307  -0.001907  0.120348  0.106973  -0.000889  1.061109  -0.002
H  H64  1  0.21017818  0.57819507  0.16470596  1  0.059223  -0.000103  0.102805  0.09984  -6.6e-05  1.010549  0.0
H  H65  1  0.78980679  0.42179424  0.83528771  1  0.057933  -0.000103  0.102857  0.099919  -6.6e-05  1.010447  0.0
H  H66  1  0.51738875  0.81594489  0.43371080  1  0.068582  0.0  0.10561  0.107453  7e-06  0.996193  0.0
H  H67  1  0.48259889  0.18405902  0.56628022  1  0.068395  0.0  0.105571  0.107457  7e-06  0.996333  0.0
H  H68  1  0.32750223  0.76821502  0.27065517  1  0.169708  -6e-06  0.105974  0.126996  -8e-06  1.027344  0.0
H  H69  1  0.67247714  0.23178898  0.72933932  1  0.169542  -6e-06  0.105972  0.12703  -8e-06  1.027259  0.0
H  H70  1  0.45273007  0.46902460  0.38122266  1  0.047698  -9e-05  0.099014  0.095482  -5.7e-05  1.026842  0.0
H  H71  1  0.54726828  0.53097909  0.61875029  1  0.047314  -9e-05  0.09899  0.095488  -5.7e-05  1.026862  0.0
H  H72  1  0.57687928  0.66380875  0.48482643  1  0.068474  -1.7e-05  0.095606  0.090297  -1.1e-05  1.043647  0.0
H  H73  1  0.42312153  0.33619329  0.51515813  1  0.068146  -1.7e-05  0.095646  0.090357  -1.1e-05  1.043588  0.0
C  C74  1  0.55818070  0.74005050  0.15361840  1  0.035865  -0.00672  -0.082667  -0.169501  -0.004553  3.938492  -0.005
C  C75  1  0.44182255  0.25993877  0.84638924  1  0.035435  -0.006725  -0.082692  -0.169596  -0.004556  3.938052  -0.005
C  C76  1  0.59529085  0.83678260  0.98509120  1  0.477294  0.000896  0.046085  0.096595  0.001333  3.927637  0.001
C  C77  1  0.40470350  0.16321190  0.01491543  1  0.477803  0.000894  0.046029  0.096476  0.001329  3.927517  0.001
C  C78  1  0.60939669  0.69931964  0.09496076  1  -0.071633  0.003717  0.012881  0.111889  0.004093  3.972942  0.003
C  C79  1  0.39060534  0.30067048  0.90504436  1  -0.071197  0.003717  0.012889  0.111982  0.004093  3.9728  0.003
C  C80  1  0.52736347  0.82639233  0.12514036  1  0.39989  0.000236  0.042916  0.089204  0.000676  3.915831  0.0
C  C81  1  0.47263695  0.17358839  0.87487362  1  0.400921  0.000242  0.04296  0.089164  0.00068  3.915878  0.0
C  C82  1  0.64077040  0.60586905  0.12030242  1  -0.034119  -0.000537  -0.006919  0.062542  -0.000321  3.984676  0.0
C  C83  1  0.35923741  0.39412099  0.87969853  1  -0.034332  -0.000537  -0.006979  0.062327  -0.000321  3.984456  0.0
C  C84  1  0.62754821  0.75046755  0.00915595  1  -0.001049  -0.006344  -0.082419  -0.159952  -0.004251  3.933429  -0.005
C  C85  1  0.37244871  0.24951916  0.99084838  1  -0.001127  -0.006342  -0.082318  -0.15989  -0.004249  3.933562  -0.005
C  C86  1  0.60121283  0.43084515  0.19023499  1  -0.083182  -0.000238  -0.094197  -0.086271  -0.000147  4.041683  0.0
C  C87  1  0.39879481  0.56914139  0.80975784  1  -0.083847  -0.000238  -0.094204  -0.086312  -0.000147  4.041898  0.0
C  C88  1  0.57456795  0.52142017  0.16998377  1  -0.022164  0.000545  -0.089025  -0.12083  0.000594  3.953252  0.0
C  C89  1  0.42544023  0.47856897  0.83001217  1  -0.022247  0.000545  -0.08912  -0.120768  0.000594  3.953243  0.0
C  C90  1  0.73527718  0.59767947  0.09280401  1  -0.019872  0.000632  -0.089807  -0.123442  0.000688  3.972219  0.0
C  C91  1  0.26473893  0.40232002  0.90720237  1  -0.020344  0.000632  -0.089789  -0.123343  0.000688  3.97195  0.0
C  C92  1  0.69444472  0.42297814  0.16162905  1  -0.039105  0.000691  -0.094513  -0.08082  0.000772  4.003503  0.0
C  C93  1  0.30556564  0.57701356  0.83836682  1  -0.037978  0.000691  -0.094368  -0.080681  0.000772  4.003415  0.0
C  C94  1  0.76186911  0.50706544  0.11319976  1  -0.047361  -0.000196  -0.092465  -0.07944  -0.00012  4.016642  0.0
C  C95  1  0.23814405  0.49293318  0.88680285  1  -0.047482  -0.000196  -0.092533  -0.079518  -0.00012  4.016493  0.0
C  C96  1  0.97039950  0.35160651  0.38513817  1  -0.05713  -0.000544  -0.009938  0.050256  -0.000314  4.001559  0.0
C  C97  1  0.02960061  0.64839737  0.61486225  1  -0.057417  -0.000544  -0.009967  0.05028  -0.000314  4.001604  0.0
C  C98  1  0.63530288  0.12849827  0.22153524  1  0.428798  0.00035  0.049794  0.088538  0.000622  3.904358  0.0
C  C99  1  0.36469627  0.87149271  0.77846689  1  0.429201  0.000351  0.049742  0.088497  0.000623  3.904431  0.0
C  C100  1  0.86238295  0.25405565  0.19782952  1  -0.028074  -0.0059  -0.084089  -0.171952  -0.004003  3.942138  -0.005
C  C101  1  0.13761048  0.74593709  0.80217172  1  -0.028087  -0.0059  -0.08407  -0.171968  -0.004004  3.9419  -0.005
C  C102  1  0.73883238  0.20531854  0.30701421  1  -0.005042  -0.006311  -0.083427  -0.184557  -0.004247  3.945747  -0.005
C  C103  1  0.26117182  0.79467412  0.69298647  1  -0.005071  -0.00631  -0.083512  -0.184775  -0.004246  3.945892  -0.005
C  C104  1  0.85715628  0.27007496  0.29741258  1  -0.018395  0.003573  0.013729  0.105978  0.003917  3.993581  0.002
C  C105  1  0.14284683  0.72992195  0.70257984  1  -0.018539  0.003573  0.013691  0.106033  0.003917  3.993368  0.002
C  C106  1  0.75540652  0.17819180  0.11515996  1  0.415862  0.001106  0.045197  0.087158  0.001624  3.915412  0.001
C  C107  1  0.24458878  0.82179660  0.88483811  1  0.415861  0.001105  0.04517  0.087106  0.001623  3.915395  0.001
C  C108  1  0.07125631  0.44131000  0.36630496  1  -0.022587  0.000663  -0.08935  -0.123727  0.000728  3.967523  0.0
C  C109  1  0.92874658  0.55869125  0.63369257  1  -0.022165  0.000663  -0.089376  -0.123759  0.000728  3.967538  0.0
C  C110  1  0.98042822  0.34270984  0.48914387  1  -0.022841  0.00066  -0.082361  -0.11782  0.00072  3.962479  0.0
C  C111  1  0.01957617  0.65729744  0.51085564  1  -0.02281  0.00066  -0.082402  -0.117886  0.00072  3.962705  0.0
C  C112  1  0.08838506  0.41999515  0.57134611  1  -0.036223  -0.000353  -0.087313  -0.074151  -0.000216  4.010541  0.0
C  C113  1  0.91162289  0.58001730  0.42865741  1  -0.036604  -0.000353  -0.087408  -0.074264  -0.000216  4.010625  0.0
C  C114  1  0.18847429  0.50728290  0.55110720  1  -0.076502  0.000792  -0.086945  -0.07195  0.00086  3.989217  0.0
C  C115  1  0.81153189  0.49272777  0.44888704  1  -0.075735  0.000793  -0.086855  -0.071786  0.00086  3.988758  0.0
C  C116  1  0.17937104  0.51815220  0.44834996  1  0.005062  -0.000257  -0.09486  -0.085667  -0.000149  4.021657  0.0
C  C117  1  0.82063042  0.48185424  0.55164797  1  0.004514  -0.000257  -0.094852  -0.085689  -0.000149  4.021546  0.0
C  C118  1  0.87811222  0.91756493  0.30279076  1  -0.039166  0.003791  0.014437  0.112475  0.00417  3.975829  0.003
C  C119  1  0.12188528  0.08242608  0.69721235  1  -0.03877  0.003791  0.014421  0.112542  0.00417  3.976196  0.003
C  C120  1  0.87762004  0.99860190  0.14655027  1  0.388699  0.000813  0.033415  0.077054  0.001366  3.95467  0.001
C  C121  1  0.12237746  0.00138910  0.85345284  1  0.388399  0.000813  0.033361  0.077058  0.001366  3.954614  0.001
C  C122  1  0.94696889  0.86888185  0.27712215  1  0.017732  -0.007126  -0.079969  -0.16519  -0.004748  3.930407  -0.006
C  C123  1  0.05302997  0.13111172  0.72288066  1  0.017887  -0.007125  -0.07996  -0.165278  -0.004747  3.930671  -0.006
C  C124  1  0.98065309  0.88926105  0.18938464  1  0.460614  -0.000278  0.044875  0.091646  2e-05  3.91289  -0.001
C  C125  1  0.01934583  0.11073423  0.81061530  1  0.460838  -0.000275  0.044949  0.091775  2.2e-05  3.912836  -0.001
C  C126  1  0.84569208  0.90372620  0.39772185  1  0.012239  -0.000629  -0.010746  0.057305  -0.000384  3.986203  -0.001
C  C127  1  0.15430737  0.09627168  0.60228193  1  0.011699  -0.000629  -0.01069  0.057294  -0.000384  3.986326  -0.001
C  C128  1  0.84292101  0.98309839  0.23341941  1  0.014744  -0.005887  -0.091747  -0.175351  -0.003969  3.962892  -0.005
C  C129  1  0.15707784  0.01689517  0.76658121  1  0.01477  -0.005888  -0.091829  -0.175528  -0.00397  3.963076  -0.005
C  C130  1  0.84621467  0.81410595  0.45057326  1  -0.048569  0.000695  -0.089602  -0.122784  0.000757  3.963039  0.0
C  C131  1  0.15377523  0.18589116  0.54943287  1  -0.048279  0.000696  -0.089557  -0.12268  0.000757  3.963044  0.0
C  C132  1  0.81581691  0.98198450  0.43883840  1  -0.042926  0.000604  -0.088088  -0.122593  0.000654  3.965889  0.0
C  C133  1  0.18418476  0.01801760  0.56115588  1  -0.043734  0.000604  -0.087994  -0.122319  0.000654  3.965697  0.0
C  C134  1  0.78736692  0.97061599  0.52943833  1  -0.059099  -0.000269  -0.089006  -0.081857  -0.000165  4.019023  0.0
C  C135  1  0.21265345  0.02940585  0.47056670  1  -0.058677  -0.000269  -0.08918  -0.082105  -0.000165  4.019301  0.0
C  C136  1  0.79054871  0.88219710  0.58216315  1  -0.030675  0.000807  -0.086935  -0.075251  0.000887  3.983145  0.0
C  C137  1  0.20944951  0.11782060  0.41784059  1  -0.030689  0.000807  -0.086912  -0.075182  0.000886  3.983402  0.0
C  C138  1  0.82056611  0.80426472  0.54269661  1  -0.040343  -0.000253  -0.095235  -0.084716  -0.000146  4.020414  0.0
C  C139  1  0.17943680  0.19574607  0.45731055  1  -0.040361  -0.000253  -0.095375  -0.084879  -0.000146  4.020369  0.0
C  C140  1  0.06748212  0.24556035  0.05499318  1  0.424085  0.000614  0.046355  0.085462  0.000832  3.923725  0.0
C  C141  1  0.93250854  0.75444613  0.94499948  1  0.42367  0.000615  0.046319  0.085525  0.000833  3.923738  0.0
C  C142  1  0.13587173  0.35664816  0.11262672  1  -0.080553  -0.006101  -0.086205  -0.182217  -0.004056  3.957589  -0.005
C  C143  1  0.86412102  0.64334803  0.88737439  1  -0.080585  -0.006102  -0.086147  -0.182272  -0.004057  3.957147  -0.005
C  C144  1  0.27991072  0.30219248  0.22442803  1  -0.064375  -0.005934  -0.083561  -0.175109  -0.003924  3.932746  -0.005
C  C145  1  0.72007779  0.69780199  0.77556820  1  -0.087927  -0.005975  -0.083563  -0.175144  -0.003923  3.933046  -0.005
C  C146  1  0.20800256  0.19268158  0.16374890  1  0.454399  0.001133  0.047388  0.089929  0.00148  3.910063  0.001
C  C147  1  0.79198395  0.80731541  0.83623659  1  0.477788  0.001175  0.047178  0.089645  0.001479  3.910393  0.001
C  C148  1  0.24572424  0.38901638  0.20065230  1  -0.016054  0.003563  0.012884  0.106568  0.003921  3.985102  0.002
C  C149  1  0.75426148  0.61098069  0.79934244  1  -0.016129  0.003563  0.01293  0.106713  0.00392  3.984791  0.002
C  C150  1  0.32004249  0.50626823  0.26408937  1  0.005682  -0.00057  -0.015343  0.033257  -0.00033  4.01898  0.0
C  C151  1  0.67995426  0.49373560  0.73589989  1  0.005432  -0.00057  -0.015307  0.0332  -0.00033  4.018805  0.0
C  C152  1  0.28897474  0.59407405  0.23558896  1  -0.096568  0.000717  -0.081295  -0.114161  0.000777  3.945271  0.0
C  C153  1  0.71101275  0.40592640  0.76439978  1  -0.094466  0.000717  -0.081344  -0.114227  0.000777  3.945358  0.0
C  C154  1  0.46153480  0.72978665  0.38643859  1  -0.039906  0.000739  -0.080165  -0.069766  0.0008  3.964718  0.0
C  C155  1  0.53845323  0.27021641  0.61355399  1  -0.03939  0.000739  -0.080167  -0.069862  0.0008  3.964905  0.0
C  C156  1  0.35753662  0.70424381  0.29614157  1  -0.038814  -0.000288  -0.082482  -0.073093  -0.000181  3.952288  0.0
C  C157  1  0.64245561  0.29576090  0.70384641  1  -0.039031  -0.000288  -0.082451  -0.073099  -0.000181  3.952444  0.0
C  C158  1  0.42460465  0.53379880  0.35577290  1  -0.094506  0.000644  -0.090147  -0.130962  0.000699  3.984483  0.0
C  C159  1  0.57538081  0.46620253  0.64421527  1  -0.095294  0.000644  -0.090166  -0.130918  0.000699  3.984321  0.0
C  C160  1  0.49479038  0.64410413  0.41555984  1  -0.044376  -0.000256  -0.093536  -0.087796  -0.000153  4.028821  0.0
C  C161  1  0.50520598  0.35590054  0.58442568  1  -0.043331  -0.000256  -0.093548  -0.087812  -0.000153  4.028847  0.0
S  S162  1  0.26752299  0.93724131  0.15298141  1  3.758712  0.000415  0.51265  1.402244  0.000438  6.469018  0.001
S  S163  1  0.73249441  0.06278754  0.84703818  1  3.759731  0.000415  0.51278  1.402461  0.00044  6.468814  0.001
N  N164  1  0.54587458  0.87427664  0.04211539  1  -1.219008  -0.098582  -0.345939  -0.226529  -0.066028  3.597425  -0.086
N  N165  1  0.45411992  0.12571181  0.95788901  1  -1.220506  -0.098579  -0.345986  -0.2264  -0.066025  3.597238  -0.086
N  N166  1  0.64395737  0.11476088  0.12707967  1  -1.220051  -0.093159  -0.343052  -0.220984  -0.062409  3.589222  -0.082
N  N167  1  0.35603727  0.88522151  0.87292031  1  -1.219944  -0.093156  -0.342937  -0.220768  -0.062405  3.589229  -0.082
N  N168  1  0.94676060  0.95377009  0.12495743  1  -1.223988  -0.098813  -0.345019  -0.225771  -0.066062  3.589658  -0.086
N  N169  1  0.05323704  0.04622433  0.87504286  1  -1.224238  -0.098821  -0.345019  -0.225794  -0.066069  3.589648  -0.086
N  N170  1  0.10304287  0.16449426  0.08013011  1  -1.201322  -0.089472  -0.342083  -0.217816  -0.060025  3.586282  -0.078
N  N171  1  0.89694087  0.83550537  0.91985973  1  -1.200653  -0.08946  -0.341977  -0.217732  -0.060016  3.586474  -0.078
O  O172  1  0.33085214  0.02771637  0.24793946  1  -1.374223  -0.000648  -0.413657  -0.700613  -0.000428  2.052568  0.0
O  O173  1  0.66920820  0.97238153  0.75203011  1  -1.374776  -0.000645  -0.413858  -0.70072  -0.000427  2.052346  0.0
O  O174  1  0.18027685  0.96533853  0.06876181  1  -1.356882  -0.000438  -0.394917  -0.739999  0.000251  2.29244  -0.001
O  O175  1  0.81971635  0.03463956  0.93123623  1  -1.356866  -0.000438  -0.394942  -0.740019  0.000251  2.29239  -0.001
O  O176  1  0.36549192  0.93600551  0.11304726  1  -1.356944  -0.00026  -0.390543  -0.728451  0.000338  2.254006  -0.001
O  O177  1  0.63448914  0.06395896  0.88695948  1  -1.357336  -0.000256  -0.39033  -0.728362  0.00034  2.254066  -0.001
O  O178  1  0.19249937  0.82138210  0.17290755  1  -1.365264  -0.001538  -0.405943  -0.692764  -0.000991  2.07686  -0.001
O  O179  1  0.80754996  0.17868850  0.82720560  1  -1.365491  -0.001535  -0.406013  -0.692895  -0.000989  2.076923  -0.001
