# generated using pymatgen
data_ZnC9N(O2F3)2
_symmetry_space_group_name_H-M   'P 1'
_cell_length_a   8.24170630
_cell_length_b   9.27769843
_cell_length_c   16.09569657
_cell_angle_alpha   89.99984038
_cell_angle_beta   89.99998743
_cell_angle_gamma   90.09902795
_symmetry_Int_Tables_number   1
_chemical_formula_structural   ZnC9N(O2F3)2
_chemical_formula_sum   'Zn2 C18 N2 O8 F12'
_cell_volume   1230.74056080
_cell_formula_units_Z   2
loop_
 _symmetry_equiv_pos_site_id
 _symmetry_equiv_pos_as_xyz
  1  'x, y, z'
loop_
 _atom_site_type_symbol
 _atom_site_label
 _atom_site_symmetry_multiplicity
 _atom_site_fract_x
 _atom_site_fract_y
 _atom_site_fract_z
 _atom_site_occupancy
 _atom_site_pbe_bader_charge
 _atom_site_pbe_bader_spin_density
 _atom_site_pbe_cm5_charge
 _atom_site_pbe_ddec_charge
 _atom_site_pbe_ddec_spin_density
 _atom_site_pbe_ddec_sum_bond_order
 _atom_site_pbe_magmom
Zn  Zn0  1  0.66065546  0.50018333  0.49999974  1  1.321297  0  0.689106  0.84018  0  2.425094  0
Zn  Zn1  1  0.33940114  0.49983077  0.49999928  1  1.29758  0  0.688883  0.839886  0  2.426211  0
C  C2  1  0.50000691  0.77890820  0.50000194  1  1.694754  0  0.233503  0.672883  0  4.199501  0
C  C3  1  0.33765188  0.56643148  0.04934023  1  1.251081  0  0.201536  0.353724  0  3.915079  0
C  C4  1  0.64619750  0.59168260  0.95064555  1  1.251559  0  0.202194  0.352697  0  3.915061  0
C  C5  1  0.33764714  0.56642637  0.95066003  1  1.106288  0  0.201485  0.35383  0  3.914867  0
C  C6  1  0.50009639  0.49977299  0.75116509  1  0.181714  0  -0.014903  -0.124939  0  3.881088  0
C  C7  1  0.50009929  0.49977667  0.24883517  1  0.181703  0  -0.014917  -0.125036  0  3.881212  0
C  C8  1  0.49993082  0.50022076  0.08388860  1  0.105623  0  -0.01564  -0.18275  0  3.939336  0
C  C9  1  0.49992719  0.50021679  0.91611167  1  0.105595  0  -0.015625  -0.182774  0  3.939337  0
C  C10  1  0.51601544  0.34199812  0.95059810  1  1.091701  0  0.203799  0.355977  0  3.910889  0
C  C11  1  0.51601654  0.34199891  0.04940380  1  1.23639  0  0.203766  0.356049  0  3.910837  0
C  C12  1  0.50002872  0.49994748  0.82637650  1  -0.291362  0  -0.035279  -0.004242  0  4.060801  0
C  C13  1  0.50003626  0.49995345  0.17362439  1  -0.291373  0  -0.035242  -0.004141  0  4.060736  0
C  C14  1  0.50009828  0.49984557  0.33866788  1  1.598417  0  0.234559  0.679677  0  4.19714  0
C  C15  1  0.50009147  0.49984204  0.66133177  1  1.59838  0  0.23448  0.679378  0  4.197141  0
C  C16  1  0.49993125  0.06537531  0.50000039  1  0.035531  0  -0.012847  -0.099406  0  3.90672  0
C  C17  1  0.50002464  0.93463978  0.50000049  1  -0.205652  0  -0.012868  -0.099146  0  3.906638  0
C  C18  1  0.50003755  0.22110912  0.50000081  1  1.695682  0  0.233523  0.672736  0  4.200444  0
C  C19  1  0.64620102  0.59168340  0.04935060  1  1.10729  0  0.202175  0.352635  0  3.915142  0
N  N20  1  0.06719893  0.49985468  0.50000190  1  0.172966  0  0.10188  0.140596  0  2.923617  0
N  N21  1  0.93285886  0.50013463  0.50000209  1  -0.093066  0  0.101395  0.140042  0  2.923576  0
O  O22  1  0.63843764  0.71780421  0.50000009  1  -1.138611  0  -0.305295  -0.52915  0  2.252883  0
O  O23  1  0.36144120  0.71749674  0.50000147  1  -1.138496  0  -0.305226  -0.52962  0  2.251174  0
O  O24  1  0.63860259  0.49996586  0.37382503  1  -1.124666  0  -0.306533  -0.530305  0  2.240508  0
O  O25  1  0.36153958  0.49982864  0.37381710  1  -1.124479  0  -0.306703  -0.530625  0  2.239691  0
O  O26  1  0.63859567  0.49996240  0.62617509  1  -1.124502  0  -0.306525  -0.530185  0  2.240546  0
O  O27  1  0.36153388  0.49982734  0.62618331  1  -1.124577  0  -0.306638  -0.530453  0  2.239558  0
O  O28  1  0.63855348  0.28248605  0.50000066  1  -1.139181  0  -0.305157  -0.529403  0  2.252823  0
O  O29  1  0.36156439  0.28224541  0.50000018  1  -1.139781  0  -0.305285  -0.529094  0  2.252463  0
F  F30  1  0.65557956  0.28110272  0.07761570  1  -0.58728  0  -0.093316  -0.143423  0  1.348967  0
F  F31  1  0.78877147  0.53661965  0.07763394  1  -0.592038  0  -0.093841  -0.143688  0  1.360692  0
F  F32  1  0.20856538  0.48917353  0.92234952  1  -0.592877  0  -0.092796  -0.14258  0  1.358172  0
F  F33  1  0.78876786  0.53662429  0.92235973  1  -0.591724  0  -0.093872  -0.143692  0  1.360636  0
F  F34  1  0.39101264  0.25943105  0.07763885  1  -0.590225  0  -0.093744  -0.144213  0  1.348214  0
F  F35  1  0.65558202  0.28110414  0.92238747  1  -0.587275  0  -0.093379  -0.143444  0  1.348966  0
F  F36  1  0.39101631  0.25942600  0.92236216  1  -0.589994  0  -0.093753  -0.144182  0  1.348177  0
F  F37  1  0.63586409  0.72969704  0.92232849  1  -0.591849  0  -0.094977  -0.144891  0  1.346732  0
F  F38  1  0.32000395  0.70380244  0.92229078  1  -0.594949  0  -0.095045  -0.145749  0  1.34667  0
F  F39  1  0.63587255  0.72969887  0.07766793  1  -0.591849  0  -0.095009  -0.144882  0  1.346632  0
F  F40  1  0.32001484  0.70381182  0.07770416  1  -0.595022  0  -0.095102  -0.145774  0  1.346687  0
F  F41  1  0.20857021  0.48918290  0.07765417  1  -0.592735  0  -0.09277  -0.142502  0  1.358308  0
