# generated using pymatgen
data_ZnH5C12I2NO4
_symmetry_space_group_name_H-M   'P 1'
_cell_length_a   9.61821110
_cell_length_b   10.91821837
_cell_length_c   11.00194251
_cell_angle_alpha   92.58399495
_cell_angle_beta   91.37822693
_cell_angle_gamma   85.52675929
_symmetry_Int_Tables_number   1
_chemical_formula_structural   ZnH5C12I2NO4
_chemical_formula_sum   'Zn2 H10 C24 I4 N2 O8'
_cell_volume   1150.41982145
_cell_formula_units_Z   2
loop_
 _symmetry_equiv_pos_site_id
 _symmetry_equiv_pos_as_xyz
  1  'x, y, z'
loop_
 _atom_site_type_symbol
 _atom_site_label
 _atom_site_symmetry_multiplicity
 _atom_site_fract_x
 _atom_site_fract_y
 _atom_site_fract_z
 _atom_site_occupancy
 _atom_site_pbe_bader_charge
 _atom_site_pbe_bader_spin_density
 _atom_site_pbe_cm5_charge
 _atom_site_pbe_ddec_charge
 _atom_site_pbe_ddec_spin_density
 _atom_site_pbe_ddec_sum_bond_order
 _atom_site_pbe_magmom
Zn  Zn0  1  0.63922244  0.49637058  0.50684129  1  1.279414  0  0.669949  0.807337  0  2.376803  0
Zn  Zn1  1  0.35284439  0.50308197  0.50444876  1  1.294655  0  0.676342  0.837716  0  2.431223  0
H  H2  1  0.70350408  0.74789361  0.65431029  1  0.083371  0  0.095804  0.103188  0  1.058318  0
H  H3  1  0.75842893  0.19569503  0.64282363  1  0.135704  0  0.096539  0.113825  0  1.05546  0
H  H4  1  0.91982623  0.83231585  0.73504101  1  0.048747  0  0.089763  0.0846  0  1.020571  0
H  H5  1  0.94904662  0.05684985  0.72420297  1  0.062961  0  0.083605  0.078577  0  1.049204  0
H  H6  1  0.63934354  0.35601260  0.11254419  1  0.063033  0  0.109911  0.115021  0  0.986628  0
H  H7  1  0.64159259  0.36346997  0.88541292  1  0.095238  0  0.109811  0.116986  0  0.980852  0
H  H8  1  0.12855083  0.45265092  0.31979090  1  0.149331  0  0.142263  0.129041  0  0.955937  0
H  H9  1  0.12990875  0.56914132  0.68440493  1  0.166597  0  0.127356  0.109317  0  1.00789  0
H  H10  1  0.86218975  0.44665721  0.32236160  1  0.166527  0  0.139941  0.125585  0  0.970846  0
H  H11  1  0.86435219  0.55991649  0.68757422  1  0.152461  0  0.139142  0.12532  0  0.967855  0
C  C12  1  0.49848540  0.51919558  0.74385184  1  1.597768  0  0.21177  0.599722  0  4.18413  0
C  C13  1  0.49621222  0.49923552  0.27016587  1  1.57553  0  0.217638  0.612606  0  4.144573  0
C  C14  1  0.57861647  0.42865204  0.06562484  1  0.004912  0  -0.083693  -0.088934  0  3.996957  0
C  C15  1  0.57997101  0.43287432  0.93976602  1  -0.046817  0  -0.087135  -0.100902  0  3.990892  0
C  C16  1  0.06803908  0.47662273  0.40115513  1  0.528089  0  0.078474  0.060967  0  3.868684  0
C  C17  1  0.06881575  0.54163304  0.60427746  1  0.499479  0  0.072786  0.062135  0  3.873702  0
C  C18  1  0.92369392  0.47279967  0.40260200  1  0.490814  0  0.080488  0.06594  0  3.846132  0
C  C19  1  0.92471657  0.53683119  0.60593484  1  0.496956  0  0.075838  0.061888  0  3.844986  0
C  C20  1  0.48148103  0.73756251  0.52285941  1  1.585387  0  0.20732  0.590916  0  4.169083  0
C  C21  1  0.50864353  0.26603558  0.53739297  1  1.583111  0  0.21478  0.602588  0  4.131575  0
C  C22  1  0.71685245  0.84531838  0.64937067  1  0.083711  0  -0.096966  -0.126679  0  3.975444  0
C  C23  1  0.74734146  0.09766528  0.64342198  1  -0.092122  0  -0.101953  -0.140263  0  3.967637  0
C  C24  1  0.83727577  0.89260000  0.69446478  1  -0.141621  0  -0.101139  -0.084427  0  4.050281  0
C  C25  1  0.85313727  0.01948693  0.68963889  1  -0.039032  0  -0.100903  -0.078698  0  4.058507  0
C  C26  1  0.61856405  0.05325222  0.60133492  1  0.039694  0  0.001588  0.073869  0  3.918759  0
C  C27  1  0.60570826  0.92279547  0.60055752  1  0.021302  0  -0.0009  0.069495  0  3.926484  0
C  C28  1  0.47948083  0.87371024  0.55452526  1  -0.034554  0  -0.010903  -0.081712  0  3.887679  0
C  C29  1  0.49831733  0.13376787  0.56990419  1  0.005679  0  -0.012185  -0.095087  0  3.846817  0
C  C30  1  0.36014075  0.95379003  0.54399489  1  -0.213808  0  -0.053979  -0.013071  0  3.87167  0
C  C31  1  0.36876092  0.08295049  0.56290963  1  -0.151392  0  -0.042441  0.024383  0  3.841796  0
C  C32  1  0.42118563  0.61682977  0.94952934  1  -0.222254  0  -0.053502  -0.006764  0  3.87306  0
C  C33  1  0.42013489  0.61337713  0.07729003  1  -0.208087  0  -0.05162  0.007829  0  3.851457  0
C  C34  1  0.49753087  0.51645888  0.13537319  1  0.063492  0  -0.01995  -0.051191  0  3.938566  0
C  C35  1  0.49960322  0.52556066  0.88081332  1  0.035824  0  -0.015378  -0.031966  0  3.956136  0
I  I36  1  0.16383457  0.89281366  0.48665923  1  0.15209  0  0.088523  0.0282  0  1.757516  0
I  I37  1  0.18369102  0.19322267  0.60497059  1  0.138282  0  0.078063  -0.01498  0  1.706167  0
I  I38  1  0.31116297  0.75932421  0.85496209  1  0.130259  0  0.078283  -0.005331  0  1.623214  0
I  I39  1  0.31286509  0.75562644  0.18231138  1  0.150631  0  0.048561  -0.044762  0  1.687721  0
N  N40  1  0.85364402  0.50172800  0.50532893  1  -1.206846  0  -0.291651  -0.143243  0  3.489911  0
N  N41  1  0.13893171  0.51021638  0.50207480  1  -1.231078  0  -0.297641  -0.158301  0  3.536538  0
O  O42  1  0.61063649  0.54133066  0.69252448  1  -1.160673  0  -0.311239  -0.545481  0  2.3094  0
O  O43  1  0.61266598  0.46706182  0.32205229  1  -1.162726  0  -0.315227  -0.54734  0  2.302961  0
O  O44  1  0.38766050  0.48646265  0.69143286  1  -1.160164  0  -0.310902  -0.545064  0  2.350154  0
O  O45  1  0.37916324  0.51507896  0.32168873  1  -1.167394  0  -0.312533  -0.538324  0  2.394038  0
O  O46  1  0.59299525  0.68399575  0.47962282  1  -1.157614  0  -0.314977  -0.539241  0  2.310456  0
O  O47  1  0.62232439  0.31749588  0.55681386  1  -1.155057  0  -0.307794  -0.528099  0  2.331928  0
O  O48  1  0.37188200  0.68464745  0.54284972  1  -1.157187  0  -0.315724  -0.549955  0  2.500895  0
O  O49  1  0.40232988  0.31813064  0.48452340  1  -1.172628  0  -0.324201  -0.547236  0  2.415865  0
