# generated using pymatgen
data_ZnH24C17(NO)4
_symmetry_space_group_name_H-M   'P 1'
_cell_length_a   8.07038136
_cell_length_b   9.43286647
_cell_length_c   13.69371029
_cell_angle_alpha   95.30685824
_cell_angle_beta   96.69844175
_cell_angle_gamma   101.61436848
_symmetry_Int_Tables_number   1
_chemical_formula_structural   ZnH24C17(NO)4
_chemical_formula_sum   'Zn2 H48 C34 N8 O8'
_cell_volume   1006.91198387
_cell_formula_units_Z   2
loop_
 _symmetry_equiv_pos_site_id
 _symmetry_equiv_pos_as_xyz
  1  'x, y, z'
loop_
 _atom_site_type_symbol
 _atom_site_label
 _atom_site_symmetry_multiplicity
 _atom_site_fract_x
 _atom_site_fract_y
 _atom_site_fract_z
 _atom_site_occupancy
 _atom_site_hle17_bader_spin_density
 _atom_site_hle17_ddec_charge
 _atom_site_hle17_ddec_spin_density
 _atom_site_hle17_ddec_sum_bond_order
 _atom_site_hle17_magmom
 _atom_site_hse06_10hf_bader_spin_density
 _atom_site_hse06_10hf_ddec_charge
 _atom_site_hse06_10hf_ddec_spin_density
 _atom_site_hse06_10hf_ddec_sum_bond_order
 _atom_site_hse06_10hf_magmom
 _atom_site_hse06_bader_spin_density
 _atom_site_hse06_ddec_charge
 _atom_site_hse06_ddec_spin_density
 _atom_site_hse06_ddec_sum_bond_order
 _atom_site_hse06_magmom
 _atom_site_pbe_bader_spin_density
 _atom_site_pbe_cm5_charge
 _atom_site_pbe_ddec_charge
 _atom_site_pbe_ddec_spin_density
 _atom_site_pbe_ddec_sum_bond_order
 _atom_site_pbe_magmom
Zn  Zn0  1  0.75989340  0.77349150  0.77093425  1  0  0.989548  0  1.897842  0  0  0.797762  0  2.380253  0  0  0.844161  0  2.325288  0  0  0.688364  0.765391  0  2.418226  0
Zn  Zn1  1  0.24010737  0.22650791  0.22906635  1  0  0.989518  0  1.897807  0  0  0.797753  0  2.380229  0  0  0.844159  0  2.325263  0  0  0.688364  0.765388  0  2.418202  0
H  H2  1  0.97540835  0.09765500  0.81701725  1  0  0.10222  0  0.970861  0  0  0.110651  0  1.035935  0  0  0.113742  0  1.03192  0  0  0.13312  0.108279  0  1.038998  0
H  H3  1  0.02458870  0.90234449  0.18298310  1  0  0.102219  0  0.970834  0  0  0.110649  0  1.035915  0  0  0.11374  0  1.031899  0  0  0.133113  0.108276  0  1.038979  0
H  H4  1  0.59257481  0.87237548  0.96418959  1  0  0.11425  0  0.981952  0  0  0.120156  0  1.048301  0  0  0.122781  0  1.047377  0  0  0.117221  0.118269  0  1.049099  0
H  H5  1  0.40742533  0.12762613  0.03581112  1  0  0.114259  0  0.981933  0  0  0.120169  0  1.048282  0  0  0.122799  0  1.047348  0  0  0.117224  0.118283  0  1.049081  0
H  H6  1  0.74797205  0.14046224  0.07882268  1  0  0.133474  0  0.953312  0  0  0.143911  0  1.011545  0  0  0.146645  0  1.010318  0  0  0.130334  0.14196  0  1.012462  0
H  H7  1  0.25202748  0.85953721  0.92117710  1  0  0.133491  0  0.953288  0  0  0.143932  0  1.011513  0  0  0.146666  0  1.010287  0  0  0.130347  0.141982  0  1.01243  0
H  H8  1  0.11910752  0.30296972  0.94627132  1  0  0.065256  0  0.939423  0  0  0.083273  0  1.00017  0  0  0.083584  0  1.000336  0  0  0.109583  0.082898  0  1.000364  0
H  H9  1  0.88089141  0.69702755  0.05372754  1  0  0.065254  0  0.939417  0  0  0.083264  0  1.000173  0  0  0.083577  0  1.000343  0  0  0.109575  0.082887  0  1.000365  0
H  H10  1  0.06730840  0.29577067  0.06786775  1  0  0.082073  0  0.957038  0  0  0.09685  0  1.022686  0  0  0.098074  0  1.021731  0  0  0.11051  0.09579  0  1.023783  0
H  H11  1  0.93269237  0.70422877  0.93213066  1  0  0.082042  0  0.957058  0  0  0.096813  0  1.022727  0  0  0.098042  0  1.021774  0  0  0.110484  0.095751  0  1.023822  0
H  H12  1  0.82921201  0.42108449  0.02916679  1  0  0.079757  0  0.935129  0  0  0.09652  0  0.996848  0  0  0.09794  0  0.996259  0  0  0.094474  0.095139  0  0.997697  0
H  H13  1  0.17078908  0.57891605  0.97083099  1  0  0.079767  0  0.935123  0  0  0.096518  0  0.996836  0  0  0.097938  0  0.996248  0  0  0.094459  0.095138  0  0.997684  0
H  H14  1  0.87536782  0.43071648  0.90601587  1  0  0.082138  0  0.931729  0  0  0.100716  0  0.987229  0  0  0.102094  0  0.987212  0  0  0.094334  0.099449  0  0.987717  0
H  H15  1  0.12463389  0.56928185  0.09398180  1  0  0.082223  0  0.931676  0  0  0.100775  0  0.987184  0  0  0.102149  0  0.987173  0  0  0.094358  0.099509  0  0.987671  0
H  H16  1  0.43063903  0.54903384  0.66554379  1  0  0.099053  0  0.946431  0  0  0.108883  0  1.010049  0  0  0.111015  0  1.007647  0  0  0.141076  0.107279  0  1.011785  0
H  H17  1  0.56936360  0.45096773  0.33445636  1  0  0.099044  0  0.946423  0  0  0.108874  0  1.010046  0  0  0.111008  0  1.007644  0  0  0.141067  0.10727  0  1.011781  0
H  H18  1  0.71619226  0.91239801  0.55854983  1  0  0.124038  0  0.940265  0  0  0.133612  0  0.996467  0  0  0.136791  0  0.994264  0  0  0.125908  0.131305  0  0.998098  0
H  H19  1  0.28380789  0.08760360  0.44145088  1  0  0.124033  0  0.940312  0  0  0.13361  0  0.996507  0  0  0.136789  0  0.994305  0  0  0.125907  0.131304  0  0.998139  0
H  H20  1  0.44093493  0.77631222  0.41329485  1  0  0.119529  0  0.966145  0  0  0.128967  0  1.029049  0  0  0.131518  0  1.028013  0  0  0.127407  0.127176  0  1.029711  0
H  H21  1  0.55906678  0.22368608  0.58670501  1  0  0.119571  0  0.966113  0  0  0.128966  0  1.029059  0  0  0.131517  0  1.028023  0  0  0.127418  0.127174  0  1.02972  0
H  H22  1  0.25268849  0.41896898  0.49013299  1  0  0.075648  0  0.937752  0  0  0.089896  0  1.002517  0  0  0.08985  0  1.004039  0  0  0.111181  0.089801  0  1.001556  0
H  H23  1  0.74731352  0.58103041  0.50986696  1  0  0.075668  0  0.937768  0  0  0.089916  0  1.002508  0  0  0.089869  0  1.004031  0  0  0.111191  0.08982  0  1.001546  0
H  H24  1  0.22487776  0.53576016  0.39859177  1  0  0.092497  0  0.897324  0  0  0.111948  0  0.950449  0  0  0.112901  0  0.94992  0  0  0.121545  0.111117  0  0.951035  0
H  H25  1  0.77512673  0.46423918  0.60140761  1  0  0.092479  0  0.897403  0  0  0.111937  0  0.950506  0  0  0.112889  0  0.949978  0  0  0.121566  0.111106  0  0.951091  0
H  H26  1  0.05707964  0.66676982  0.50454491  1  0  0.081149  0  0.911947  0  0  0.104254  0  0.959932  0  0  0.10471  0  0.960954  0  0  0.100944  0.103698  0  0.959533  0
H  H27  1  0.94292392  0.33323067  0.49545303  1  0  0.081145  0  0.911919  0  0  0.104252  0  0.959912  0  0  0.104707  0  0.960938  0  0  0.100952  0.103704  0  0.9595  0
H  H28  1  0.09957546  0.56444820  0.60251359  1  0  0.084297  0  0.922237  0  0  0.104461  0  0.975858  0  0  0.105174  0  0.976516  0  0  0.100771  0.103769  0  0.97567  0
H  H29  1  0.90042656  0.43555121  0.39748491  1  0  0.084279  0  0.92226  0  0  0.104459  0  0.975862  0  0  0.105171  0  0.976523  0  0  0.100758  0.103739  0  0.975708  0
H  H30  1  0.32018145  0.82889469  0.76984912  1  0  0.108106  0  0.943311  0  0  0.121627  0  1.007056  0  0  0.124451  0  1.005237  0  0  0.094235  0.119488  0  1.008667  0
H  H31  1  0.67981870  0.17110695  0.23015013  1  0  0.108104  0  0.943293  0  0  0.121649  0  1.007017  0  0  0.124465  0  1.005206  0  0  0.094227  0.119508  0  1.008631  0
H  H32  1  0.26940809  0.81104595  0.64091261  1  0  0.084933  0  0.972584  0  0  0.098186  0  1.040225  0  0  0.099367  0  1.041617  0  0  0.092022  0.097373  0  1.039294  0
H  H33  1  0.73058927  0.18895462  0.35908857  1  0  0.084957  0  0.972543  0  0  0.098219  0  1.040191  0  0  0.0994  0  1.04158  0  0  0.092027  0.097404  0  1.039261  0
H  H34  1  0.49123179  0.02755643  0.68455981  1  0  0.049997  0  0.947022  0  0  0.068631  0  1.010277  0  0  0.069027  0  1.011361  0  0  0.080166  0.068351  0  1.009491  0
H  H35  1  0.50876403  0.97244311  0.31543900  1  0  0.049959  0  0.947073  0  0  0.06862  0  1.010316  0  0  0.069013  0  1.011404  0  0  0.080175  0.068342  0  1.009525  0
H  H36  1  0.29725838  0.07896501  0.64301998  1  0  0.057364  0  0.946402  0  0  0.075692  0  1.008755  0  0  0.076931  0  1.008252  0  0  0.082924  0.0748  0  1.009234  0
H  H37  1  0.70273868  0.92103449  0.35697964  1  0  0.05739  0  0.94638  0  0  0.075728  0  1.008727  0  0  0.076966  0  1.008225  0  0  0.082942  0.074827  0  1.009215  0
H  H38  1  0.46607117  0.10248007  0.85814599  1  0  0.059885  0  0.952664  0  0  0.082196  0  1.008708  0  0  0.082134  0  1.011185  0  0  0.084613  0.082122  0  1.007122  0
H  H39  1  0.53392713  0.89751941  0.14185299  1  0  0.05984  0  0.95267  0  0  0.082156  0  1.008718  0  0  0.082095  0  1.011194  0  0  0.084607  0.082083  0  1.007133  0
H  H40  1  0.25878145  0.13147636  0.82472015  1  0  0.052092  0  0.952901  0  0  0.070316  0  1.017753  0  0  0.070263  0  1.019072  0  0  0.082311  0.07022  0  1.01707  0
H  H41  1  0.74121839  0.86852417  0.17527974  1  0  0.052031  0  0.952924  0  0  0.07026  0  1.017786  0  0  0.070206  0  1.019105  0  0  0.082273  0.070164  0  1.017101  0
H  H42  1  0.37968705  0.32471604  0.72168706  1  0  0.041177  0  0.939786  0  0  0.062124  0  1.000284  0  0  0.062625  0  1.000631  0  0  0.079269  0.061605  0  1.000321  0
H  H43  1  0.62031309  0.67528558  0.27831292  1  0  0.041184  0  0.939745  0  0  0.062113  0  1.000269  0  0  0.06262  0  1.000607  0  0  0.079266  0.061593  0  1.000305  0
H  H44  1  0.58823075  0.30472995  0.76389814  1  0  0.056226  0  0.938535  0  0  0.073777  0  1.00198  0  0  0.075451  0  1.000859  0  0  0.083448  0.072577  0  1.002777  0
H  H45  1  0.41176939  0.69527164  0.23610403  1  0  0.056247  0  0.938568  0  0  0.073801  0  1.001997  0  0  0.075475  0  1.000877  0  0  0.083469  0.072603  0  1.002794  0
H  H46  1  0.55296523  0.38061045  0.93819204  1  0  0.10708  0  0.940906  0  0  0.121476  0  1.003064  0  0  0.123501  0  1.003074  0  0  0.099379  0.120164  0  1.002928  0
H  H47  1  0.44703273  0.61939230  0.06180933  1  0  0.10711  0  0.940864  0  0  0.121479  0  1.003048  0  0  0.12351  0  1.003063  0  0  0.09939  0.120167  0  1.002915  0
H  H48  1  0.34171364  0.39732154  0.89955013  1  0  0.084357  0  0.955939  0  0  0.101058  0  1.014994  0  0  0.102742  0  1.014516  0  0  0.090172  0.099759  0  1.015625  0
H  H49  1  0.65828311  0.60267685  0.10045086  1  0  0.084347  0  0.955874  0  0  0.101028  0  1.014966  0  0  0.102719  0  1.014491  0  0  0.090167  0.099737  0  1.015589  0
C  C50  1  0.89196896  0.07263340  0.87259932  1  0  0.152243  0  3.663987  0  0  0.089471  0  3.924586  0  0  0.103147  0  3.937868  0  0  0.139768  0.080905  0  3.914909  0
C  C51  1  0.10802964  0.92736716  0.12740048  1  0  0.152173  0  3.66403  0  0  0.089401  0  3.924637  0  0  0.103077  0  3.937917  0  0  0.139734  0.080837  0  3.914959  0
C  C52  1  0.69488786  0.95992861  0.95204556  1  0  -0.012067  0  3.748694  0  0  -0.047339  0  4.019489  0  0  -0.045657  0  4.039342  0  0  -0.005115  -0.048304  0  4.005959  0
C  C53  1  0.30511043  0.04007085  0.04795488  1  0  -0.012152  0  3.748686  0  0  -0.047437  0  4.019508  0  0  -0.045752  0  4.039357  0  0  -0.005162  -0.048403  0  4.00598  0
C  C54  1  0.77004167  0.09001876  0.00857212  1  0  -0.058175  0  3.641133  0  0  -0.1003  0  3.901967  0  0  -0.099252  0  3.921282  0  0  0.006225  -0.100841  0  3.88863  0
C  C55  1  0.22995786  0.90998068  0.99142840  1  0  -0.058159  0  3.641144  0  0  -0.100279  0  3.901974  0  0  -0.099229  0  3.921288  0  0  0.006238  -0.100822  0  3.88864  0
C  C56  1  0.01394956  0.29797904  0.99084570  1  0  0.007257  0  3.63083  0  0  -0.057172  0  3.889496  0  0  -0.053075  0  3.901428  0  0  -0.050671  -0.059704  0  3.881623  0
C  C57  1  0.98605122  0.70202040  0.00915271  1  0  0.007322  0  3.630813  0  0  -0.057114  0  3.889478  0  0  -0.053041  0  3.901446  0  0  -0.050634  -0.05964  0  3.881599  0
C  C58  1  0.93298907  0.42963257  0.98285154  1  0  -0.125138  0  3.661128  0  0  -0.163254  0  3.91754  0  0  -0.165368  0  3.93165  0  0  -0.161632  -0.161808  0  3.908489  0
C  C59  1  0.06701108  0.57036907  0.01714698  1  0  -0.125281  0  3.661182  0  0  -0.163336  0  3.917578  0  0  -0.165445  0  3.931696  0  0  -0.161635  -0.161892  0  3.908529  0
C  C60  1  0.47220420  0.63019555  0.61749219  1  0  0.16656  0  3.655757  0  0  0.100653  0  3.92892  0  0  0.114497  0  3.941381  0  0  0.148759  0.091919  0  3.920022  0
C  C61  1  0.52779812  0.36980493  0.38250786  1  0  0.166603  0  3.65572  0  0  0.100692  0  3.928887  0  0  0.114534  0  3.94135  0  0  0.148789  0.091959  0  3.919988  0
C  C62  1  0.61388169  0.81826796  0.55880582  1  0  0.001128  0  3.742897  0  0  -0.034142  0  4.010672  0  0  -0.032036  0  4.029732  0  0  0.004909  -0.035619  0  3.997832  0
C  C63  1  0.38611969  0.18173363  0.44119498  1  0  0.001138  0  3.743044  0  0  -0.034133  0  4.010805  0  0  -0.032028  0  4.029865  0  0  0.004874  -0.035612  0  3.997967  0
C  C64  1  0.48004248  0.75147665  0.48695792  1  0  -0.075632  0  3.679375  0  0  -0.117975  0  3.943172  0  0  -0.117385  0  3.963166  0  0  0.003457  -0.11845  0  3.929466  0
C  C65  1  0.51995954  0.24852275  0.51304130  1  0  -0.075688  0  3.679559  0  0  -0.117988  0  3.94336  0  0  -0.117398  0  3.963356  0  0  0.003452  -0.118463  0  3.929657  0
C  C66  1  0.23639600  0.52945081  0.47868035  1  0  0.003359  0  3.619005  0  0  -0.061822  0  3.884288  0  0  -0.057304  0  3.894966  0  0  -0.047908  -0.064688  0  3.876895  0
C  C67  1  0.76360849  0.47054853  0.52131903  1  0  0.00328  0  3.61897  0  0  -0.061873  0  3.884212  0  0  -0.05735  0  3.894884  0  0  -0.047963  -0.064738  0  3.876814  0
C  C68  1  0.07844609  0.55925583  0.52118554  1  0  -0.127853  0  3.679333  0  0  -0.167862  0  3.940491  0  0  -0.169414  0  3.954215  0  0  -0.158683  -0.166636  0  3.931003  0
C  C69  1  0.92155995  0.44074459  0.47881330  1  0  -0.127842  0  3.679197  0  0  -0.167881  0  3.940368  0  0  -0.169434  0  3.95409  0  0  -0.158713  -0.166641  0  3.930884  0
C  C70  1  0.07423669  0.86982110  0.71491199  1  0  0.677388  0  3.875524  0  0  0.635366  0  4.174414  0  0  0.667675  0  4.16885  0  0  0.192068  0.613354  0  4.177278  0
C  C71  1  0.92576316  0.13017501  0.28509050  1  0  0.677373  0  3.875476  0  0  0.635359  0  4.174373  0  0  0.667669  0  4.168809  0  0  0.192127  0.613349  0  4.177235  0
C  C72  1  0.26373866  0.88027551  0.70912741  1  0  -0.269632  0  3.681327  0  0  -0.306313  0  3.932661  0  0  -0.312798  0  3.942454  0  0  -0.174008  -0.301617  0  3.925588  0
C  C73  1  0.73625994  0.11972504  0.29087312  1  0  -0.269605  0  3.681238  0  0  -0.306318  0  3.932594  0  0  -0.312796  0  3.942382  0  0  -0.17398  -0.301623  0  3.925518  0
C  C74  1  0.36385518  0.03409756  0.70378554  1  0  -0.081446  0  3.715144  0  0  -0.122374  0  3.974648  0  0  -0.122863  0  3.989639  0  0  -0.171609  -0.121792  0  3.963968  0
C  C75  1  0.63614218  0.96590303  0.29621418  1  0  -0.081466  0  3.715217  0  0  -0.122428  0  3.974758  0  0  -0.122915  0  3.989742  0  0  -0.171653  -0.121842  0  3.96408  0
C  C76  1  0.38423383  0.13771461  0.79909972  1  0  -0.108583  0  3.683748  0  0  -0.143365  0  3.936816  0  0  -0.144889  0  3.952921  0  0  -0.170926  -0.142188  0  3.925697  0
C  C77  1  0.61576477  0.86228595  0.20090008  1  0  -0.108454  0  3.683688  0  0  -0.143253  0  3.936798  0  0  -0.144777  0  3.952903  0  0  -0.170887  -0.142077  0  3.925679  0
C  C78  1  0.45898546  0.29511754  0.78481802  1  0  -0.073695  0  3.713192  0  0  -0.115505  0  3.97718  0  0  -0.115506  0  3.991332  0  0  -0.166328  -0.115178  0  3.967135  0
C  C79  1  0.54101314  0.70488302  0.21518178  1  0  -0.073757  0  3.71321  0  0  -0.11555  0  3.977188  0  0  -0.115545  0  3.991349  0  0  -0.166364  -0.115223  0  3.967148  0
C  C80  1  0.46824904  0.40496550  0.87586811  1  0  -0.268433  0  3.679228  0  0  -0.306147  0  3.930862  0  0  -0.312321  0  3.940641  0  0  -0.1724  -0.301789  0  3.923788  0
C  C81  1  0.53174708  0.59503512  0.12413153  1  0  -0.268421  0  3.679203  0  0  -0.306102  0  3.930822  0  0  -0.312311  0  3.940643  0  0  -0.172388  -0.301752  0  3.923747  0
C  C82  1  0.53294615  0.56127736  0.85598709  1  0  0.679702  0  3.873514  0  0  0.635721  0  4.175076  0  0  0.667762  0  4.169368  0  0  0.195251  0.613929  0  4.178335  0
C  C83  1  0.46705121  0.43872322  0.14401336  1  0  0.67956  0  3.873892  0  0  0.635591  0  4.175444  0  0  0.667641  0  4.16974  0  0  0.195135  0.613799  0  4.178703  0
N  N84  1  0.77244033  0.95032008  0.86728716  1  0  -0.389287  0  3.325045  0  0  -0.305564  0  3.627105  0  0  -0.325814  0  3.638785  0  0  -0.363395  -0.291738  0  3.618666  0
N  N85  1  0.22755673  0.04967941  0.13271319  1  0  -0.389178  0  3.324981  0  0  -0.305447  0  3.62703  0  0  -0.325698  0  3.638714  0  0  -0.363323  -0.291622  0  3.618594  0
N  N86  1  0.89462951  0.15906114  0.95740103  1  0  -0.050279  0  3.574092  0  0  0.044431  0  3.792954  0  0  0.029772  0  3.820294  0  0  -0.238231  0.054143  0  3.773878  0
N  N87  1  0.10537157  0.84093936  0.04259966  1  0  -0.050286  0  3.574075  0  0  0.044426  0  3.792942  0  0  0.029774  0  3.820285  0  0  -0.238245  0.054138  0  3.773865  0
N  N88  1  0.60649144  0.74142537  0.63981311  1  0  -0.374717  0  3.325603  0  0  -0.294396  0  3.62981  0  0  -0.313742  0  3.641336  0  0  -0.35462  -0.281362  0  3.621903  0
N  N89  1  0.39350964  0.25857514  0.36018685  1  0  -0.374794  0  3.325644  0  0  -0.294468  0  3.629856  0  0  -0.313816  0  3.641387  0  0  -0.354635  -0.281434  0  3.621954  0
N  N90  1  0.39265664  0.63213993  0.52515942  1  0  -0.070728  0  3.593905  0  0  0.021832  0  3.819438  0  0  0.007361  0  3.845798  0  0  -0.24668  0.031386  0  3.801224  0
N  N91  1  0.60734538  0.36785946  0.47484053  1  0  -0.070658  0  3.593966  0  0  0.021897  0  3.819479  0  0  0.007426  0  3.845839  0  0  -0.246636  0.031453  0  3.801261  0
O  O92  1  0.00044764  0.76073918  0.75725587  1  0  -0.667485  0  1.981999  0  0  -0.597711  0  2.247643  0  0  -0.62544  0  2.232532  0  0  -0.352694  -0.578203  0  2.257514  0
O  O93  1  0.99955346  0.23925693  0.24274452  1  0  -0.667442  0  1.981935  0  0  -0.597716  0  2.247618  0  0  -0.625447  0  2.232509  0  0  -0.35271  -0.578208  0  2.257487  0
O  O94  1  0.99750270  0.96071074  0.67938667  1  0  -0.646435  0  1.870248  0  0  -0.599272  0  2.082226  0  0  -0.621238  0  2.071925  0  0  -0.347994  -0.583846  0  2.08891  0
O  O95  1  0.00249652  0.03928755  0.32061739  1  0  -0.646442  0  1.870271  0  0  -0.599271  0  2.082246  0  0  -0.621236  0  2.071946  0  0  -0.348027  -0.583843  0  2.088927  0
O  O96  1  0.44914549  0.65691483  0.87247305  1  0  -0.638645  0  1.889174  0  0  -0.595778  0  2.114025  0  0  -0.617061  0  2.104605  0  0  -0.335853  -0.581061  0  2.120254  0
O  O97  1  0.55084939  0.34308580  0.12752796  1  0  -0.638611  0  1.889525  0  0  -0.595738  0  2.114364  0  0  -0.61703  0  2.104956  0  0  -0.335817  -0.581023  0  2.120595  0
O  O98  1  0.67639395  0.58284746  0.81897552  1  0  -0.675511  0  2.02795  0  0  -0.59809  0  2.299667  0  0  -0.626481  0  2.284398  0  0  -0.346982  -0.578552  0  2.309821  0
O  O99  1  0.32360432  0.41715638  0.18102595  1  0  -0.675417  0  2.027912  0  0  -0.598012  0  2.299619  0  0  -0.626402  0  2.284344  0  0  -0.34692  -0.578476  0  2.309776  0
