# generated using pymatgen
data_K2CuH8(CO3)4
_symmetry_space_group_name_H-M   'P 1'
_cell_length_a   3.84364980
_cell_length_b   10.84313170
_cell_length_c   14.41393789
_cell_angle_alpha   89.99980848
_cell_angle_beta   89.99949302
_cell_angle_gamma   93.64268753
_symmetry_Int_Tables_number   1
_chemical_formula_structural   K2CuH8(CO3)4
_chemical_formula_sum   'K4 Cu2 H16 C8 O24'
_cell_volume   599.51890899
_cell_formula_units_Z   2
loop_
 _symmetry_equiv_pos_site_id
 _symmetry_equiv_pos_as_xyz
  1  'x, y, z'
loop_
 _atom_site_type_symbol
 _atom_site_label
 _atom_site_symmetry_multiplicity
 _atom_site_fract_x
 _atom_site_fract_y
 _atom_site_fract_z
 _atom_site_occupancy
 _atom_site_hle17_ddec_charge
 _atom_site_hle17_ddec_spin_density
 _atom_site_hle17_ddec_sum_bond_order
 _atom_site_hle17_magmom
 _atom_site_hse06_10hf_ddec_charge
 _atom_site_hse06_10hf_ddec_spin_density
 _atom_site_hse06_10hf_ddec_sum_bond_order
 _atom_site_hse06_10hf_magmom
 _atom_site_hse06_ddec_charge
 _atom_site_hse06_ddec_spin_density
 _atom_site_hse06_ddec_sum_bond_order
 _atom_site_hse06_magmom
 _atom_site_pbe_cm5_charge
 _atom_site_pbe_ddec_charge
 _atom_site_pbe_ddec_spin_density
 _atom_site_pbe_ddec_sum_bond_order
 _atom_site_pbe_magmom
K  K0  1  0.20543269  0.49238435  0.64063189  1  0.916751  -6.1e-05  0.464924  0.0  0.869024  5.3e-05  0.650913  0.0  0.883374  -6.3e-05  0.6268  0.0  0.759139  0.858156  0.000253  0.668216  0.0
K  K1  1  0.29460722  0.00762314  0.14061841  1  0.91677  -6.4e-05  0.464938  0.0  0.868977  5e-05  0.651  0.0  0.883346  -6.1e-05  0.626846  0.0  0.759135  0.858117  0.000258  0.668308  0.0
K  K2  1  0.79457065  0.50759882  0.35937703  1  0.91679  -2.2e-05  0.464891  0.0  0.869023  5.7e-05  0.650929  0.0  0.883393  -6.9e-05  0.626779  0.0  0.759134  0.85816  0.000257  0.668229  0.0
K  K3  1  0.70544304  0.99239150  0.85937526  1  0.916779  1.9e-05  0.464859  0.0  0.869044  6.5e-05  0.650851  0.0  0.883391  -7.4e-05  0.626726  0.0  0.759097  0.85818  0.000252  0.668157  0.0
Cu  Cu4  1  0.50000168  0.99999870  0.49999556  1  0.954844  0.680879  1.667373  0.506  0.939326  0.777247  2.064707  0.628  1.040434  0.842021  1.987341  0.717  0.702228  0.870493  0.731127  2.125576  0.57
Cu  Cu5  1  0.99998534  0.49999264  0.00000312  1  0.954841  0.680909  1.667401  0.506  0.939282  0.777278  2.064746  0.628  1.040413  0.842033  1.987351  0.717  0.702221  0.870431  0.731124  2.125707  0.571
H  H6  1  0.71210783  0.74461770  0.62725368  1  0.419583  0.000264  0.880819  0.0  0.392238  0.00034  0.939009  0.0  0.403377  0.000222  0.922576  0.0  0.295136  0.384323  0.000461  0.950721  0.0
H  H7  1  0.78789514  0.75538590  0.12724380  1  0.419585  0.000267  0.880858  0.0  0.392245  0.00034  0.939026  0.0  0.403385  0.000223  0.922593  0.0  0.295113  0.384332  0.000462  0.950735  0.0
H  H8  1  0.28789632  0.25538579  0.37275455  1  0.419596  0.000265  0.880829  0.0  0.392234  0.00034  0.939047  0.0  0.403379  0.000222  0.922605  0.0  0.295097  0.384321  0.000461  0.950757  0.0
H  H9  1  0.21211911  0.24461576  0.87274778  1  0.419587  0.000266  0.880832  0.0  0.392229  0.00034  0.939043  0.0  0.40337  0.000223  0.922609  0.0  0.295147  0.384314  0.000462  0.950755  0.0
H  H10  1  0.72099381  0.70627214  0.73374786  1  0.417742  -0.000104  0.887663  0.0  0.390218  -4.7e-05  0.946095  0.0  0.400561  -4.7e-05  0.930948  0.0  0.296322  0.382867  -3.2e-05  0.956844  0.0
H  H11  1  0.77900593  0.79373363  0.23373583  1  0.417707  -0.000104  0.887705  0.0  0.390218  -4.7e-05  0.94609  0.0  0.400544  -4.7e-05  0.930963  0.0  0.296298  0.382889  -3.2e-05  0.956827  0.0
H  H12  1  0.27899796  0.29373503  0.26626245  1  0.417701  -0.000104  0.887721  0.0  0.390217  -4.6e-05  0.946097  0.0  0.400542  -4.7e-05  0.930969  0.0  0.29628  0.382885  -3.2e-05  0.956837  0.0
H  H13  1  0.22101368  0.20626896  0.76625437  1  0.417825  -0.000105  0.887537  0.0  0.390296  -4.6e-05  0.945979  0.0  0.400642  -4.7e-05  0.930826  0.0  0.296371  0.38295  -3.2e-05  0.956722  0.0
H  H14  1  0.62312693  0.34180179  0.78968939  1  0.412521  -4.6e-05  0.889332  0.0  0.387424  -3.2e-05  0.945211  0.0  0.397307  -2.7e-05  0.930705  0.0  0.288268  0.380369  -3.4e-05  0.955577  0.0
H  H15  1  0.87689202  0.15820703  0.28969271  1  0.412536  -4.6e-05  0.889338  0.0  0.387424  -3.2e-05  0.945249  0.0  0.397311  -2.7e-05  0.930737  0.0  0.288209  0.380365  -3.4e-05  0.955621  0.0
H  H16  1  0.37689684  0.65821005  0.21030566  1  0.4125  -4.7e-05  0.889349  0.0  0.387386  -3.2e-05  0.945263  0.0  0.397272  -2.8e-05  0.930752  0.0  0.288179  0.380327  -3.3e-05  0.955637  0.0
H  H17  1  0.12313083  0.84179926  0.71031067  1  0.412497  -4.7e-05  0.889355  0.0  0.387392  -3.2e-05  0.945264  0.0  0.397276  -2.8e-05  0.930757  0.0  0.288224  0.380331  -3.4e-05  0.955641  0.0
H  H18  1  0.58886892  0.47664657  0.82102769  1  0.405789  0.000132  0.902731  0.0  0.377336  0.000164  0.965264  0.0  0.387709  5.3e-05  0.949529  0.0  0.282352  0.369974  0.000291  0.976438  0.0
H  H19  1  0.91114572  0.02335837  0.32103055  1  0.405865  0.000134  0.902615  0.0  0.377406  0.000164  0.965167  0.0  0.387781  5.3e-05  0.949425  0.0  0.28238  0.370046  0.00029  0.976336  0.0
H  H20  1  0.41114123  0.52336155  0.17896875  1  0.405811  0.000133  0.902699  0.0  0.377358  0.000164  0.965238  0.0  0.38773  5.3e-05  0.949503  0.0  0.282377  0.369997  0.000291  0.976408  0.0
H  H21  1  0.08887114  0.97664329  0.67896866  1  0.405783  0.000133  0.902735  0.0  0.37733  0.000164  0.965273  0.0  0.387703  5.3e-05  0.949536  0.0  0.282353  0.36997  0.00029  0.976443  0.0
C  C22  1  0.32438931  0.75208447  0.47578268  1  0.549536  -0.009108  3.910342  -0.007  0.507664  -0.003092  4.212002  -0.002  0.538926  -0.002606  4.206843  -0.002  0.21238  0.486198  -0.003349  4.21488  -0.003
C  C23  1  0.17557625  0.74790296  0.97578570  1  0.549601  -0.009109  3.909908  -0.007  0.507677  -0.003091  4.21172  -0.002  0.538925  -0.002606  4.206593  -0.002  0.212448  0.486214  -0.003349  4.214593  -0.003
C  C24  1  0.67560397  0.24791624  0.52421445  1  0.549832  -0.009106  3.909953  -0.007  0.507886  -0.00309  4.211728  -0.002  0.539149  -0.002603  4.20656  -0.002  0.212433  0.486401  -0.003349  4.21464  -0.003
C  C25  1  0.82438992  0.25209124  0.02421906  1  0.549784  -0.009106  3.909913  -0.007  0.507772  -0.003091  4.211789  -0.002  0.539044  -0.002605  4.206621  -0.002  0.212414  0.486281  -0.003349  4.214691  -0.003
C  C26  1  0.12316784  0.82211939  0.40130006  1  0.540827  -0.009298  3.898847  -0.007  0.495946  -0.003503  4.20208  -0.003  0.527883  -0.002967  4.196437  -0.002  0.215021  0.474022  -0.003834  4.205121  -0.003
C  C27  1  0.37679219  0.67786659  0.90129932  1  0.540918  -0.009296  3.898351  -0.007  0.49595  -0.003503  4.201755  -0.003  0.527888  -0.002967  4.19612  -0.002  0.215168  0.474021  -0.003831  4.204791  -0.003
C  C28  1  0.87682726  0.17787670  0.59869776  1  0.540738  -0.009293  3.899074  -0.007  0.495863  -0.003503  4.202347  -0.003  0.527797  -0.002966  4.196714  -0.002  0.215043  0.47394  -0.003833  4.205384  -0.003
C  C29  1  0.62318116  0.32212392  0.09869990  1  0.540674  -0.009295  3.898595  -0.007  0.495856  -0.003504  4.201799  -0.003  0.527779  -0.002966  4.196161  -0.002  0.215063  0.473943  -0.003832  4.204835  -0.003
O  O30  1  0.51324874  0.82332661  0.53106221  1  -0.590695  0.073338  2.100366  0.103  -0.548335  0.051137  2.368336  0.078  -0.591694  0.03929  2.359765  0.065  -0.307492  -0.519264  0.05782  2.375198  0.083
O  O31  1  0.98673381  0.67665994  0.03106939  1  -0.590893  0.073337  2.10065  0.103  -0.548447  0.051133  2.368554  0.078  -0.59182  0.039286  2.360018  0.065  -0.307499  -0.519353  0.057816  2.375401  0.083
O  O32  1  0.48675328  0.17667965  0.46893146  1  -0.590876  0.07332  2.100352  0.103  -0.548449  0.051126  2.368288  0.078  -0.591811  0.039281  2.359721  0.065  -0.307519  -0.519374  0.057808  2.375164  0.083
O  O33  1  0.01322867  0.32332779  0.96892913  1  -0.59081  0.073324  2.10034  0.103  -0.548371  0.051126  2.368298  0.078  -0.591736  0.039283  2.359733  0.065  -0.307479  -0.519286  0.05781  2.375194  0.083
O  O34  1  0.29686600  0.63750676  0.47949522  1  -0.612757  0.017837  1.978732  0.024  -0.577918  0.009257  2.20994  0.014  -0.600257  0.00437  2.20189  0.007  -0.393114  -0.561629  0.014179  2.214629  0.019
O  O35  1  0.20312238  0.86247791  0.97950971  1  -0.612759  0.017838  1.978461  0.024  -0.577911  0.009255  2.209717  0.014  -0.600231  0.00437  2.201644  0.007  -0.393204  -0.561648  0.01418  2.214467  0.019
O  O36  1  0.70314534  0.36249305  0.52050677  1  -0.612894  0.017834  1.978615  0.024  -0.578021  0.009256  2.209852  0.014  -0.60037  0.004368  2.201818  0.007  -0.393204  -0.561725  0.014178  2.214552  0.019
O  O37  1  0.79686612  0.13750985  0.02050407  1  -0.612862  0.017827  1.978432  0.024  -0.577941  0.009252  2.20963  0.014  -0.600269  0.004366  2.201546  0.007  -0.393179  -0.561664  0.014174  2.214378  0.019
O  O38  1  0.16327719  0.94157005  0.40587115  1  -0.609584  0.069413  2.157846  0.099  -0.577963  0.047852  2.452901  0.074  -0.621272  0.036358  2.440248  0.062  -0.311857  -0.548465  0.054615  2.462413  0.08
O  O39  1  0.33672463  0.55841781  0.90587285  1  -0.609471  0.069405  2.157665  0.099  -0.577809  0.047848  2.452711  0.074  -0.621114  0.036352  2.440054  0.062  -0.311823  -0.548313  0.054616  2.462252  0.08
O  O40  1  0.83672359  0.05842881  0.59412182  1  -0.609574  0.069399  2.157962  0.099  -0.57795  0.047844  2.453014  0.074  -0.621256  0.036352  2.440358  0.062  -0.311885  -0.548456  0.05461  2.462523  0.08
O  O41  1  0.66325975  0.44157642  0.09412914  1  -0.609482  0.069411  2.157641  0.099  -0.577854  0.047852  2.452654  0.074  -0.621158  0.036358  2.440005  0.062  -0.311858  -0.54836  0.054618  2.462198  0.08
O  O42  1  0.93574082  0.76370223  0.34406292  1  -0.55417  0.015547  2.030305  0.021  -0.502535  0.008327  2.247763  0.012  -0.52712  0.004035  2.240927  0.007  -0.317971  -0.484935  0.012664  2.25186  0.018
O  O43  1  0.56419612  0.73629268  0.84406762  1  -0.5543  0.015539  2.030306  0.021  -0.502647  0.008323  2.247875  0.012  -0.527228  0.004037  2.241025  0.007  -0.318145  -0.485043  0.012663  2.251956  0.018
O  O44  1  0.06423378  0.23629568  0.65593421  1  -0.554135  0.015541  2.030541  0.021  -0.502511  0.008325  2.248074  0.012  -0.527077  0.004035  2.241197  0.007  -0.318  -0.48491  0.012663  2.252149  0.018
O  O45  1  0.43575001  0.26370611  0.15593784  1  -0.554177  0.01554  2.030231  0.021  -0.502541  0.008324  2.247627  0.012  -0.527147  0.004034  2.240848  0.007  -0.318051  -0.48494  0.012662  2.251721  0.018
O  O46  1  0.84413851  0.69936802  0.67374470  1  -0.879603  0.000881  1.796725  0.001  -0.827718  0.00059  1.949332  0.001  -0.847129  0.000328  1.917888  0.001  -0.655448  -0.81393  0.000801  1.971477  0.001
O  O47  1  0.65585151  0.80062976  0.17373293  1  -0.879513  0.000879  1.796798  0.001  -0.827649  0.00059  1.949356  0.001  -0.847048  0.000327  1.917951  0.001  -0.655356  -0.813882  0.000803  1.971429  0.001
O  O48  1  0.15585769  0.30063454  0.32626701  1  -0.879576  0.00088  1.796836  0.001  -0.827715  0.00059  1.949397  0.001  -0.847109  0.000328  1.917992  0.001  -0.655375  -0.81395  0.000802  1.971476  0.001
O  O49  1  0.34416275  0.19937190  0.82625727  1  -0.879661  0.000879  1.79664  0.001  -0.827784  0.00059  1.949252  0.001  -0.847201  0.000328  1.917808  0.001  -0.655509  -0.813997  0.000801  1.971392  0.001
O  O50  1  0.69561645  0.42768408  0.77230187  1  -0.893368  0.000749  1.802405  0.001  -0.855039  0.00033  1.966731  0.001  -0.87189  5.4e-05  1.936244  0.0  -0.713816  -0.842924  0.000607  1.988228  0.001
O  O51  1  0.80441075  0.07232392  0.27229654  1  -0.893444  0.000747  1.802231  0.001  -0.855099  0.000331  1.966536  0.001  -0.871952  5.3e-05  1.936044  0.0  -0.713768  -0.842973  0.000607  1.988037  0.001
O  O52  1  0.30439598  0.57232219  0.22769804  1  -0.893375  0.000749  1.802303  0.001  -0.855034  0.000331  1.966614  0.001  -0.871888  5.4e-05  1.936126  0.0  -0.71373  -0.84291  0.000608  1.988111  0.001
O  O53  1  0.19561792  0.92768607  0.72769851  1  -0.893332  0.000748  1.802357  0.001  -0.855001  0.00033  1.96663  0.001  -0.871851  5.4e-05  1.936143  0.0  -0.713746  -0.842885  0.000605  1.988131  0.001
