# generated using pymatgen
data_CuH8C14IN2
_symmetry_space_group_name_H-M   'P 1'
_cell_length_a   4.07941407
_cell_length_b   7.63364710
_cell_length_c   19.02319876
_cell_angle_alpha   89.42184056
_cell_angle_beta   88.75175449
_cell_angle_gamma   74.23709948
_symmetry_Int_Tables_number   1
_chemical_formula_structural   CuH8C14IN2
_chemical_formula_sum   'Cu2 H16 C28 I2 N4'
_cell_volume   569.97946234
_cell_formula_units_Z   2
loop_
 _symmetry_equiv_pos_site_id
 _symmetry_equiv_pos_as_xyz
  1  'x, y, z'
loop_
 _atom_site_type_symbol
 _atom_site_label
 _atom_site_symmetry_multiplicity
 _atom_site_fract_x
 _atom_site_fract_y
 _atom_site_fract_z
 _atom_site_occupancy
 _atom_site_hle17_bader_spin_density
 _atom_site_hle17_ddec_charge
 _atom_site_hle17_ddec_spin_density
 _atom_site_hle17_ddec_sum_bond_order
 _atom_site_hle17_magmom
 _atom_site_hse06_10hf_bader_spin_density
 _atom_site_hse06_10hf_ddec_charge
 _atom_site_hse06_10hf_ddec_spin_density
 _atom_site_hse06_10hf_ddec_sum_bond_order
 _atom_site_hse06_10hf_magmom
 _atom_site_hse06_bader_spin_density
 _atom_site_hse06_ddec_charge
 _atom_site_hse06_ddec_spin_density
 _atom_site_hse06_ddec_sum_bond_order
 _atom_site_hse06_magmom
 _atom_site_pbe_bader_spin_density
 _atom_site_pbe_cm5_charge
 _atom_site_pbe_ddec_charge
 _atom_site_pbe_ddec_spin_density
 _atom_site_pbe_ddec_sum_bond_order
 _atom_site_pbe_magmom
Cu  Cu0  1  0.42650602  0.15245775  0.25051734  1  0  0.341203  0  2.135887  0  0  0.244779  0  2.626436  0  0  0.241539  0  2.586021  0  0  0.369496  0.251855  0  2.650436  0
Cu  Cu1  1  0.57350923  0.84755127  0.74948121  1  0  0.341228  0  2.135973  0  0  0.244794  0  2.626541  0  0  0.241487  0  2.586079  0  0  0.369518  0.251868  0  2.650495  0
H  H2  1  0.95998358  0.50566471  0.29019781  1  0  0.081576  0  0.943358  0  0  0.08821  0  1.015399  0  0  0.091952  0  1.011401  0  0  0.107783  0.085326  0  1.018622  0
H  H3  1  0.47237778  0.49155637  0.79012766  1  0  0.080635  0  0.945954  0  0  0.087499  0  1.017757  0  0  0.091238  0  1.013774  0  0  0.107198  0.084617  0  1.020962  0
H  H4  1  0.04004143  0.49432522  0.70980706  1  0  0.081586  0  0.943581  0  0  0.08826  0  1.015577  0  0  0.092001  0  1.011583  0  0  0.107767  0.085377  0  1.018797  0
H  H5  1  0.52760519  0.50845815  0.20986737  1  0  0.080724  0  0.945871  0  0  0.08761  0  1.017636  0  0  0.09135  0  1.013647  0  0  0.107237  0.084725  0  1.020842  0
H  H6  1  0.67029124  0.10096750  0.39538617  1  0  0.079132  0  0.955285  0  0  0.084541  0  1.028299  0  0  0.088088  0  1.025608  0  0  0.104159  0.081955  0  1.030303  0
H  H7  1  0.76968507  0.89697797  0.89372168  1  0  0.078111  0  0.95587  0  0  0.083949  0  1.02859  0  0  0.087416  0  1.025969  0  0  0.103328  0.081426  0  1.030538  0
H  H8  1  0.32971200  0.89901701  0.60461937  1  0  0.079137  0  0.955215  0  0  0.084541  0  1.028222  0  0  0.088092  0  1.025527  0  0  0.104129  0.081956  0  1.030219  0
H  H9  1  0.23031990  0.10302700  0.10627432  1  0  0.078098  0  0.956029  0  0  0.083926  0  1.028734  0  0  0.087394  0  1.026112  0  0  0.103343  0.081384  0  1.030686  0
H  H10  1  0.53368754  0.76096675  0.35612189  1  0  0.096911  0  0.993603  0  0  0.103715  0  1.06339  0  0  0.107579  0  1.061768  0  0  0.08449  0.100633  0  1.064984  0
H  H11  1  0.29964261  0.23827108  0.85712346  1  0  0.096996  0  0.989243  0  0  0.104327  0  1.05853  0  0  0.108159  0  1.056969  0  0  0.085584  0.101215  0  1.060149  0
H  H12  1  0.46631364  0.23902185  0.64388364  1  0  0.096834  0  0.993716  0  0  0.103681  0  1.063469  0  0  0.107542  0  1.061857  0  0  0.084463  0.100603  0  1.065067  0
H  H13  1  0.70033992  0.76173937  0.14287001  1  0  0.096898  0  0.989364  0  0  0.104282  0  1.058588  0  0  0.108144  0  1.056991  0  0  0.085586  0.101173  0  1.060199  0
H  H14  1  0.69883142  0.09990975  0.53075488  1  0  0.094506  0  0.94903  0  0  0.107219  0  1.008804  0  0  0.110066  0  1.008152  0  0  0.10077  0.105138  0  1.00944  0
H  H15  1  0.79448359  0.89930139  0.02904620  1  0  0.094825  0  0.949743  0  0  0.107418  0  1.009647  0  0  0.110128  0  1.009195  0  0  0.101199  0.105421  0  1.010176  0
H  H16  1  0.30116865  0.90007613  0.46925015  1  0  0.094567  0  0.949033  0  0  0.107343  0  1.008733  0  0  0.110191  0  1.008078  0  0  0.100819  0.105263  0  1.00937  0
H  H17  1  0.20551123  0.10070905  0.97094773  1  0  0.094693  0  0.949689  0  0  0.107288  0  1.009586  0  0  0.109998  0  1.009133  0  0  0.101167  0.105292  0  1.010111  0
C  C18  1  0.06056924  0.45070266  0.34089466  1  0  0.078497  0  3.638669  0  0  0.039747  0  3.898833  0  0  0.046978  0  3.909735  0  0  0.038786  0.03445  0  3.892334  0
C  C19  1  0.51454928  0.54744781  0.84060675  1  0  0.07904  0  3.638184  0  0  0.040339  0  3.898409  0  0  0.047617  0  3.909279  0  0  0.038888  0.034958  0  3.892046  0
C  C20  1  0.93945470  0.54928455  0.65911075  1  0  0.078469  0  3.638851  0  0  0.039659  0  3.898985  0  0  0.046886  0  3.909879  0  0  0.03891  0.03437  0  3.892529  0
C  C21  1  0.48542807  0.45256809  0.15938726  1  0  0.078784  0  3.637937  0  0  0.040071  0  3.89819  0  0  0.047342  0  3.909074  0  0  0.038813  0.034696  0  3.891834  0
C  C22  1  0.92242703  0.53853247  0.40338602  1  0  0.022942  0  3.807018  0  0  0.038704  0  4.038223  0  0  0.036132  0  4.06203  0  0  -0.005401  0.04025  0  4.022547  0
C  C23  1  0.46334592  0.46055758  0.90347761  1  0  0.020704  0  3.805504  0  0  0.037257  0  4.036709  0  0  0.034649  0  4.060497  0  0  -0.005263  0.03887  0  4.020948  0
C  C24  1  0.07759544  0.46144794  0.59661995  1  0  0.023082  0  3.807331  0  0  0.03889  0  4.038396  0  0  0.036327  0  4.062194  0  0  -0.005372  0.040383  0  4.022793  0
C  C25  1  0.53663097  0.53945425  0.09651379  1  0  0.020684  0  3.805364  0  0  0.037248  0  4.036372  0  0  0.034636  0  4.060164  0  0  -0.005274  0.038863  0  4.020615  0
C  C26  1  0.06525364  0.45938420  0.46762060  1  0  0.005122  0  3.749696  0  0  0.01188  0  3.968312  0  0  0.012765  0  3.989557  0  0  0.005235  0.011412  0  3.953912  0
C  C27  1  0.52465991  0.54022144  0.96743335  1  0  0.007152  0  3.745239  0  0  0.01229  0  3.965399  0  0  0.01321  0  3.98667  0  0  0.005164  0.011798  0  3.95096  0
C  C28  1  0.93476294  0.54060301  0.53238485  1  0  0.005222  0  3.749574  0  0  0.01212  0  3.968004  0  0  0.013005  0  3.989245  0  0  0.005215  0.01167  0  3.95362  0
C  C29  1  0.47531005  0.45979448  0.03255965  1  0  0.007103  0  3.745269  0  0  0.012612  0  3.965099  0  0  0.013536  0  3.98636  0  0  0.005222  0.012122  0  3.95068  0
C  C30  1  0.34158299  0.29829392  0.46630589  1  0  0.016529  0  3.817358  0  0  0.030847  0  4.052552  0  0  0.029166  0  4.076019  0  0  -0.007617  0.031759  0  4.03687  0
C  C31  1  0.63819031  0.70094946  0.96544729  1  0  0.014952  0  3.817774  0  0  0.031887  0  4.05036  0  0  0.030158  0  4.073774  0  0  -0.007754  0.032837  0  4.034692  0
C  C32  1  0.65842309  0.70169467  0.53369962  1  0  0.016509  0  3.817165  0  0  0.030799  0  4.05233  0  0  0.029119  0  4.075798  0  0  -0.00765  0.031717  0  4.036646  0
C  C33  1  0.36179825  0.29906370  0.03454772  1  0  0.015079  0  3.817895  0  0  0.031825  0  4.050514  0  0  0.030099  0  4.073923  0  0  -0.007836  0.032745  0  4.034882  0
C  C34  1  0.45834548  0.22381841  0.40038426  1  0  0.067265  0  3.658977  0  0  0.030306  0  3.91633  0  0  0.036075  0  3.929047  0  0  0.035707  0.026262  0  3.908448  0
C  C35  1  0.68090786  0.77466073  0.89922946  1  0  0.067778  0  3.658139  0  0  0.029869  0  3.915553  0  0  0.035826  0  3.928221  0  0  0.03569  0.025707  0  3.907717  0
C  C36  1  0.54167286  0.77617016  0.59962118  1  0  0.067332  0  3.659055  0  0  0.030409  0  3.916345  0  0  0.036169  0  3.929065  0  0  0.03589  0.026375  0  3.908462  0
C  C37  1  0.31908455  0.22534970  0.10076659  1  0  0.067629  0  3.658205  0  0  0.029774  0  3.915656  0  0  0.035727  0  3.928322  0  0  0.035625  0.025652  0  3.907849  0
C  C38  1  0.64475379  0.70099954  0.40545343  1  0  -0.08696  0  3.721348  0  0  -0.108706  0  3.972664  0  0  -0.11029  0  3.993154  0  0  -0.084468  -0.107871  0  3.959437  0
C  C39  1  0.34942633  0.29852930  0.90624084  1  0  -0.086651  0  3.720398  0  0  -0.109106  0  3.972205  0  0  -0.110656  0  3.992717  0  0  -0.084579  -0.108278  0  3.958966  0
C  C40  1  0.35525367  0.29898632  0.59455260  1  0  -0.087153  0  3.721775  0  0  -0.108933  0  3.972985  0  0  -0.110524  0  3.993482  0  0  -0.084554  -0.108095  0  3.959784  0
C  C41  1  0.65054959  0.70147979  0.09375531  1  0  -0.086419  0  3.720348  0  0  -0.10898  0  3.972246  0  0  -0.110541  0  3.992716  0  0  -0.084538  -0.108147  0  3.959008  0
C  C42  1  0.48356568  0.22154902  0.53172023  1  0  -0.105151  0  3.738634  0  0  -0.126181  0  3.994411  0  0  -0.129852  0  4.01586  0  0  -0.086694  -0.123794  0  3.980264  0
C  C43  1  0.70173873  0.77807197  0.03056530  1  0  -0.105723  0  3.740505  0  0  -0.127449  0  3.996085  0  0  -0.130948  0  4.017427  0  0  -0.087304  -0.125191  0  3.981999  0
C  C44  1  0.51643754  0.77843550  0.46828478  1  0  -0.105406  0  3.738501  0  0  -0.126488  0  3.994265  0  0  -0.130163  0  4.015715  0  0  -0.086831  -0.124109  0  3.980121  0
C  C45  1  0.29823872  0.22194390  0.96943292  1  0  -0.105441  0  3.740475  0  0  -0.1271  0  3.996009  0  0  -0.130597  0  4.01735  0  0  -0.087153  -0.124832  0  3.981926  0
I  I46  1  0.03898953  0.92925125  0.25015040  1  0  -0.498364  0  1.510031  0  0  -0.440169  0  1.949691  0  0  -0.460109  0  1.917065  0  0  -0.225801  -0.424597  0  1.971007  0
I  I47  1  0.96102072  0.07074825  0.74984873  1  0  -0.498324  0  1.510137  0  0  -0.440154  0  1.949834  0  0  -0.460045  0  1.917152  0  0  -0.225774  -0.424554  0  1.97112  0
N  N48  1  0.31846290  0.29634955  0.33940507  1  0  -0.271574  0  3.410451  0  0  -0.202274  0  3.712232  0  0  -0.209126  0  3.717744  0  0  -0.364546  -0.198738  0  3.708841  0
N  N49  1  0.61570897  0.70171678  0.83851384  1  0  -0.269533  0  3.40719  0  0  -0.201139  0  3.709777  0  0  -0.208002  0  3.715202  0  0  -0.364117  -0.197668  0  3.706511  0
N  N50  1  0.68155540  0.70363904  0.66059826  1  0  -0.27155  0  3.410467  0  0  -0.202275  0  3.7123  0  0  -0.209111  0  3.717776  0  0  -0.364641  -0.198754  0  3.708902  0
N  N51  1  0.38428969  0.29829092  0.16148112  1  0  -0.269286  0  3.407006  0  0  -0.200961  0  3.70962  0  0  -0.207823  0  3.715067  0  0  -0.364014  -0.197492  0  3.706368  0
