# generated using pymatgen
data_ZnH8C16N3O5
_symmetry_space_group_name_H-M   'P 1'
_cell_length_a   14.36429118
_cell_length_b   15.91920441
_cell_length_c   17.09296946
_cell_angle_alpha   87.63383691
_cell_angle_beta   88.60872513
_cell_angle_gamma   87.94253874
_symmetry_Int_Tables_number   1
_chemical_formula_structural   ZnH8C16N3O5
_chemical_formula_sum   'Zn2 H16 C32 N6 O10'
_cell_volume   3901.74907089
_cell_formula_units_Z   2
loop_
 _symmetry_equiv_pos_site_id
 _symmetry_equiv_pos_as_xyz
  1  'x, y, z'
loop_
 _atom_site_type_symbol
 _atom_site_label
 _atom_site_symmetry_multiplicity
 _atom_site_fract_x
 _atom_site_fract_y
 _atom_site_fract_z
 _atom_site_occupancy
 _atom_site_pbe_bader_charge
 _atom_site_pbe_bader_spin_density
 _atom_site_pbe_cm5_charge
 _atom_site_pbe_ddec_charge
 _atom_site_pbe_ddec_spin_density
 _atom_site_pbe_ddec_sum_bond_order
 _atom_site_pbe_magmom
Zn  Zn0  1  0.49840102  0.58907226  0.50360454  1  1.287213  0  0.670439  0.818995  0  2.428066  0
Zn  Zn1  1  0.50160057  0.41093771  0.49639179  1  1.285643  0  0.670329  0.818954  0  2.428379  0
H  H2  1  0.55847824  0.60598564  0.74398705  1  0.119835  0  0.112938  0.139308  0  0.984625  0
H  H3  1  0.40283434  0.11276138  0.57087468  1  0.12551  0  0.120134  0.128413  0  0.997245  0
H  H4  1  0.61406384  0.12778820  0.38737627  1  0.132939  0  0.124754  0.135483  0  0.973465  0
H  H5  1  0.38591643  0.87220663  0.61264544  1  0.132912  0  0.1247  0.135392  0  0.973564  0
H  H6  1  0.60494808  0.28637935  0.39768974  1  0.130416  0  0.135543  0.111765  0  0.958296  0
H  H7  1  0.39504560  0.71361234  0.60232784  1  0.131346  0  0.135573  0.11193  0  0.958045  0
H  H8  1  0.53502988  0.60465062  0.95326079  1  0.646876  0  0.295962  0.286301  0  1.070629  0
H  H9  1  0.46498124  0.39536060  0.04674709  1  0.64639  0  0.296076  0.286453  0  1.070442  0
H  H10  1  0.44153319  0.39405452  0.25601566  1  0.120365  0  0.112851  0.139177  0  0.984725  0
H  H11  1  0.51871549  0.65889379  0.10708745  1  0.071036  0  0.109374  0.114025  0  0.985863  0
H  H12  1  0.48131494  0.34112878  0.89290049  1  0.071512  0  0.109469  0.114218  0  0.985717  0
H  H13  1  0.50140362  0.65716923  0.25412326  1  0.112064  0  0.104115  0.113706  0  1.002092  0
H  H14  1  0.49863693  0.34286026  0.74586841  1  0.112627  0  0.104273  0.113783  0  1.002187  0
H  H15  1  0.59977686  0.72828443  0.42832566  1  0.146586  0  0.13382  0.112336  0  0.962941  0
H  H16  1  0.40021095  0.27173810  0.57167387  1  0.146368  0  0.133804  0.112243  0  0.962956  0
H  H17  1  0.59713639  0.88726490  0.42914186  1  0.127274  0  0.1202  0.128485  0  0.997279  0
C  C18  1  0.47171835  0.52051707  0.35092631  1  1.573631  0  0.217076  0.59368  0  4.16323  0
C  C19  1  0.55158682  0.85056827  0.46791723  1  -0.061136  0  -0.066705  -0.179873  0  3.909098  0
C  C20  1  0.51028423  0.10936429  0.47963717  1  0.375557  0  0.108105  0.201909  0  4.028754  0
C  C21  1  0.48968457  0.89065759  0.52038015  1  0.375459  0  0.10828  0.20238  0  4.029489  0
C  C22  1  0.56671205  0.15808680  0.42913616  1  -0.056419  0  -0.06242  -0.178455  0  3.904443  0
C  C23  1  0.43327312  0.84192817  0.57087597  1  -0.056754  0  -0.062416  -0.178567  0  3.904401  0
C  C24  1  0.56158692  0.24512317  0.43438478  1  0.548272  0  0.070544  0.118359  0  3.895035  0
C  C25  1  0.43840419  0.75488237  0.56562705  1  0.547634  0  0.070438  0.118051  0  3.894641  0
C  C26  1  0.68062824  0.49990964  0.47283359  1  1.660423  0  0.217779  0.652663  0  4.265916  0
C  C27  1  0.31937686  0.50006951  0.52714806  1  1.660116  0  0.218024  0.653157  0  4.265575  0
C  C28  1  0.78115329  0.49839139  0.47424311  1  0.034023  0  -0.013361  -0.132923  0  3.849048  0
C  C29  1  0.52829195  0.47951869  0.64907014  1  1.574465  0  0.217544  0.593865  0  4.162526  0
C  C30  1  0.21885135  0.50155192  0.52572351  1  0.043889  0  -0.013321  -0.133055  0  3.848477  0
C  C31  1  0.86569967  0.49868843  0.48304576  1  -0.082908  0  -0.0243  0.006002  0  4.284887  0
C  C32  1  0.13430199  0.50122341  0.51692557  1  -0.092092  0  -0.024166  0.006478  0  4.283873  0
C  C33  1  0.95777413  0.49940901  0.49417595  1  0.037539  0  -0.010278  -0.01052  0  4.212537  0
C  C34  1  0.04222688  0.50048207  0.50580143  1  -0.169977  0  -0.010797  -0.011349  0  4.212432  0
C  C35  1  0.47174275  0.52502744  0.26309757  1  -0.025958  0  -0.007291  0.008083  0  3.97011  0
C  C36  1  0.52828141  0.47499261  0.73689814  1  -0.026722  0  -0.0074  0.008373  0  3.968781  0
C  C37  1  0.45742560  0.45211229  0.22331748  1  -0.010811  0  -0.094807  -0.213086  0  3.932511  0
C  C38  1  0.54259138  0.54791152  0.77668402  1  -0.009948  0  -0.094851  -0.213212  0  3.931996  0
C  C39  1  0.46539228  0.45203682  0.14160440  1  0.531189  0  0.098697  0.275495  0  4.030298  0
C  C40  1  0.50112050  0.60172289  0.14086844  1  -0.044955  0  -0.085716  -0.136505  0  4.017115  0
C  C41  1  0.53462489  0.54797943  0.85840557  1  0.532006  0  0.098378  0.274824  0  4.030389  0
C  C42  1  0.48974424  0.52792788  0.09937195  1  0.459373  0  0.080655  0.052687  0  4.05315  0
C  C43  1  0.51027819  0.47208083  0.90063123  1  0.458904  0  0.080602  0.052868  0  4.053579  0
C  C44  1  0.49890940  0.39829338  0.85912559  1  -0.044806  0  -0.085733  -0.136729  0  4.017212  0
C  C45  1  0.49177483  0.60091391  0.22154803  1  -0.01493  0  -0.097821  -0.12276  0  4.017093  0
C  C46  1  0.50825899  0.39910739  0.77845046  1  -0.015067  0  -0.098002  -0.122903  0  4.016842  0
C  C47  1  0.44694369  0.23651708  0.53280816  1  0.515024  0  0.066916  0.115419  0  3.898458  0
C  C48  1  0.55303774  0.76350481  0.46720142  1  0.515035  0  0.066799  0.115157  0  3.898359  0
C  C49  1  0.44838095  0.14946179  0.53210096  1  -0.059776  0  -0.066635  -0.179607  0  3.908813  0
N  N50  1  0.50478473  0.53385204  0.01910351  1  -0.612312  0  -0.164236  -0.122114  0  3.386998  0
N  N51  1  0.49523958  0.46616549  0.98088879  1  -0.65225  0  -0.164279  -0.122165  0  3.387201  0
N  N52  1  0.50304036  0.28318771  0.48539408  1  -1.236895  0  -0.31107  -0.188246  0  3.500549  0
N  N53  1  0.49694836  0.71680965  0.51461282  1  -1.236791  0  -0.310939  -0.187942  0  3.500107  0
N  N54  1  0.51957624  0.02091804  0.47249052  1  -0.493634  0  -0.127166  -0.113272  0  3.226983  0
N  N55  1  0.48038676  0.97907427  0.52752855  1  -0.452562  0  -0.127171  -0.113111  0  3.227898  0
O  O56  1  0.47420436  0.58939965  0.38598932  1  -1.156464  0  -0.315294  -0.539201  0  2.314623  0
O  O57  1  0.45213862  0.38070830  0.10464414  1  -1.153073  0  -0.348384  -0.415084  0  2.283194  0
O  O58  1  0.52585321  0.41062168  0.61400363  1  -1.156111  0  -0.315523  -0.539302  0  2.314002  0
O  O59  1  0.47167829  0.44715212  0.38379396  1  -1.173076  0  -0.317434  -0.551301  0  2.3458  0
O  O60  1  0.52827318  0.55287291  0.61620881  1  -1.174157  0  -0.317575  -0.551429  0  2.346264  0
O  O61  1  0.64010118  0.57223946  0.47467094  1  -1.14418  0  -0.308788  -0.538452  0  2.261873  0
O  O62  1  0.35992037  0.42772959  0.52536064  1  -1.144285  0  -0.308962  -0.538761  0  2.261753  0
O  O63  1  0.64252007  0.42892690  0.47171974  1  -1.138848  0  -0.311622  -0.542794  0  2.256965  0
O  O64  1  0.35746042  0.57105353  0.52822352  1  -1.138163  0  -0.311587  -0.542919  0  2.256879  0
O  O65  1  0.54787820  0.61931992  0.89535603  1  -1.154392  0  -0.348144  -0.414776  0  2.283167  0
