# generated using pymatgen
data_H8PbC10Br2N2O
_symmetry_space_group_name_H-M   'P 1'
_cell_length_a   4.20729423
_cell_length_b   8.51384662
_cell_length_c   18.29844523
_cell_angle_alpha   93.25784536
_cell_angle_beta   89.86275897
_cell_angle_gamma   104.01975841
_symmetry_Int_Tables_number   1
_chemical_formula_structural   H8PbC10Br2N2O
_chemical_formula_sum   'H16 Pb2 C20 Br4 N4 O2'
_cell_volume   634.85900450
_cell_formula_units_Z   2
loop_
 _symmetry_equiv_pos_site_id
 _symmetry_equiv_pos_as_xyz
  1  'x, y, z'
loop_
 _atom_site_type_symbol
 _atom_site_label
 _atom_site_symmetry_multiplicity
 _atom_site_fract_x
 _atom_site_fract_y
 _atom_site_fract_z
 _atom_site_occupancy
 _atom_site_hle17_bader_spin_density
 _atom_site_hle17_ddec_charge
 _atom_site_hle17_ddec_spin_density
 _atom_site_hle17_ddec_sum_bond_order
 _atom_site_hle17_magmom
 _atom_site_hse06_10hf_bader_spin_density
 _atom_site_hse06_10hf_ddec_charge
 _atom_site_hse06_10hf_ddec_spin_density
 _atom_site_hse06_10hf_ddec_sum_bond_order
 _atom_site_hse06_10hf_magmom
 _atom_site_hse06_bader_spin_density
 _atom_site_hse06_ddec_charge
 _atom_site_hse06_ddec_spin_density
 _atom_site_hse06_ddec_sum_bond_order
 _atom_site_hse06_magmom
 _atom_site_pbe_bader_spin_density
 _atom_site_pbe_cm5_charge
 _atom_site_pbe_ddec_charge
 _atom_site_pbe_ddec_spin_density
 _atom_site_pbe_ddec_sum_bond_order
 _atom_site_pbe_magmom
H  H0  1  0.76989624  0.82179667  0.17310127  1  0  0.11337  0  0.94862  0  0  0.119349  0  1.015473  0  0  0.123246  0  1.011835  0  0  0.118195  0.116374  0  1.018266  0
H  H1  1  0.96498138  0.17528215  0.82802442  1  0  0.113374  0  0.955275  0  0  0.119102  0  1.022591  0  0  0.123131  0  1.018669  0  0  0.116889  0.116131  0  1.025488  0
H  H2  1  0.90964599  0.69910479  0.28556429  1  0  0.114232  0  0.977203  0  0  0.121941  0  1.041988  0  0  0.125613  0  1.039808  0  0  0.097376  0.119293  0  1.043731  0
H  H3  1  0.22435869  0.29730380  0.71521668  1  0  0.116168  0  0.972756  0  0  0.123098  0  1.038143  0  0  0.126816  0  1.035911  0  0  0.098706  0.120369  0  1.03999  0
H  H4  1  0.22938481  0.34392689  0.14236653  1  0  0.110832  0  0.975256  0  0  0.117005  0  1.042072  0  0  0.120766  0  1.039876  0  0  0.10009  0.114299  0  1.043809  0
H  H5  1  0.87760988  0.65996405  0.85733670  1  0  0.108632  0  0.977047  0  0  0.115383  0  1.043432  0  0  0.119113  0  1.041205  0  0  0.100629  0.112725  0  1.045125  0
H  H6  1  0.96609321  0.56720456  0.37357796  1  0  0.104619  0  0.979064  0  0  0.110017  0  1.049505  0  0  0.113722  0  1.047427  0  0  0.092936  0.107309  0  1.051218  0
H  H7  1  0.40231042  0.43097920  0.62706345  1  0  0.103828  0  0.979652  0  0  0.110087  0  1.049108  0  0  0.113708  0  1.047118  0  0  0.093246  0.107364  0  1.050849  0
H  H8  1  0.07343027  0.47843524  0.03758930  1  0  0.121718  0  0.963058  0  0  0.125256  0  1.031334  0  0  0.130564  0  1.025793  0  0  0.125927  0.121409  0  1.035381  0
H  H9  1  0.59364490  0.52452471  0.96274815  1  0  0.121946  0  0.964543  0  0  0.125738  0  1.032301  0  0  0.130865  0  1.027029  0  0  0.125842  0.121993  0  1.03617  0
H  H10  1  0.05020438  0.39895123  0.47417000  1  0  0.071793  0  0.947352  0  0  0.078065  0  1.016811  0  0  0.080566  0  1.014776  0  0  0.105621  0.076219  0  1.018318  0
H  H11  1  0.65155530  0.59802328  0.52584396  1  0  0.070757  0  0.947627  0  0  0.077917  0  1.016174  0  0  0.080454  0  1.013998  0  0  0.105222  0.07597  0  1.017846  0
H  H12  1  0.32773931  0.23377845  0.22577969  1  0  0.10789  0  1.001159  0  0  0.114749  0  1.067588  0  0  0.118981  0  1.065231  0  0  0.089396  0.111692  0  1.069477  0
H  H13  1  0.08566192  0.76812933  0.77384005  1  0  0.107191  0  1.001776  0  0  0.114025  0  1.06877  0  0  0.118336  0  1.06627  0  0  0.088969  0.110859  0  1.070836  0
H  H14  1  0.39862395  0.08369610  0.33226296  1  0  0.072487  0  0.949269  0  0  0.078606  0  1.018009  0  0  0.081754  0  1.01497  0  0  0.10303  0.076231  0  1.020339  0
H  H15  1  0.30449416  0.91651287  0.66696992  1  0  0.072386  0  0.949405  0  0  0.077745  0  1.019247  0  0  0.080882  0  1.016244  0  0  0.102697  0.075402  0  1.021533  0
Pb  Pb16  1  0.99725358  0.99983435  0.99831220  1  0  1.096376  0  1.744971  0  0  0.926799  0  2.211621  0  0  0.988736  0  2.159953  0  0  0.42768  0.882945  0  2.247136  0
Pb  Pb17  1  0.21025398  0.99977536  0.50043859  1  0  0.997948  0  1.77037  0  0  0.806159  0  2.22822  0  0  0.863387  0  2.190716  0  0  0.416909  0.766312  0  2.253034  0
C  C18  1  0.87483948  0.71661196  0.17122112  1  0  0.002954  0  3.612575  0  0  -0.038066  0  3.8734  0  0  -0.032093  0  3.886986  0  0  0.03491  -0.041575  0  3.864377  0
C  C19  1  0.17025984  0.28171341  0.82968681  1  0  0.003833  0  3.615045  0  0  -0.037461  0  3.876443  0  0  -0.031323  0  3.889749  0  0  0.034131  -0.041187  0  3.867559  0
C  C20  1  0.95382916  0.64473614  0.23228399  1  0  -0.122396  0  3.708048  0  0  -0.137961  0  3.954773  0  0  -0.144118  0  3.975153  0  0  -0.07616  -0.134104  0  3.940988  0
C  C21  1  0.31847250  0.35348253  0.76837290  1  0  -0.122376  0  3.706721  0  0  -0.137456  0  3.954174  0  0  -0.143665  0  3.974355  0  0  -0.075534  -0.133557  0  3.940569  0
C  C22  1  0.12918547  0.44916997  0.15364604  1  0  -0.118916  0  3.726258  0  0  -0.138282  0  3.981102  0  0  -0.14312  0  3.999464  0  0  -0.078271  -0.135395  0  3.968899  0
C  C23  1  0.67816646  0.55293050  0.84651870  1  0  -0.116807  0  3.72714  0  0  -0.136399  0  3.981007  0  0  -0.141356  0  3.999495  0  0  -0.077505  -0.133434  0  3.968729  0
C  C24  1  0.06489064  0.46187341  0.36098631  1  0  -0.143645  0  3.689388  0  0  -0.162441  0  3.940325  0  0  -0.168539  0  3.960058  0  0  -0.084996  -0.158488  0  3.927138  0
C  C25  1  0.60345436  0.53680519  0.63925736  1  0  -0.142986  0  3.694779  0  0  -0.162662  0  3.945154  0  0  -0.16866  0  3.964835  0  0  -0.085474  -0.158726  0  3.931999  0
C  C26  1  0.07755168  0.50523907  0.22544665  1  0  0.069429  0  3.748  0  0  0.077191  0  3.983575  0  0  0.080171  0  4.005523  0  0  0.001838  0.075593  0  3.96843  0
C  C27  1  0.57431688  0.49483663  0.77487146  1  0  0.070804  0  3.749564  0  0  0.078702  0  3.984157  0  0  0.081787  0  4.006034  0  0  0.001987  0.077029  0  3.969058  0
C  C28  1  0.04837645  0.52306207  0.09374586  1  0  0.01906  0  3.581107  0  0  -0.023669  0  3.844869  0  0  -0.015923  0  3.853292  0  0  0.037531  -0.028542  0  3.839376  0
C  C29  1  0.52661419  0.47884512  0.90667957  1  0  0.016617  0  3.583424  0  0  -0.026153  0  3.847163  0  0  -0.018305  0  3.855751  0  0  0.037197  -0.031071  0  3.841523  0
C  C30  1  0.13817370  0.41692992  0.28890477  1  0  0.097189  0  3.737968  0  0  0.109007  0  3.971109  0  0  0.112763  0  3.991956  0  0  0.009751  0.106544  0  3.95683  0
C  C31  1  0.72000308  0.58295902  0.71118654  1  0  0.097471  0  3.742138  0  0  0.109735  0  3.974324  0  0  0.113491  0  3.995035  0  0  0.009968  0.107283  0  3.960122  0
C  C32  1  0.11220049  0.36823283  0.41799042  1  0  0.122894  0  3.732779  0  0  0.09412  0  3.988029  0  0  0.100413  0  4.006984  0  0  0.040523  0.090012  0  3.975071  0
C  C33  1  0.74268324  0.62974179  0.58194163  1  0  0.125612  0  3.731952  0  0  0.096131  0  3.987446  0  0  0.102459  0  4.006402  0  0  0.04128  0.092074  0  3.974504  0
C  C34  1  0.26270189  0.27811344  0.27934421  1  0  -0.147259  0  3.682891  0  0  -0.166272  0  3.929412  0  0  -0.172486  0  3.948565  0  0  -0.085933  -0.162276  0  3.916644  0
C  C35  1  0.97867849  0.72247445  0.72039723  1  0  -0.146026  0  3.683728  0  0  -0.165648  0  3.930064  0  0  -0.171816  0  3.949041  0  0  -0.08559  -0.161661  0  3.917444  0
C  C36  1  0.30319020  0.19206326  0.33929133  1  0  0.123662  0  3.74534  0  0  0.09542  0  3.997803  0  0  0.101901  0  4.016538  0  0  0.039967  0.091206  0  3.985109  0
C  C37  1  0.10387281  0.80769431  0.66019064  1  0  0.123849  0  3.744359  0  0  0.096332  0  3.996445  0  0  0.102748  0  4.015111  0  0  0.038959  0.092131  0  3.983764  0
Br  Br38  1  0.52810209  0.07734515  0.11379921  1  0  -0.577005  0  0.922994  0  0  -0.502874  0  1.195816  0  0  -0.529748  0  1.175685  0  0  -0.223999  -0.4834  0  1.209738  0
Br  Br39  1  0.45886178  0.92983782  0.88132823  1  0  -0.581172  0  0.925254  0  0  -0.506611  0  1.19768  0  0  -0.533909  0  1.177999  0  0  -0.224739  -0.486828  0  1.211297  0
Br  Br40  1  0.64991519  0.83024582  0.40428446  1  0  -0.56151  0  0.920914  0  0  -0.485319  0  1.19539  0  0  -0.509028  0  1.177679  0  0  -0.223773  -0.468402  0  1.207596  0
Br  Br41  1  0.81457975  0.16885943  0.59714514  1  0  -0.563889  0  0.916485  0  0  -0.48744  0  1.190181  0  0  -0.511276  0  1.172742  0  0  -0.2255  -0.470387  0  1.202174  0
N  N42  1  0.91468301  0.65335834  0.10253235  1  0  0.2758  0  3.727314  0  0  0.32806  0  3.988605  0  0  0.328843  0  4.011203  0  0  -0.109035  0.326853  0  3.973357  0
N  N43  1  0.26893435  0.34682417  0.89815909  1  0  0.275822  0  3.724019  0  0  0.328079  0  3.985339  0  0  0.328717  0  4.007901  0  0  -0.109514  0.326958  0  3.970148  0
N  N44  1  0.22828806  0.23475717  0.40790867  1  0  -0.350514  0  3.239642  0  0  -0.276032  0  3.492245  0  0  -0.296402  0  3.516196  0  0  -0.311134  -0.262052  0  3.475659  0
N  N45  1  0.98867206  0.76366770  0.59167085  1  0  -0.352089  0  3.241452  0  0  -0.277636  0  3.494219  0  0  -0.298045  0  3.518236  0  0  -0.311514  -0.263629  0  3.477578  0
O  O46  1  0.81490535  0.71274921  0.04427118  1  0  -0.553173  0  1.804399  0  0  -0.504426  0  2.043344  0  0  -0.53374  0  2.045625  0  0  -0.225142  -0.483686  0  2.041336  0
O  O47  1  0.11135873  0.28762057  0.95672875  1  0  -0.550779  0  1.807594  0  0  -0.501015  0  2.0471  0  0  -0.53038  0  2.049144  0  0  -0.223587  -0.480181  0  2.045124  0
