# generated using pymatgen
data_HgH14C15N2(ClO2)2
_symmetry_space_group_name_H-M   'P 1'
_cell_length_a   7.79561901
_cell_length_b   7.83641644
_cell_length_c   15.08770400
_cell_angle_alpha   77.36572212
_cell_angle_beta   80.39407473
_cell_angle_gamma   77.07511680
_symmetry_Int_Tables_number   1
_chemical_formula_structural   HgH14C15N2(ClO2)2
_chemical_formula_sum   'Hg2 H28 C30 N4 Cl4 O8'
_cell_volume   869.83164032
_cell_formula_units_Z   2
loop_
 _symmetry_equiv_pos_site_id
 _symmetry_equiv_pos_as_xyz
  1  'x, y, z'
loop_
 _atom_site_type_symbol
 _atom_site_label
 _atom_site_symmetry_multiplicity
 _atom_site_fract_x
 _atom_site_fract_y
 _atom_site_fract_z
 _atom_site_occupancy
 _atom_site_hle17_bader_spin_density
 _atom_site_hle17_ddec_charge
 _atom_site_hle17_ddec_spin_density
 _atom_site_hle17_ddec_sum_bond_order
 _atom_site_hle17_magmom
 _atom_site_hse06_10hf_bader_spin_density
 _atom_site_hse06_10hf_ddec_charge
 _atom_site_hse06_10hf_ddec_spin_density
 _atom_site_hse06_10hf_ddec_sum_bond_order
 _atom_site_hse06_10hf_magmom
 _atom_site_hse06_bader_spin_density
 _atom_site_hse06_ddec_charge
 _atom_site_hse06_ddec_spin_density
 _atom_site_hse06_ddec_sum_bond_order
 _atom_site_hse06_magmom
 _atom_site_pbe_bader_spin_density
 _atom_site_pbe_cm5_charge
 _atom_site_pbe_ddec_charge
 _atom_site_pbe_ddec_spin_density
 _atom_site_pbe_ddec_sum_bond_order
 _atom_site_pbe_magmom
Hg  Hg0  1  0.02608959  0.90290708  0.27281697  1  0  0.752929  0  2.089011  0  0  0.584075  0  2.597567  0  0  0.6331  0  2.561124  0  0  0.522214  0.550564  0  2.622072  0
Hg  Hg1  1  0.97391443  0.09709217  0.72718331  1  0  0.752912  0  2.089032  0  0  0.584054  0  2.59759  0  0  0.633077  0  2.561152  0  0  0.522203  0.550541  0  2.622092  0
H  H2  1  0.94571654  0.49985625  0.34785162  1  0  0.08049  0  0.958942  0  0  0.083743  0  1.031979  0  0  0.086335  0  1.030112  0  0  0.103255  0.081844  0  1.03345  0
H  H3  1  0.05427706  0.50014304  0.65214959  1  0  0.080489  0  0.958921  0  0  0.083717  0  1.03198  0  0  0.086308  0  1.030114  0  0  0.103227  0.081816  0  1.033452  0
H  H4  1  0.78658670  0.30811815  0.47591346  1  0  0.119314  0  0.951076  0  0  0.125362  0  1.016817  0  0  0.129478  0  1.014006  0  0  0.104641  0.122408  0  1.018944  0
H  H5  1  0.21340845  0.69187979  0.52408710  1  0  0.11928  0  0.951042  0  0  0.125353  0  1.016772  0  0  0.129467  0  1.013961  0  0  0.104646  0.122403  0  1.018881  0
H  H6  1  0.60340047  0.76695270  0.60531588  1  0  0.11625  0  0.946559  0  0  0.125641  0  1.007189  0  0  0.128871  0  1.005634  0  0  0.112722  0.123292  0  1.008451  0
H  H7  1  0.39659912  0.23304921  0.39468382  1  0  0.116244  0  0.946592  0  0  0.125637  0  1.007222  0  0  0.128865  0  1.005669  0  0  0.112723  0.123288  0  1.008486  0
H  H8  1  0.77277344  0.93998119  0.47286177  1  0  0.082143  0  0.940609  0  0  0.087361  0  1.008453  0  0  0.090329  0  1.005741  0  0  0.109139  0.085192  0  1.010479  0
H  H9  1  0.22722691  0.06001671  0.52713767  1  0  0.082113  0  0.9406  0  0  0.087341  0  1.008434  0  0  0.090308  0  1.005723  0  0  0.109136  0.085171  0  1.01046  0
H  H10  1  0.49811813  0.30072334  0.80244822  1  0  0.061246  0  0.947873  0  0  0.069701  0  1.020303  0  0  0.069851  0  1.019937  0  0  0.094566  0.069558  0  1.020683  0
H  H11  1  0.50187936  0.69927591  0.19755132  1  0  0.061302  0  0.947812  0  0  0.069743  0  1.020259  0  0  0.069894  0  1.01989  0  0  0.094578  0.069604  0  1.020642  0
H  H12  1  0.31634321  0.32114044  0.74045666  1  0  0.052046  0  0.959425  0  0  0.062684  0  1.031631  0  0  0.061734  0  1.033022  0  0  0.096718  0.06328  0  1.030806  0
H  H13  1  0.68365193  0.67885749  0.25954324  1  0  0.052045  0  0.959467  0  0  0.062689  0  1.031662  0  0  0.061734  0  1.033071  0  0  0.096721  0.0633  0  1.030827  0
H  H14  1  0.36491968  0.61106517  0.83635419  1  0  0.082454  0  0.958871  0  0  0.096428  0  1.023044  0  0  0.096447  0  1.025649  0  0  0.092588  0.096356  0  1.02135  0
H  H15  1  0.63507573  0.38893144  0.16364717  1  0  0.082529  0  0.958809  0  0  0.096489  0  1.022995  0  0  0.096507  0  1.025601  0  0  0.092592  0.09642  0  1.021299  0
H  H16  1  0.17502816  0.61131010  0.78604942  1  0  0.097306  0  0.936097  0  0  0.110326  0  1.001449  0  0  0.111184  0  1.001664  0  0  0.092682  0.109636  0  1.00144  0
H  H17  1  0.82496594  0.38868652  0.21395206  1  0  0.097338  0  0.936098  0  0  0.11037  0  1.001432  0  0  0.111226  0  1.001649  0  0  0.092712  0.109683  0  1.001424  0
H  H18  1  0.11055589  0.52907775  0.95037362  1  0  0.070599  0  0.943479  0  0  0.08278  0  1.008811  0  0  0.082943  0  1.008381  0  0  0.10596  0.082594  0  1.009212  0
H  H19  1  0.88943846  0.47091754  0.04962800  1  0  0.07061  0  0.943487  0  0  0.0828  0  1.008797  0  0  0.082965  0  1.008367  0  0  0.105958  0.082608  0  1.00921  0
H  H20  1  0.12639843  0.33304013  0.90546873  1  0  0.05923  0  0.953493  0  0  0.068113  0  1.02667  0  0  0.06832  0  1.026296  0  0  0.093662  0.067885  0  1.027064  0
H  H21  1  0.87360035  0.66695249  0.09453347  1  0  0.059259  0  0.953496  0  0  0.068132  0  1.026672  0  0  0.06834  0  1.026297  0  0  0.093675  0.067905  0  1.027066  0
H  H22  1  0.65651605  0.17847120  0.97664844  1  0  0.115923  0  0.971263  0  0  0.118189  0  1.044428  0  0  0.122205  0  1.042248  0  0  0.101758  0.115292  0  1.046116  0
H  H23  1  0.34348407  0.82153468  0.02334876  1  0  0.115886  0  0.971317  0  0  0.118182  0  1.044452  0  0  0.12222  0  1.04225  0  0  0.101757  0.115286  0  1.046144  0
H  H24  1  0.91158092  0.04469576  0.06720009  1  0  0.082015  0  0.94083  0  0  0.089094  0  1.007989  0  0  0.091749  0  1.005323  0  0  0.113652  0.087168  0  1.00995  0
H  H25  1  0.08842484  0.95530070  0.93279374  1  0  0.082079  0  0.940729  0  0  0.089162  0  1.007867  0  0  0.091816  0  1.0052  0  0  0.113684  0.087234  0  1.009833  0
H  H26  1  0.57922688  0.00486427  0.31232503  1  0  0.083545  0  0.933838  0  0  0.092505  0  0.996537  0  0  0.094823  0  0.994289  0  0  0.115632  0.090823  0  0.998218  0
H  H27  1  0.42078754  0.99513492  0.68767301  1  0  0.083533  0  0.933814  0  0  0.092497  0  0.99654  0  0  0.094813  0  0.994294  0  0  0.115654  0.090815  0  0.998217  0
H  H28  1  0.30879129  0.13894748  0.23324982  1  0  0.110468  0  0.990301  0  0  0.114375  0  1.0622  0  0  0.118011  0  1.06023  0  0  0.097024  0.111709  0  1.063809  0
H  H29  1  0.69121979  0.86105577  0.76675135  1  0  0.110448  0  0.990253  0  0  0.114311  0  1.062207  0  0  0.117962  0  1.060223  0  0  0.096952  0.111642  0  1.063817  0
C  C30  1  0.86692402  0.55418389  0.40591177  1  0  0.117218  0  3.704306  0  0  0.087985  0  3.962067  0  0  0.093418  0  3.981332  0  0  0.039152  0.084421  0  3.948916  0
C  C31  1  0.13307243  0.44581405  0.59408934  1  0  0.11725  0  3.704185  0  0  0.088045  0  3.961932  0  0  0.093479  0  3.981199  0  0  0.039213  0.084482  0  3.948778  0
C  C32  1  0.77863216  0.44809703  0.47686812  1  0  -0.105534  0  3.686771  0  0  -0.129333  0  3.933695  0  0  -0.133916  0  3.95444  0  0  -0.076937  -0.126335  0  3.919869  0
C  C33  1  0.22136272  0.55190223  0.52313165  1  0  -0.105493  0  3.686573  0  0  -0.129331  0  3.933501  0  0  -0.133913  0  3.954246  0  0  -0.07695  -0.126338  0  3.919669  0
C  C34  1  0.67992118  0.52448922  0.54962747  1  0  -0.018588  0  3.750745  0  0  0.000341  0  3.985069  0  0  -0.003546  0  4.006509  0  0  0.003134  0.002926  0  3.970691  0
C  C35  1  0.32007816  0.47551403  0.45037209  1  0  -0.018508  0  3.750684  0  0  0.000471  0  3.985  0  0  -0.003416  0  4.00644  0  0  0.003216  0.003084  0  3.970582  0
C  C36  1  0.67569728  0.70396948  0.54907673  1  0  -0.099445  0  3.678271  0  0  -0.124527  0  3.924679  0  0  -0.127856  0  3.943985  0  0  -0.072906  -0.122331  0  3.911766  0
C  C37  1  0.32429969  0.29603241  0.45092122  1  0  -0.099526  0  3.678171  0  0  -0.124617  0  3.924587  0  0  -0.127946  0  3.943892  0  0  -0.072954  -0.122432  0  3.91167  0
C  C38  1  0.76872486  0.80056408  0.47550664  1  0  0.123349  0  3.704019  0  0  0.095117  0  3.957649  0  0  0.100644  0  3.976177  0  0  0.045068  0.091478  0  3.945028  0
C  C39  1  0.23127964  0.19943247  0.52449193  1  0  0.123416  0  3.703885  0  0  0.095171  0  3.957526  0  0  0.100695  0  3.976059  0  0  0.045092  0.091534  0  3.944905  0
C  C40  1  0.58523280  0.40883712  0.62514224  1  0  0.570935  0  3.836116  0  0  0.517805  0  4.137275  0  0  0.550408  0  4.129735  0  0  0.230099  0.495719  0  4.141841  0
C  C41  1  0.41475612  0.59116616  0.37485759  1  0  0.570897  0  3.836052  0  0  0.517668  0  4.137341  0  0  0.550274  0  4.1298  0  0  0.230067  0.495589  0  4.141897  0
C  C42  1  0.39568050  0.39589467  0.76543050  1  0  0.108519  0  3.582155  0  0  0.045365  0  3.853957  0  0  0.055136  0  3.858774  0  0  -0.072908  0.038725  0  3.850684  0
C  C43  1  0.60431335  0.60410327  0.23457019  1  0  0.10848  0  3.582127  0  0  0.045333  0  3.853925  0  0  0.055102  0  3.858735  0  0  -0.072904  0.038683  0  3.850677  0
C  C44  1  0.28257406  0.52496192  0.82304695  1  0  -0.17273  0  3.691593  0  0  -0.213718  0  3.949816  0  0  -0.216085  0  3.961254  0  0  -0.175036  -0.211994  0  3.942077  0
C  C45  1  0.71742060  0.47503872  0.17695533  1  0  -0.172848  0  3.69162  0  0  -0.213839  0  3.949841  0  0  -0.216204  0  3.961274  0  0  -0.175025  -0.212118  0  3.942117  0
C  C46  1  0.20044672  0.43165603  0.91339782  1  0  0.107269  0  3.569401  0  0  0.044328  0  3.840158  0  0  0.053556  0  3.844932  0  0  -0.067404  0.038106  0  3.83684  0
C  C47  1  0.79954870  0.56834059  0.08660421  1  0  0.107192  0  3.569471  0  0  0.044285  0  3.840215  0  0  0.053512  0  3.844986  0  0  -0.067469  0.038068  0  3.836892  0
C  C48  1  0.30143589  0.24492736  0.05004780  1  0  0.580767  0  3.820194  0  0  0.530175  0  4.114389  0  0  0.563062  0  4.106217  0  0  0.235513  0.507834  0  4.119374  0
C  C49  1  0.69856658  0.75507325  0.94995379  1  0  0.58075  0  3.820328  0  0  0.530113  0  4.114596  0  0  0.562994  0  4.10643  0  0  0.235478  0.507781  0  4.11957  0
C  C50  1  0.46164458  0.16631287  0.09851110  1  0  -0.010703  0  3.741284  0  0  0.00718  0  3.973146  0  0  0.004561  0  3.992973  0  0  0.00618  0.008999  0  3.959762  0
C  C51  1  0.53835921  0.83369436  0.90148760  1  0  -0.010651  0  3.74138  0  0  0.007284  0  3.973163  0  0  0.004665  0  3.993002  0  0  0.006216  0.009098  0  3.959777  0
C  C52  1  0.63303057  0.14024971  0.05089238  1  0  -0.118407  0  3.683541  0  0  -0.14369  0  3.934696  0  0  -0.147807  0  3.954011  0  0  -0.077907  -0.141  0  3.921799  0
C  C53  1  0.36697476  0.85975616  0.94910501  1  0  -0.118461  0  3.683648  0  0  -0.143791  0  3.934784  0  0  -0.147923  0  3.954074  0  0  -0.077981  -0.141104  0  3.921894  0
C  C54  1  0.77545998  0.06594977  0.10080578  1  0  0.127037  0  3.691309  0  0  0.099524  0  3.944823  0  0  0.105299  0  3.963117  0  0  0.048364  0.095695  0  3.932398  0
C  C55  1  0.22454894  0.93405072  0.89918928  1  0  0.12709  0  3.691038  0  0  0.09959  0  3.944538  0  0  0.105365  0  3.962838  0  0  0.048421  0.095759  0  3.932118  0
C  C56  1  0.59046536  0.04611753  0.23810432  1  0  0.133237  0  3.693952  0  0  0.101815  0  3.953952  0  0  0.108957  0  3.96995  0  0  0.052852  0.097051  0  3.943101  0
C  C57  1  0.40954441  0.95388570  0.76189564  1  0  0.133198  0  3.693969  0  0  0.101738  0  3.954005  0  0  0.108879  0  3.97001  0  0  0.052739  0.096973  0  3.94315  0
C  C58  1  0.43996780  0.11819044  0.19394181  1  0  -0.11298  0  3.68245  0  0  -0.13401  0  3.927021  0  0  -0.138754  0  3.946395  0  0  -0.073699  -0.130906  0  3.91417  0
C  C59  1  0.56004041  0.88181413  0.80605813  1  0  -0.112998  0  3.682291  0  0  -0.133985  0  3.926854  0  0  -0.138742  0  3.946213  0  0  -0.073616  -0.130881  0  3.914  0
N  N60  1  0.86088731  0.72723404  0.40508993  1  0  -0.297866  0  3.242468  0  0  -0.22663  0  3.510699  0  0  -0.244972  0  3.531326  0  0  -0.306956  -0.213938  0  3.496273  0
N  N61  1  0.13911122  0.27276652  0.59490804  1  0  -0.297891  0  3.24243  0  0  -0.22666  0  3.510662  0  0  -0.245  0  3.531282  0  0  -0.306988  -0.213968  0  3.496231  0
N  N62  1  0.75459431  0.01993752  0.19260051  1  0  -0.301945  0  3.240387  0  0  -0.232624  0  3.510053  0  0  -0.250591  0  3.529404  0  0  -0.309868  -0.220192  0  3.49654  0
N  N63  1  0.24541332  0.98006297  0.80739466  1  0  -0.301951  0  3.240317  0  0  -0.232628  0  3.509988  0  0  -0.250597  0  3.529339  0  0  -0.309876  -0.220195  0  3.49647  0
Cl  Cl64  1  0.15520665  0.67890232  0.18289514  1  0  -0.456937  0  0.933012  0  0  -0.384663  0  1.184326  0  0  -0.402081  0  1.167141  0  0  -0.262317  -0.373001  0  1.196238  0
Cl  Cl65  1  0.84479580  0.32109824  0.81710381  1  0  -0.456929  0  0.933027  0  0  -0.384652  0  1.184332  0  0  -0.402067  0  1.167145  0  0  -0.262311  -0.372992  0  1.196243  0
Cl  Cl66  1  0.02248879  0.13963878  0.34965325  1  0  -0.456738  0  1.008188  0  0  -0.393351  0  1.288724  0  0  -0.411231  0  1.269471  0  0  -0.246771  -0.381057  0  1.301847  0
Cl  Cl67  1  0.97751366  0.86036179  0.65034635  1  0  -0.456736  0  1.00822  0  0  -0.393337  0  1.288745  0  0  -0.411218  0  1.269495  0  0  -0.24677  -0.381046  0  1.301865  0
O  O68  1  0.59780900  0.24857899  0.62893481  1  0  -0.52938  0  1.958526  0  0  -0.491871  0  2.187741  0  0  -0.512165  0  2.182064  0  0  -0.280477  -0.477826  0  2.191156  0
O  O69  1  0.40219271  0.75142561  0.37106637  1  0  -0.529447  0  1.958449  0  0  -0.491894  0  2.187696  0  0  -0.512193  0  2.182023  0  0  -0.280525  -0.477849  0  2.191104  0
O  O70  1  0.48552168  0.50082645  0.68726558  1  0  -0.316101  0  2.299794  0  0  -0.241666  0  2.538438  0  0  -0.264739  0  2.539276  0  0  -0.15949  -0.225658  0  2.537327  0
O  O71  1  0.51447296  0.49917417  0.31273538  1  0  -0.316012  0  2.299669  0  0  -0.241549  0  2.538346  0  0  -0.26462  0  2.539182  0  0  -0.159473  -0.225566  0  2.53726  0
O  O72  1  0.34514880  0.34152462  0.96741541  1  0  -0.315749  0  2.28302  0  0  -0.241037  0  2.518909  0  0  -0.263386  0  2.51815  0  0  -0.161091  -0.225538  0  2.518861  0
O  O73  1  0.65484820  0.65847733  0.03258584  1  0  -0.315719  0  2.282962  0  0  -0.241039  0  2.518896  0  0  -0.263387  0  2.51814  0  0  -0.161075  -0.225544  0  2.518846  0
O  O74  1  0.15073028  0.22371877  0.08214855  1  0  -0.521177  0  1.942108  0  0  -0.482888  0  2.165079  0  0  -0.503285  0  2.158145  0  0  -0.272805  -0.468776  0  2.169421  0
O  O75  1  0.84926780  0.77628457  0.91785576  1  0  -0.521179  0  1.942396  0  0  -0.482853  0  2.165368  0  0  -0.503248  0  2.158437  0  0  -0.272752  -0.468737  0  2.169694  0
