# generated using pymatgen
data_Cd3H22C32(NO9)2
_symmetry_space_group_name_H-M   'P 1'
_cell_length_a   9.63149964
_cell_length_b   11.62211958
_cell_length_c   17.30109170
_cell_angle_alpha   90.00056650
_cell_angle_beta   91.95954212
_cell_angle_gamma   89.99787268
_symmetry_Int_Tables_number   1
_chemical_formula_structural   Cd3H22C32(NO9)2
_chemical_formula_sum   'Cd6 H44 C64 N4 O36'
_cell_volume   1935.52470702
_cell_formula_units_Z   2
loop_
 _symmetry_equiv_pos_site_id
 _symmetry_equiv_pos_as_xyz
  1  'x, y, z'
loop_
 _atom_site_type_symbol
 _atom_site_label
 _atom_site_symmetry_multiplicity
 _atom_site_fract_x
 _atom_site_fract_y
 _atom_site_fract_z
 _atom_site_occupancy
 _atom_site_pbe_bader_charge
 _atom_site_pbe_bader_spin_density
 _atom_site_pbe_cm5_charge
 _atom_site_pbe_ddec_charge
 _atom_site_pbe_ddec_spin_density
 _atom_site_pbe_ddec_sum_bond_order
 _atom_site_pbe_magmom
Cd  Cd0  1  0.97318385  0.29743366  0.16350303  1  1.292139  0  0.75967  0.984116  0  2.072296  0
Cd  Cd1  1  0.52681176  0.79720089  0.33653948  1  1.293353  0  0.759984  0.985481  0  2.071668  0
Cd  Cd2  1  0.02682101  0.70239820  0.83646518  1  1.29165  0  0.759347  0.983291  0  2.073286  0
Cd  Cd3  1  0.47317175  0.20217924  0.66358089  1  1.290671  0  0.759119  0.982446  0  2.073536  0
Cd  Cd4  1  0.99999906  0.50004313  0.00002034  1  1.370605  0  0.793561  1.083015  0  2.202013  0
Cd  Cd5  1  0.50001926  0.00013876  0.49997495  1  1.37097  0  0.793545  1.082915  0  2.201916  0
H  H6  1  0.77993072  0.70668239  0.08162745  1  0.123286  0  0.105598  0.113976  0  1.011865  0
H  H7  1  0.72010849  0.20668058  0.41838874  1  0.123309  0  0.1057  0.114061  0  1.011852  0
H  H8  1  0.22004936  0.29333962  0.91829633  1  0.123565  0  0.105577  0.114011  0  1.011496  0
H  H9  1  0.28000185  0.79328637  0.58170877  1  0.123312  0  0.105573  0.113908  0  1.0115  0
H  H10  1  0.51618465  0.64968802  0.87928596  1  0.071417  0  0.10852  0.115186  0  0.994508  0
H  H11  1  0.98390915  0.14969871  0.62071631  1  0.071497  0  0.10854  0.115185  0  0.994583  0
H  H12  1  0.48374339  0.35026860  0.12066394  1  0.072656  0  0.108694  0.115367  0  0.994301  0
H  H13  1  0.01639047  0.85034825  0.37932838  1  0.072876  0  0.108579  0.115325  0  0.994571  0
H  H14  1  0.33810150  0.67488105  0.10410528  1  0.116564  0  0.105613  0.118843  0  1.013769  0
H  H15  1  0.16195183  0.17500805  0.39588595  1  0.116108  0  0.105698  0.11879  0  1.013584  0
H  H16  1  0.66193031  0.32515903  0.89587562  1  0.116378  0  0.105477  0.118833  0  1.013751  0
H  H17  1  0.83813089  0.82529705  0.60409366  1  0.11749  0  0.105404  0.118464  0  1.013874  0
H  H18  1  0.16847998  0.69790966  0.23370988  1  0.150624  0  0.133521  0.155222  0  0.964063  0
H  H19  1  0.33144136  0.19790307  0.26629792  1  0.15111  0  0.133439  0.155166  0  0.96434  0
H  H20  1  0.83138131  0.30208138  0.76630687  1  0.151419  0  0.133409  0.155088  0  0.96462  0
H  H21  1  0.66859662  0.80206732  0.73369987  1  0.151543  0  0.13343  0.155181  0  0.964482  0
H  H22  1  0.98841657  0.73660767  0.22871649  1  0.141576  0  0.13731  0.155052  0  0.938316  0
H  H23  1  0.51149356  0.23661014  0.27128862  1  0.142138  0  0.137249  0.154949  0  0.938212  0
H  H24  1  0.01144596  0.26334982  0.77124769  1  0.142186  0  0.137229  0.154809  0  0.938125  0
H  H25  1  0.48855151  0.76332669  0.72875786  1  0.141733  0  0.137153  0.154738  0  0.938255  0
H  H26  1  0.83058643  0.63954230  0.30464318  1  0.228493  0  0.139346  0.133597  0  0.997016  0
H  H27  1  0.66935392  0.13949492  0.19537865  1  0.228506  0  0.139287  0.133406  0  0.996692  0
H  H28  1  0.16923559  0.36045305  0.69531787  1  0.229685  0  0.139216  0.133288  0  0.99665  0
H  H29  1  0.33073572  0.86039975  0.80469705  1  0.229923  0  0.139365  0.133434  0  0.996589  0
H  H30  1  0.23619493  0.50649682  0.46025529  1  0.133632  0  0.114077  0.125771  0  1.026283  0
H  H31  1  0.26379303  0.00631521  0.03976990  1  0.139541  0  0.114406  0.126872  0  1.025469  0
H  H32  1  0.76372137  0.49397004  0.53977241  1  0.138429  0  0.114934  0.128255  0  1.023925  0
H  H33  1  0.73624378  0.99376789  0.96026428  1  0.13904  0  0.114668  0.127402  0  1.025121  0
H  H34  1  0.25745965  0.58985126  0.33130763  1  0.141429  0  0.143874  0.131257  0  0.961527  0
H  H35  1  0.24250575  0.08976855  0.16875928  1  0.140779  0  0.143899  0.130744  0  0.961789  0
H  H36  1  0.74242208  0.41026798  0.66879739  1  0.138839  0  0.143785  0.130316  0  0.962332  0
H  H37  1  0.75755602  0.91019581  0.83126846  1  0.139499  0  0.1439  0.130665  0  0.962127  0
H  H38  1  0.78933027  0.55458346  0.43279437  1  0.125959  0  0.120246  0.127978  0  1.001692  0
H  H39  1  0.71055563  0.05442282  0.06723677  1  0.126021  0  0.119908  0.127513  0  1.00172  0
H  H40  1  0.21036688  0.44571390  0.56721618  1  0.125014  0  0.11934  0.126406  0  1.002687  0
H  H41  1  0.28952477  0.94554929  0.93280811  1  0.125095  0  0.119698  0.126802  0  1.002361  0
H  H42  1  0.04895028  0.17199135  0.03260580  1  0.610608  0  0.284344  0.380905  0  0.956875  0
H  H43  1  0.45193364  0.67197369  0.46729816  1  0.610348  0  0.28439  0.381055  0  0.956465  0
H  H44  1  0.95047512  0.82800573  0.96756398  1  0.608364  0  0.284324  0.380623  0  0.957489  0
H  H45  1  0.55035906  0.32803968  0.53237065  1  0.654409  0  0.284635  0.380912  0  0.95743  0
H  H46  1  0.95446876  0.06244140  0.02686931  1  0.583673  0  0.29729  0.379776  0  0.936047  0
H  H47  1  0.54388578  0.56080154  0.47334016  1  0.621987  0  0.295988  0.378779  0  0.93816  0
H  H48  1  0.04661093  0.93645344  0.97322870  1  0.610951  0  0.29754  0.378475  0  0.937167  0
H  H49  1  0.45171328  0.43476352  0.52710255  1  0.602133  0  0.29921  0.37958  0  0.934573  0
C  C50  1  0.67680484  0.69444506  0.05516913  1  0.012381  0  -0.072723  -0.086741  0  3.90558  0
C  C51  1  0.82323908  0.19446541  0.44484245  1  0.01291  0  -0.072477  -0.08615  0  3.904898  0
C  C52  1  0.32318770  0.30556577  0.94475664  1  0.012773  0  -0.072791  -0.087109  0  3.906658  0
C  C53  1  0.17687960  0.80556349  0.55524482  1  0.011585  0  -0.073028  -0.087288  0  3.906023  0
C  C54  1  0.56078729  0.69421831  0.10167765  1  -0.08991  0  -0.017631  -0.027759  0  3.956061  0
C  C55  1  0.93925358  0.19424301  0.39832057  1  -0.088933  0  -0.017663  -0.028003  0  3.956197  0
C  C56  1  0.43921873  0.30579252  0.89825706  1  -0.090275  0  -0.018013  -0.028325  0  3.956546  0
C  C57  1  0.06082784  0.80581944  0.60173069  1  -0.092532  0  -0.017859  -0.028112  0  3.956153  0
C  C58  1  0.41136101  0.66265793  0.98758232  1  0.014922  0  -0.013814  -0.018907  0  3.973143  0
C  C59  1  0.08872511  0.16278850  0.51241567  1  0.014279  0  -0.013963  -0.019237  0  3.973133  0
C  C60  1  0.58860025  0.33737785  0.01237403  1  0.013891  0  -0.01362  -0.018625  0  3.972994  0
C  C61  1  0.91152366  0.83753983  0.48761123  1  -0.045101  0  -0.013983  -0.018868  0  3.973585  0
C  C62  1  0.26918770  0.64552615  0.95094065  1  1.604363  0  0.221264  0.620487  0  4.165074  0
C  C63  1  0.23092412  0.14573633  0.54905659  1  1.603277  0  0.221792  0.621472  0  4.166273  0
C  C64  1  0.73074334  0.35457503  0.04903995  1  1.605578  0  0.220937  0.620028  0  4.165983  0
C  C65  1  0.76939121  0.85481743  0.45095258  1  1.603471  0  0.220973  0.619595  0  4.166555  0
C  C66  1  0.52734468  0.66301547  0.94151528  1  -0.032855  0  -0.07706  -0.11408  0  3.941499  0
C  C67  1  0.97274332  0.16307120  0.55848812  1  -0.032775  0  -0.077004  -0.113853  0  3.941695  0
C  C68  1  0.47259895  0.33697385  0.05843089  1  -0.033785  0  -0.077113  -0.114319  0  3.940391  0
C  C69  1  0.02752302  0.83705664  0.44156456  1  -0.03499  0  -0.077094  -0.114446  0  3.941465  0
C  C70  1  0.42807516  0.67673793  0.06763166  1  -0.012938  0  -0.073237  -0.101929  0  3.895039  0
C  C71  1  0.07197288  0.17683983  0.43236295  1  -0.013596  0  -0.073334  -0.101696  0  3.894853  0
C  C72  1  0.57191830  0.32329269  0.93232535  1  -0.012609  0  -0.07308  -0.10196  0  3.894944  0
C  C73  1  0.92816580  0.82341622  0.56765478  1  0.051636  0  -0.072894  -0.10153  0  3.895434  0
C  C74  1  0.06217823  0.66553686  0.23802473  1  0.213714  0  -0.04393  -0.24429  0  3.802105  0
C  C75  1  0.43774242  0.16552607  0.26199786  1  0.21286  0  -0.043729  -0.243872  0  3.801979  0
C  C76  1  0.93768525  0.33443439  0.76196201  1  0.213417  0  -0.043567  -0.243494  0  3.801829  0
C  C77  1  0.56228809  0.83441421  0.73805295  1  0.213577  0  -0.043385  -0.243514  0  3.801797  0
C  C78  1  0.02992201  0.57230091  0.17664562  1  1.64323  0  0.219392  0.635341  0  4.187361  0
C  C79  1  0.47002554  0.07231669  0.32340174  1  1.645004  0  0.219549  0.635731  0  4.187589  0
C  C80  1  0.97004023  0.42768583  0.82332520  1  1.642123  0  0.21917  0.634843  0  4.187436  0
C  C81  1  0.52992781  0.92769587  0.67672265  1  1.643107  0  0.219419  0.63516  0  4.187201  0
C  C82  1  0.91520619  0.60660321  0.34189837  1  0.402951  0  0.085754  0.080613  0  3.786486  0
C  C83  1  0.58472000  0.10651918  0.15813509  1  0.404525  0  0.085964  0.081089  0  3.786399  0
C  C84  1  0.08459805  0.39346527  0.65809527  1  0.405674  0  0.085881  0.080836  0  3.786886  0
C  C85  1  0.41535304  0.89338409  0.84193449  1  0.403485  0  0.085545  0.080817  0  3.78651  0
C  C86  1  0.14133680  0.53211558  0.42923498  1  0.097491  0  -0.064309  -0.145459  0  3.914833  0
C  C87  1  0.35858968  0.03199002  0.07081168  1  0.090562  0  -0.064403  -0.145578  0  3.914035  0
C  C88  1  0.85843084  0.46811638  0.57081803  1  0.090052  0  -0.064565  -0.146129  0  3.911886  0
C  C89  1  0.64148764  0.96799328  0.92922447  1  0.090431  0  -0.064565  -0.146217  0  3.913483  0
C  C90  1  0.15676869  0.57950033  0.35701904  1  0.409748  0  0.079704  0.071302  0  3.809491  0
C  C91  1  0.34317234  0.07941414  0.14302072  1  0.408548  0  0.079712  0.071751  0  3.809542  0
C  C92  1  0.84304581  0.42059741  0.64300717  1  0.40879  0  0.079586  0.071068  0  3.810253  0
C  C93  1  0.65690702  0.92053129  0.85702646  1  0.408433  0  0.079383  0.071176  0  3.810171  0
C  C94  1  0.00892435  0.52251203  0.46053964  1  -0.020877  0  0.030737  0.11182  0  3.93737  0
C  C95  1  0.49100671  0.02236816  0.03950935  1  -0.022781  0  0.031125  0.111935  0  3.937112  0
C  C96  1  0.99086098  0.47776037  0.53950794  1  -0.004569  0  0.031096  0.112409  0  3.937013  0
C  C97  1  0.50906747  0.97762890  0.96053482  1  -0.06184  0  0.031091  0.112625  0  3.936791  0
C  C98  1  0.89538270  0.55866700  0.41383654  1  0.063887  0  -0.055683  -0.127469  0  3.895837  0
C  C99  1  0.60452889  0.05852453  0.08622288  1  0.064587  0  -0.055995  -0.127746  0  3.895983  0
C  C100  1  0.10435173  0.44155034  0.58620713  1  0.005987  0  -0.05547  -0.12692  0  3.89728  0
C  C101  1  0.39556394  0.94143381  0.91383381  1  0.066003  0  -0.055625  -0.127167  0  3.896341  0
C  C102  1  0.57723857  0.71522345  0.18746278  1  1.556293  0  0.190025  0.565726  0  4.227733  0
C  C103  1  0.92276504  0.21521300  0.31252500  1  1.556261  0  0.190103  0.5657  0  4.227571  0
C  C104  1  0.42278406  0.28475726  0.81247458  1  1.553573  0  0.190489  0.566542  0  4.226169  0
C  C105  1  0.07722296  0.78474448  0.68750414  1  1.554461  0  0.189989  0.565763  0  4.227416  0
C  C106  1  0.66030582  0.67802642  0.97511604  1  -0.013026  0  -0.024286  -0.042244  0  4.009541  0
C  C107  1  0.83977317  0.17805737  0.52489711  1  -0.01265  0  -0.024125  -0.042368  0  4.010171  0
C  C108  1  0.33964620  0.32198441  0.02481123  1  -0.012343  0  -0.023902  -0.041206  0  4.008343  0
C  C109  1  0.16045561  0.82201283  0.47519643  1  -0.013333  0  -0.023705  -0.041045  0  4.008117  0
C  C110  1  0.78133443  0.67872285  0.92388480  1  1.479074  0  0.202434  0.568015  0  4.185316  0
C  C111  1  0.71878700  0.17875225  0.57616100  1  1.478597  0  0.202186  0.56776  0  4.185375  0
C  C112  1  0.21858641  0.32127335  0.07604415  1  1.479905  0  0.202573  0.568483  0  4.185911  0
C  C113  1  0.28155272  0.82130590  0.42399316  1  1.479403  0  0.20249  0.568902  0  4.184935  0
N  N114  1  0.04483309  0.61864091  0.31559243  1  -1.222328  0  -0.202507  0.128107  0  3.777013  0
N  N115  1  0.45510415  0.11859318  0.18443885  1  -1.22201  0  -0.202812  0.127026  0  3.777677  0
N  N116  1  0.95498260  0.38134755  0.68439508  1  -1.221455  0  -0.202871  0.127468  0  3.777991  0
N  N117  1  0.54497721  0.88130235  0.81562743  1  -1.221298  0  -0.20262  0.127667  0  3.777649  0
O  O118  1  0.76445960  0.68295073  0.85156841  1  -1.12533  0  -0.311231  -0.53445  0  2.164599  0
O  O119  1  0.73568348  0.18269069  0.64847497  1  -1.125178  0  -0.311004  -0.53416  0  2.163573  0
O  O120  1  0.23545823  0.31682348  0.14833620  1  -1.124504  0  -0.310915  -0.534263  0  2.165431  0
O  O121  1  0.26468839  0.81666793  0.35169776  1  -1.12413  0  -0.310828  -0.534744  0  2.165381  0
O  O122  1  0.90627198  0.67958159  0.95642226  1  -1.176714  0  -0.341206  -0.623983  0  2.364371  0
O  O123  1  0.59381406  0.17993530  0.54362919  1  -1.176408  0  -0.341069  -0.624182  0  2.363757  0
O  O124  1  0.09366762  0.32062455  0.04348973  1  -1.176405  0  -0.341465  -0.624365  0  2.364142  0
O  O125  1  0.40643930  0.82089379  0.45655618  1  -1.176378  0  -0.341868  -0.624386  0  2.364057  0
O  O126  1  0.97040080  0.48284422  0.20017235  1  -1.172729  0  -0.328292  -0.568335  0  2.31736  0
O  O127  1  0.52947623  0.98282852  0.29992856  1  -1.172815  0  -0.328132  -0.568669  0  2.317498  0
O  O128  1  0.02971014  0.51706250  0.79976506  1  -1.171582  0  -0.328287  -0.568266  0  2.317399  0
O  O129  1  0.47018151  0.01702142  0.70034245  1  -1.171043  0  -0.328329  -0.567988  0  2.317897  0
O  O130  1  0.21166497  0.54999463  0.96232681  1  -1.170035  0  -0.318787  -0.559283  0  2.333451  0
O  O131  1  0.28840692  0.05014953  0.53780885  1  -1.168733  0  -0.318697  -0.559355  0  2.333668  0
O  O132  1  0.78827372  0.45010052  0.03755222  1  -1.170351  0  -0.318966  -0.559418  0  2.33297  0
O  O133  1  0.71178524  0.95024161  0.46262440  1  -1.172997  0  -0.318924  -0.559108  0  2.334512  0
O  O134  1  0.06582649  0.59864962  0.10943901  1  -1.157569  0  -0.321358  -0.552951  0  2.24502  0
O  O135  1  0.43416765  0.09879827  0.39061582  1  -1.159366  0  -0.321919  -0.553579  0  2.244271  0
O  O136  1  0.93407965  0.40144725  0.89053125  1  -1.157833  0  -0.321095  -0.552362  0  2.244555  0
O  O137  1  0.56594048  0.90159373  0.60951170  1  -1.159345  0  -0.321094  -0.552445  0  2.244763  0
O  O138  1  0.21963065  0.72902602  0.91026845  1  -1.15786  0  -0.324953  -0.576811  0  2.292273  0
O  O139  1  0.28057871  0.22933937  0.58960359  1  -1.158887  0  -0.325489  -0.577914  0  2.29236  0
O  O140  1  0.78022838  0.27116981  0.08979681  1  -1.157715  0  -0.324332  -0.575997  0  2.293399  0
O  O141  1  0.72005179  0.77154392  0.41002990  1  -1.154435  0  -0.324337  -0.575637  0  2.2937  0
O  O142  1  0.04079320  0.09141336  0.05043381  1  -1.207746  0  -0.598945  -0.773896  0  1.928923  0
O  O143  1  0.45961034  0.59185122  0.44859521  1  -1.246169  0  -0.599681  -0.773996  0  1.928508  0
O  O144  1  0.95913286  0.90885905  0.95031196  1  -1.232316  0  -0.597965  -0.77187  0  1.93145  0
O  O145  1  0.54094518  0.40922049  0.54889296  1  -1.268993  0  -0.597977  -0.772194  0  1.931982  0
O  O146  1  0.46375732  0.71429364  0.22568838  1  -1.139444  0  -0.34766  -0.575067  0  2.20792  0
O  O147  1  0.03622269  0.21424291  0.27427447  1  -1.13967  0  -0.347737  -0.575068  0  2.207849  0
O  O148  1  0.53623744  0.28583421  0.77419928  1  -1.140007  0  -0.348103  -0.575636  0  2.207633  0
O  O149  1  0.96374037  0.78577653  0.72575417  1  -1.139732  0  -0.347902  -0.575201  0  2.207406  0
O  O150  1  0.69518854  0.73591258  0.21814649  1  -1.182584  0  -0.338435  -0.571326  0  2.108429  0
O  O151  1  0.80480890  0.23592940  0.28185750  1  -1.182379  0  -0.338401  -0.571103  0  2.108291  0
O  O152  1  0.30487773  0.26386421  0.78179233  1  -1.181227  0  -0.33867  -0.571487  0  2.108082  0
O  O153  1  0.19511979  0.76388439  0.71819414  1  -1.181936  0  -0.338483  -0.571332  0  2.109008  0
