# generated using pymatgen
data_CaH10C10(NO2)4
_symmetry_space_group_name_H-M   'P 1'
_cell_length_a   3.74802463
_cell_length_b   10.12516220
_cell_length_c   18.39573402
_cell_angle_alpha   78.91061306
_cell_angle_beta   84.19987121
_cell_angle_gamma   79.32493931
_symmetry_Int_Tables_number   1
_chemical_formula_structural   CaH10C10(NO2)4
_chemical_formula_sum   'Ca2 H20 C20 N8 O16'
_cell_volume   671.66393451
_cell_formula_units_Z   2
loop_
 _symmetry_equiv_pos_site_id
 _symmetry_equiv_pos_as_xyz
  1  'x, y, z'
loop_
 _atom_site_type_symbol
 _atom_site_label
 _atom_site_symmetry_multiplicity
 _atom_site_fract_x
 _atom_site_fract_y
 _atom_site_fract_z
 _atom_site_occupancy
 _atom_site_hle17_bader_spin_density
 _atom_site_hle17_ddec_charge
 _atom_site_hle17_ddec_spin_density
 _atom_site_hle17_ddec_sum_bond_order
 _atom_site_hle17_magmom
 _atom_site_hse06_10hf_bader_spin_density
 _atom_site_hse06_10hf_ddec_charge
 _atom_site_hse06_10hf_ddec_spin_density
 _atom_site_hse06_10hf_ddec_sum_bond_order
 _atom_site_hse06_10hf_magmom
 _atom_site_hse06_bader_spin_density
 _atom_site_hse06_ddec_charge
 _atom_site_hse06_ddec_spin_density
 _atom_site_hse06_ddec_sum_bond_order
 _atom_site_hse06_magmom
 _atom_site_pbe_bader_spin_density
 _atom_site_pbe_cm5_charge
 _atom_site_pbe_ddec_charge
 _atom_site_pbe_ddec_spin_density
 _atom_site_pbe_ddec_sum_bond_order
 _atom_site_pbe_magmom
Ca  Ca0  1  0.93191908  0.74986480  0.24995561  1  0  1.499806  0  1.117335  0  0  1.356392  0  1.466988  0  0  1.403113  0  1.421443  0  0  0.879095  1.320826  0  1.499273  0
Ca  Ca1  1  0.06808985  0.25013556  0.75004378  1  0  1.499871  0  1.117243  0  0  1.356404  0  1.466971  0  0  1.403126  0  1.421429  0  0  0.879092  1.320833  0  1.499252  0
H  H2  1  0.67577732  0.12245357  0.44015925  1  0  0.305375  0  0.897717  0  0  0.279984  0  0.969785  0  0  0.288888  0  0.962137  0  0  0.315589  0.273392  0  0.975533  0
H  H3  1  0.23981783  0.37730448  0.06001747  1  0  0.304886  0  0.897288  0  0  0.279158  0  0.969399  0  0  0.288091  0  0.961777  0  0  0.315802  0.272634  0  0.975291  0
H  H4  1  0.32422403  0.87754374  0.55984136  1  0  0.305292  0  0.897814  0  0  0.279857  0  0.969916  0  0  0.288762  0  0.962274  0  0  0.315528  0.273264  0  0.975662  0
H  H5  1  0.76017496  0.62269792  0.93998083  1  0  0.304888  0  0.897283  0  0  0.279183  0  0.969411  0  0  0.288121  0  0.961787  0  0  0.315815  0.272661  0  0.9753  0
H  H6  1  0.45511682  0.15857211  0.32499889  1  0  0.094134  0  0.969364  0  0  0.099773  0  1.037891  0  0  0.103266  0  1.034076  0  0  0.122563  0.097389  0  1.040318  0
H  H7  1  0.93713626  0.34098440  0.17480286  1  0  0.093085  0  0.969659  0  0  0.09852  0  1.038468  0  0  0.102009  0  1.034652  0  0  0.122267  0.096076  0  1.041032  0
H  H8  1  0.54488089  0.84142623  0.67500211  1  0  0.094156  0  0.969319  0  0  0.099782  0  1.037872  0  0  0.103279  0  1.034047  0  0  0.122567  0.097396  0  1.040303  0
H  H9  1  0.06285870  0.65901902  0.82519540  1  0  0.093085  0  0.969555  0  0  0.09851  0  1.038372  0  0  0.102001  0  1.034543  0  0  0.122238  0.096064  0  1.040934  0
H  H10  1  0.34265151  0.39863435  0.24967986  1  0  0.129296  0  0.973328  0  0  0.134562  0  1.040355  0  0  0.138377  0  1.039217  0  0  0.112313  0.131912  0  1.041204  0
H  H11  1  0.98803349  0.10089280  0.24994155  1  0  0.128169  0  0.975205  0  0  0.13405  0  1.041599  0  0  0.137939  0  1.040387  0  0  0.111841  0.131319  0  1.042591  0
H  H12  1  0.65734675  0.60136399  0.75032060  1  0  0.129294  0  0.973371  0  0  0.134539  0  1.040405  0  0  0.138351  0  1.039275  0  0  0.112282  0.131887  0  1.041254  0
H  H13  1  0.01196727  0.89911166  0.75005840  1  0  0.128172  0  0.97524  0  0  0.134089  0  1.041587  0  0  0.13797  0  1.040383  0  0  0.111844  0.131355  0  1.042583  0
H  H14  1  0.71788677  0.53838611  0.43170081  1  0  0.136403  0  0.953678  0  0  0.144417  0  1.01366  0  0  0.148142  0  1.013025  0  0  0.115385  0.141806  0  1.014404  0
H  H15  1  0.68707827  0.96121462  0.06834953  1  0  0.136462  0  0.954931  0  0  0.144329  0  1.015248  0  0  0.148159  0  1.014444  0  0  0.115603  0.1418  0  1.015661  0
H  H16  1  0.28211450  0.46161019  0.56830044  1  0  0.13645  0  0.953734  0  0  0.14444  0  1.01374  0  0  0.148166  0  1.013107  0  0  0.115408  0.141809  0  1.014508  0
H  H17  1  0.31292549  0.03878781  0.93165122  1  0  0.136457  0  0.954897  0  0  0.144321  0  1.015214  0  0  0.148151  0  1.014411  0  0  0.115621  0.141792  0  1.01563  0
H  H18  1  0.80577595  0.29500118  0.49990133  1  0  0.097763  0  0.97774  0  0  0.099177  0  1.051226  0  0  0.103696  0  1.045846  0  0  0.12133  0.095754  0  1.055136  0
H  H19  1  0.60193764  0.20468837  0.00036224  1  0  0.098589  0  0.97638  0  0  0.099177  0  1.050772  0  0  0.103691  0  1.04541  0  0  0.121624  0.09604  0  1.054314  0
H  H20  1  0.19422323  0.70499511  0.50009933  1  0  0.097776  0  0.977716  0  0  0.099192  0  1.0512  0  0  0.10371  0  1.045822  0  0  0.121355  0.095769  0  1.055108  0
H  H21  1  0.39805353  0.79531405  0.99963769  1  0  0.098587  0  0.976381  0  0  0.099176  0  1.050769  0  0  0.103691  0  1.045407  0  0  0.121644  0.09604  0  1.05431  0
C  C22  1  0.50375025  0.24806090  0.34463019  1  0  0.133608  0  3.699398  0  0  0.092121  0  3.959274  0  0  0.102794  0  3.975554  0  0  0.043543  0.084899  0  3.948696  0
C  C23  1  0.09501915  0.25152761  0.15519770  1  0  0.135843  0  3.700273  0  0  0.094338  0  3.959887  0  0  0.105031  0  3.976137  0  0  0.04412  0.087565  0  3.94844  0
C  C24  1  0.49624792  0.75193642  0.65537091  1  0  0.133646  0  3.699376  0  0  0.092134  0  3.959241  0  0  0.102809  0  3.975525  0  0  0.043525  0.084909  0  3.948656  0
C  C25  1  0.90497489  0.74847785  0.84480035  1  0  0.135821  0  3.700241  0  0  0.094384  0  3.959872  0  0  0.105084  0  3.976124  0  0  0.044124  0.087611  0  3.948419  0
C  C26  1  0.44687778  0.37817717  0.30451142  1  0  -0.263261  0  3.692605  0  0  -0.278886  0  3.948511  0  0  -0.293139  0  3.96916  0  0  -0.098709  -0.26961  0  3.934644  0
C  C27  1  0.12730077  0.12135330  0.19522356  1  0  -0.263716  0  3.69579  0  0  -0.280201  0  3.951073  0  0  -0.294571  0  3.971698  0  0  -0.098533  -0.270926  0  3.937387  0
C  C28  1  0.55311877  0.62181912  0.69548919  1  0  -0.263432  0  3.692621  0  0  -0.278998  0  3.948505  0  0  -0.293258  0  3.969164  0  0  -0.098728  -0.26972  0  3.934631  0
C  C29  1  0.87270015  0.87865319  0.80477510  1  0  -0.263761  0  3.696021  0  0  -0.280289  0  3.951274  0  0  -0.294652  0  3.971898  0  0  -0.09854  -0.271016  0  3.937586  0
C  C30  1  0.52481526  0.48947150  0.33402698  1  0  0.456877  0  3.85416  0  0  0.443306  0  4.105235  0  0  0.467255  0  4.113197  0  0  0.124996  0.427348  0  4.099304  0
C  C31  1  0.34658668  0.01006601  0.16582107  1  0  0.455851  0  3.856281  0  0  0.443394  0  4.10607  0  0  0.467397  0  4.113931  0  0  0.12517  0.427056  0  4.10019  0
C  C32  1  0.47518801  0.51052274  0.66597340  1  0  0.457099  0  3.854058  0  0  0.443527  0  4.105127  0  0  0.467476  0  4.113095  0  0  0.125156  0.427568  0  4.099189  0
C  C33  1  0.65341971  0.98993642  0.83417974  1  0  0.455892  0  3.856019  0  0  0.44346  0  4.105792  0  0  0.467463  0  4.113651  0  0  0.125117  0.427122  0  4.099913  0
C  C34  1  0.65491514  0.45698899  0.40678857  1  0  -0.2611  0  3.671963  0  0  -0.275807  0  3.923952  0  0  -0.290079  0  3.944268  0  0  -0.094181  -0.266711  0  3.910683  0
C  C35  1  0.51750502  0.04258020  0.09319658  1  0  -0.260694  0  3.67326  0  0  -0.27593  0  3.925222  0  0  -0.290261  0  3.945332  0  0  -0.094844  -0.266433  0  3.911347  0
C  C36  1  0.34508666  0.54300730  0.59321214  1  0  -0.261113  0  3.671915  0  0  -0.275854  0  3.923998  0  0  -0.29012  0  3.944296  0  0  -0.094239  -0.266747  0  3.910749  0
C  C37  1  0.48249611  0.95742223  0.90680411  1  0  -0.260668  0  3.673106  0  0  -0.275905  0  3.925067  0  0  -0.290234  0  3.945175  0  0  -0.09482  -0.266411  0  3.911194  0
C  C38  1  0.70365450  0.32476320  0.44465016  1  0  0.150327  0  3.673498  0  0  0.106686  0  3.937235  0  0  0.117524  0  3.952422  0  0  0.048784  0.099889  0  3.926797  0
C  C39  1  0.47308949  0.17488493  0.05544731  1  0  0.148524  0  3.674418  0  0  0.105177  0  3.938033  0  0  0.116059  0  3.953125  0  0  0.04827  0.098217  0  3.927558  0
C  C40  1  0.29635002  0.67523410  0.55534997  1  0  0.150298  0  3.6734  0  0  0.106661  0  3.937129  0  0  0.117501  0  3.952319  0  0  0.048744  0.099861  0  3.926684  0
C  C41  1  0.52690314  0.82511543  0.94455228  1  0  0.148489  0  3.674354  0  0  0.1052  0  3.938008  0  0  0.116085  0  3.953105  0  0  0.048255  0.09824  0  3.927527  0
N  N42  1  0.81511231  0.87178794  0.39053715  1  0  0.695779  0  4.153591  0  0  0.724194  0  4.452169  0  0  0.752236  0  4.458026  0  0  0.097418  0.705195  0  4.447679  0
N  N43  1  0.08003371  0.62825875  0.10920188  1  0  0.695051  0  4.156751  0  0  0.7253  0  4.453324  0  0  0.753522  0  4.45915  0  0  0.096459  0.70765  0  4.448686  0
N  N44  1  0.18488758  0.12821038  0.60946168  1  0  0.695773  0  4.153617  0  0  0.724209  0  4.452158  0  0  0.752252  0  4.458017  0  0  0.097408  0.70521  0  4.44767  0
N  N45  1  0.91996897  0.37174264  0.89079783  1  0  0.695167  0  4.15668  0  0  0.725412  0  4.453243  0  0  0.753633  0  4.459071  0  0  0.096453  0.707734  0  4.448615  0
N  N46  1  0.63166579  0.22276430  0.41318159  1  0  -0.252621  0  3.49456  0  0  -0.186716  0  3.734451  0  0  -0.20461  0  3.749796  0  0  -0.366702  -0.174657  0  3.723947  0
N  N47  1  0.26744132  0.27691289  0.08683776  1  0  -0.25251  0  3.495331  0  0  -0.185385  0  3.734127  0  0  -0.203205  0  3.749293  0  0  -0.366926  -0.173391  0  3.723802  0
N  N48  1  0.36833764  0.77723302  0.58681962  1  0  -0.252603  0  3.494666  0  0  -0.186618  0  3.734539  0  0  -0.204515  0  3.749885  0  0  -0.366658  -0.174553  0  3.724022  0
N  N49  1  0.73255302  0.72308952  0.91316168  1  0  -0.252416  0  3.495226  0  0  -0.185448  0  3.734151  0  0  -0.203282  0  3.749332  0  0  -0.366918  -0.173458  0  3.723822  0
O  O50  1  0.47998702  0.61292852  0.29640045  1  0  -0.732555  0  2.029735  0  0  -0.664954  0  2.284947  0  0  -0.694287  0  2.276404  0  0  -0.423125  -0.643692  0  2.289729  0
O  O51  1  0.38783223  0.88661730  0.20345943  1  0  -0.730753  0  2.030415  0  0  -0.664431  0  2.286298  0  0  -0.693652  0  2.277537  0  0  -0.422757  -0.642615  0  2.291168  0
O  O52  1  0.52001996  0.38706676  0.70360101  1  0  -0.732629  0  2.02975  0  0  -0.665031  0  2.284995  0  0  -0.694364  0  2.27645  0  0  -0.423164  -0.64377  0  2.289776  0
O  O53  1  0.61216652  0.11338922  0.79654140  1  0  -0.730813  0  2.030115  0  0  -0.664464  0  2.285967  0  0  -0.693694  0  2.277217  0  0  -0.42274  -0.64263  0  2.290786  0
O  O54  1  0.70354583  0.93832357  0.32854506  1  0  -0.507249  0  1.791084  0  0  -0.489985  0  2.015768  0  0  -0.506278  0  2.009029  0  0  -0.197509  -0.478117  0  2.019654  0
O  O55  1  0.97562801  0.56135784  0.17128514  1  0  -0.508095  0  1.790235  0  0  -0.491161  0  2.01395  0  0  -0.507654  0  2.007365  0  0  -0.198022  -0.48033  0  2.018389  0
O  O56  1  0.29646194  0.06167474  0.67145393  1  0  -0.507263  0  1.791053  0  0  -0.490018  0  2.01573  0  0  -0.506316  0  2.008995  0  0  -0.197521  -0.478146  0  2.019612  0
O  O57  1  0.02437258  0.43864354  0.82871397  1  0  -0.508139  0  1.790275  0  0  -0.491195  0  2.013985  0  0  -0.507675  0  2.007374  0  0  -0.197998  -0.480345  0  2.018414  0
O  O58  1  0.95797936  0.74697117  0.39364321  1  0  -0.486307  0  1.782165  0  0  -0.470445  0  2.003512  0  0  -0.486206  0  1.997181  0  0  -0.181564  -0.45914  0  2.007562  0
O  O59  1  0.09468389  0.75367168  0.10581319  1  0  -0.485879  0  1.785962  0  0  -0.469723  0  2.00591  0  0  -0.485607  0  1.999762  0  0  -0.180414  -0.459168  0  2.009803  0
O  O60  1  0.04201510  0.25302512  0.60635679  1  0  -0.486292  0  1.782215  0  0  -0.470393  0  2.00351  0  0  -0.486152  0  1.997179  0  0  -0.181519  -0.45909  0  2.007563  0
O  O61  1  0.90532813  0.24632767  0.89418635  1  0  -0.485977  0  1.785901  0  0  -0.469818  0  2.005826  0  0  -0.485705  0  1.999686  0  0  -0.180469  -0.45926  0  2.009723  0
O  O62  1  0.78612000  0.92755328  0.44695955  1  0  -0.446353  0  1.752562  0  0  -0.435535  0  1.962747  0  0  -0.449047  0  1.956099  0  0  -0.179668  -0.425874  0  1.967057  0
O  O63  1  0.16701719  0.57217012  0.05295464  1  0  -0.44474  0  1.7517  0  0  -0.434907  0  1.961019  0  0  -0.448601  0  1.954555  0  0  -0.179218  -0.426107  0  1.965793  0
O  O64  1  0.21387881  0.07244505  0.55304036  1  0  -0.446368  0  1.752616  0  0  -0.435547  0  1.962795  0  0  -0.449065  0  1.956157  0  0  -0.179684  -0.425884  0  1.967104  0
O  O65  1  0.83297806  0.42783025  0.94704501  1  0  -0.444734  0  1.751692  0  0  -0.434893  0  1.961022  0  0  -0.448593  0  1.954561  0  0  -0.179176  -0.426086  0  1.965796  0
