# generated using pymatgen
data_CdH28C20(N4Cl)2
_symmetry_space_group_name_H-M   'P 1'
_cell_length_a   7.68614048
_cell_length_b   8.60285595
_cell_length_c   18.70800000
_cell_angle_alpha   90.00000000
_cell_angle_beta   90.00000000
_cell_angle_gamma   112.72911464
_symmetry_Int_Tables_number   1
_chemical_formula_structural   CdH28C20(N4Cl)2
_chemical_formula_sum   'Cd2 H56 C40 N16 Cl4'
_cell_volume   1140.95957161
_cell_formula_units_Z   2
loop_
 _symmetry_equiv_pos_site_id
 _symmetry_equiv_pos_as_xyz
  1  'x, y, z'
loop_
 _atom_site_type_symbol
 _atom_site_label
 _atom_site_symmetry_multiplicity
 _atom_site_fract_x
 _atom_site_fract_y
 _atom_site_fract_z
 _atom_site_occupancy
 _atom_site_hle17_bader_spin_density
 _atom_site_hle17_ddec_charge
 _atom_site_hle17_ddec_spin_density
 _atom_site_hle17_ddec_sum_bond_order
 _atom_site_hle17_magmom
 _atom_site_hse06_10hf_bader_spin_density
 _atom_site_hse06_10hf_ddec_charge
 _atom_site_hse06_10hf_ddec_spin_density
 _atom_site_hse06_10hf_ddec_sum_bond_order
 _atom_site_hse06_10hf_magmom
 _atom_site_hse06_bader_spin_density
 _atom_site_hse06_ddec_charge
 _atom_site_hse06_ddec_spin_density
 _atom_site_hse06_ddec_sum_bond_order
 _atom_site_hse06_magmom
 _atom_site_pbe_bader_charge
 _atom_site_pbe_bader_spin_density
 _atom_site_pbe_cm5_charge
 _atom_site_pbe_ddec_charge
 _atom_site_pbe_ddec_spin_density
 _atom_site_pbe_ddec_sum_bond_order
 _atom_site_pbe_magmom
Cd  Cd0  1  0.00000134  0.49999910  0.00000000  1  0  0.97237  0  1.929916  0  0  0.786324  0  2.378687  0  0  0.832628  0  2.341465  0  1.196938  0  0.685436  0.754073  0  2.403626  0
Cd  Cd1  1  0.49999997  0.00000000  0.50000053  1  0  0.972359  0  1.929907  0  0  0.786313  0  2.378674  0  0  0.832618  0  2.341452  0  1.196938  0  0.685436  0.754063  0  2.403612  0
H  H2  1  0.46770541  0.65067005  0.95102683  1  0  0.087903  0  0.981134  0  0  0.091156  0  1.059523  0  0  0.09386  0  1.055679  0  0.164494  0  0.116846  0.089086  0  1.062326  0
H  H3  1  0.03229316  0.84932977  0.45102683  1  0  0.087894  0  0.981182  0  0  0.091149  0  1.059566  0  0  0.093853  0  1.055724  0  0.164483  0  0.116848  0.08908  0  1.062368  0
H  H4  1  0.53229309  0.34933067  0.04897317  1  0  0.087892  0  0.981183  0  0  0.091145  0  1.059571  0  0  0.093848  0  1.05573  0  0.164466  0  0.116846  0.089079  0  1.062364  0
H  H5  1  0.96770664  0.15067095  0.54897424  1  0  0.087898  0  0.981153  0  0  0.091155  0  1.059532  0  0  0.093858  0  1.05569  0  0.164497  0  0.116852  0.089083  0  1.06234  0
H  H6  1  0.98254745  0.07359000  0.77699059  1  0  0.069131  0  0.937526  0  0  0.088629  0  0.997018  0  0  0.088921  0  0.99834  0  0.048798  0  0.091313  0.088305  0  0.996239  0
H  H7  1  0.51745043  0.42641037  0.27698952  1  0  0.06915  0  0.937484  0  0  0.088641  0  0.996976  0  0  0.088932  0  0.998302  0  0.048732  0  0.09132  0.088318  0  0.996192  0
H  H8  1  0.01745202  0.92640695  0.22300834  1  0  0.069146  0  0.937519  0  0  0.088661  0  0.997017  0  0  0.08895  0  0.998345  0  0.048779  0  0.091327  0.088352  0  0.996218  0
H  H9  1  0.48254676  0.57359036  0.72300887  1  0  0.069137  0  0.937518  0  0  0.088638  0  0.99702  0  0  0.08893  0  0.998341  0  0.048804  0  0.091318  0.088314  0  0.996242  0
H  H10  1  0.02481376  0.92345664  0.83105623  1  0  0.072354  0  0.954625  0  0  0.09018  0  1.016676  0  0  0.090679  0  1.017731  0  0.039343  0  0.092363  0.089764  0  1.015993  0
H  H11  1  0.47518481  0.57654318  0.33105623  1  0  0.07237  0  0.954602  0  0  0.090189  0  1.016646  0  0  0.090689  0  1.017702  0  0.039308  0  0.092375  0.089772  0  1.015963  0
H  H12  1  0.97518680  0.07654282  0.16894323  1  0  0.072364  0  0.954605  0  0  0.090205  0  1.016653  0  0  0.090704  0  1.017707  0  0.039339  0  0.092386  0.089788  0  1.015975  0
H  H13  1  0.52481499  0.42345754  0.66894323  1  0  0.072366  0  0.954598  0  0  0.090196  0  1.016645  0  0  0.090695  0  1.017699  0  0.039335  0  0.092383  0.089779  0  1.015965  0
H  H14  1  0.46908761  0.13003394  0.89940133  1  0  0.108949  0  0.988196  0  0  0.116539  0  1.055637  0  0  0.118852  0  1.054978  0  0.108701  0  0.114859  0.11482  0  1.056266  0
H  H15  1  0.03090849  0.36996516  0.39940079  1  0  0.108899  0  0.988066  0  0  0.116454  0  1.055577  0  0  0.118765  0  1.054913  0  0.108738  0  0.114848  0.114733  0  1.056202  0
H  H16  1  0.53091013  0.86996804  0.10059974  1  0  0.108897  0  0.98811  0  0  0.116453  0  1.05562  0  0  0.118763  0  1.054955  0  0.108749  0  0.114839  0.114732  0  1.056245  0
H  H17  1  0.96909076  0.63003431  0.60059761  1  0  0.10899  0  0.988199  0  0  0.116574  0  1.055642  0  0  0.118889  0  1.054982  0  0.108685  0  0.114877  0.114855  0  1.056268  0
H  H18  1  0.06564083  0.94864450  0.58741608  1  0  0.094047  0  0.9773  0  0  0.096778  0  1.055849  0  0  0.09965  0  1.051875  0  0.145025  0  0.120874  0.094626  0  1.058711  0
H  H19  1  0.43436013  0.55135784  0.08741661  1  0  0.093987  0  0.977328  0  0  0.096734  0  1.055871  0  0  0.099602  0  1.051894  0  0.14504  0  0.120866  0.094582  0  1.05873  0
H  H20  1  0.93435658  0.05135370  0.41258392  1  0  0.094022  0  0.977315  0  0  0.096764  0  1.055856  0  0  0.099632  0  1.051878  0  0.145042  0  0.120872  0.094612  0  1.058716  0
H  H21  1  0.56564542  0.44864414  0.91258339  1  0  0.093961  0  0.977301  0  0  0.096708  0  1.05585  0  0  0.099575  0  1.051868  0  0.144753  0  0.120881  0.094559  0  1.058706  0
H  H22  1  0.63927049  0.91772869  0.78481612  1  0  0.060445  0  0.960808  0  0  0.079855  0  1.023194  0  0  0.08005  0  1.024519  0  0.016727  0  0.088891  0.079663  0  1.022325  0
H  H23  1  0.86072932  0.58227113  0.28481612  1  0  0.060456  0  0.960828  0  0  0.079856  0  1.023196  0  0  0.080055  0  1.024524  0  0.016733  0  0.088895  0.079665  0  1.022325  0
H  H24  1  0.36073137  0.08227077  0.21518441  1  0  0.060399  0  0.960824  0  0  0.079801  0  1.023211  0  0  0.080004  0  1.024536  0  0.016694  0  0.088864  0.079609  0  1.022341  0
H  H25  1  0.13926993  0.41772833  0.71518388  1  0  0.060444  0  0.960849  0  0  0.079851  0  1.023211  0  0  0.080052  0  1.024536  0  0.01673  0  0.088894  0.079659  0  1.022339  0
H  H26  1  0.66825280  0.74485547  0.82659557  1  0  0.061511  0  0.948924  0  0  0.079056  0  1.013437  0  0  0.079444  0  1.014342  0  0.030477  0  0.088652  0.078672  0  1.012918  0
H  H27  1  0.83174756  0.75514561  0.32659557  1  0  0.061562  0  0.948867  0  0  0.079067  0  1.013407  0  0  0.079454  0  1.014312  0  0.03047  0  0.088654  0.078669  0  1.012904  0
H  H28  1  0.33174885  0.25514651  0.17340496  1  0  0.061531  0  0.948901  0  0  0.079025  0  1.013459  0  0  0.079413  0  1.014365  0  0.030476  0  0.088633  0.078631  0  1.01295  0
H  H29  1  0.16825246  0.24485259  0.67340389  1  0  0.061539  0  0.948886  0  0  0.07904  0  1.013434  0  0  0.079428  0  1.014339  0  0.030473  0  0.088636  0.078642  0  1.012929  0
H  H30  1  0.87195897  0.69932928  0.73891758  1  0  0.067818  0  0.938616  0  0  0.081263  0  1.006392  0  0  0.081489  0  1.007541  0  0.064561  0  0.103166  0.080989  0  1.005729  0
H  H31  1  0.62804192  0.80067306  0.23891864  1  0  0.06785  0  0.938617  0  0  0.081262  0  1.006419  0  0  0.08149  0  1.007572  0  0.064526  0  0.103185  0.080986  0  1.005754  0
H  H32  1  0.12804309  0.30066766  0.26108242  1  0  0.067843  0  0.938612  0  0  0.081266  0  1.006406  0  0  0.081494  0  1.007555  0  0.064599  0  0.103167  0.080991  0  1.005743  0
H  H33  1  0.37196157  0.19933018  0.76108189  1  0  0.067823  0  0.938638  0  0  0.081258  0  1.006415  0  0  0.081487  0  1.007566  0  0.06458  0  0.103173  0.080984  0  1.005751  0
H  H34  1  0.83731060  0.84959065  0.68189812  1  0  0.078826  0  0.943905  0  0  0.092191  0  1.011207  0  0  0.093538  0  1.009935  0  0.080498  0  0.103763  0.091092  0  1.01223  0
H  H35  1  0.66268899  0.65041170  0.18189812  1  0  0.078854  0  0.943836  0  0  0.092236  0  1.011118  0  0  0.093584  0  1.009848  0  0.080518  0  0.103757  0.091133  0  1.012143  0
H  H36  1  0.16268647  0.15040377  0.31810188  1  0  0.078791  0  0.943949  0  0  0.092179  0  1.011199  0  0  0.093527  0  1.009927  0  0.080481  0  0.103753  0.09108  0  1.012223  0
H  H37  1  0.33731580  0.34959155  0.81810188  1  0  0.078814  0  0.943884  0  0  0.092189  0  1.011163  0  0  0.093537  0  1.009893  0  0.080533  0  0.103755  0.09109  0  1.012187  0
H  H38  1  0.26469165  0.82076941  0.78076331  1  0  0.1171  0  0.962943  0  0  0.126087  0  1.024913  0  0  0.128745  0  1.024196  0  0.133595  0  0.120093  0.124169  0  1.025503  0
H  H39  1  0.23530800  0.67923293  0.28076384  1  0  0.1172  0  0.962883  0  0  0.126177  0  1.024867  0  0  0.128839  0  1.024151  0  0.133615  0  0.120134  0.124258  0  1.025458  0
H  H40  1  0.73530890  0.17923005  0.21923669  1  0  0.117104  0  0.962942  0  0  0.12609  0  1.024916  0  0  0.128747  0  1.024199  0  0.13364  0  0.120093  0.124172  0  1.025506  0
H  H41  1  0.76469494  0.32076905  0.71923616  1  0  0.117192  0  0.962879  0  0  0.126166  0  1.02486  0  0  0.128828  0  1.024143  0  0.133705  0  0.120127  0.124248  0  1.02545  0
H  H42  1  0.55107807  0.91181422  0.67665651  1  0  0.095023  0  0.979077  0  0  0.101843  0  1.046535  0  0  0.104781  0  1.044267  0  0.107913  0  0.107574  0.099707  0  1.048253  0
H  H43  1  0.94892043  0.58818560  0.17665705  1  0  0.095013  0  0.979044  0  0  0.10183  0  1.046511  0  0  0.104769  0  1.044238  0  0.107899  0  0.107576  0.099694  0  1.048231  0
H  H44  1  0.44892282  0.08818902  0.32334349  1  0  0.094996  0  0.979076  0  0  0.101807  0  1.046549  0  0  0.104745  0  1.044282  0  0.107903  0  0.107567  0.099671  0  1.048268  0
H  H45  1  0.05108164  0.41181134  0.82334295  1  0  0.095092  0  0.979062  0  0  0.101886  0  1.04654  0  0  0.104825  0  1.044268  0  0.107861  0  0.107572  0.099749  0  1.048259  0
H  H46  1  0.79381081  0.91212046  0.93561738  1  0  0.082919  0  0.940897  0  0  0.094424  0  1.010086  0  0  0.095315  0  1.009605  0  0.102839  0  0.103379  0.093616  0  1.010651  0
H  H47  1  0.70618606  0.58787558  0.43561685  1  0  0.08291  0  0.940843  0  0  0.094399  0  1.010083  0  0  0.095289  0  1.009603  0  0.102975  0  0.103358  0.093593  0  1.010649  0
H  H48  1  0.20618790  0.08787774  0.06438369  1  0  0.082849  0  0.940922  0  0  0.094364  0  1.01012  0  0  0.095257  0  1.009635  0  0.102843  0  0.103318  0.093557  0  1.010685  0
H  H49  1  0.29381395  0.41212262  0.56438315  1  0  0.082907  0  0.940882  0  0  0.0944  0  1.010098  0  0  0.09529  0  1.009618  0  0.102824  0  0.103365  0.093592  0  1.010663  0
H  H50  1  0.78594021  0.09586158  0.89496098  1  0  0.086299  0  0.931994  0  0  0.099579  0  0.996394  0  0  0.100233  0  0.997177  0  0.100141  0  0.107794  0.099036  0  0.995945  0
H  H51  1  0.71406158  0.40413878  0.39496044  1  0  0.086239  0  0.932042  0  0  0.099532  0  0.996441  0  0  0.100186  0  0.997223  0  0.100147  0  0.107792  0.09899  0  0.995993  0
H  H52  1  0.21406089  0.90413914  0.10503956  1  0  0.086278  0  0.932021  0  0  0.099559  0  0.996424  0  0  0.100214  0  0.997206  0  0.100149  0  0.107803  0.099016  0  0.995976  0
H  H53  1  0.28594028  0.59586068  0.60503902  1  0  0.086293  0  0.932071  0  0  0.09959  0  0.996423  0  0  0.100245  0  0.997204  0  0.100138  0  0.107813  0.099047  0  0.995974  0
H  H54  1  0.11222464  0.92035258  0.94692645  1  0  0.101593  0  0.970811  0  0  0.108622  0  1.038196  0  0  0.111463  0  1.03595  0  0.119692  0  0.10913  0.10653  0  1.039924  0
H  H55  1  0.38777413  0.57964472  0.44692698  1  0  0.101615  0  0.970748  0  0  0.108657  0  1.038125  0  0  0.111496  0  1.035876  0  0.119733  0  0.109133  0.106563  0  1.039853  0
H  H56  1  0.88777461  0.07964688  0.05307355  1  0  0.101633  0  0.970771  0  0  0.108662  0  1.038155  0  0  0.111504  0  1.035908  0  0.119731  0  0.109143  0.106568  0  1.039884  0
H  H57  1  0.61222718  0.42035348  0.55307355  1  0  0.101622  0  0.970835  0  0  0.10866  0  1.038202  0  0  0.1115  0  1.035952  0  0.1197  0  0.109144  0.106567  0  1.039929  0
C  C58  1  0.41552955  0.74937229  0.94182222  1  0  0.146957  0  3.682985  0  0  0.087824  0  3.947228  0  0  0.100559  0  3.961418  0  0.960364  0  0.128321  0.079673  0  3.937351  0
C  C59  1  0.08446957  0.75062879  0.44182222  1  0  0.146937  0  3.682954  0  0  0.087801  0  3.947196  0  0  0.100535  0  3.961387  0  0.960137  0  0.128304  0.079649  0  3.937321  0
C  C60  1  0.58446950  0.25062969  0.05817778  1  0  0.146947  0  3.682958  0  0  0.087817  0  3.947195  0  0  0.10055  0  3.961385  0  0.960116  0  0.128307  0.079666  0  3.93732  0
C  C61  1  0.91553023  0.24937193  0.55817832  1  0  0.146929  0  3.682988  0  0  0.087801  0  3.94723  0  0  0.100534  0  3.96142  0  0.960129  0  0.128304  0.079649  0  3.937352  0
C  C62  1  0.92829495  0.93883704  0.79085151  1  0  -0.119847  0  3.675401  0  0  -0.159116  0  3.93079  0  0  -0.160442  0  3.944294  0  -0.025871  0  -0.164014  -0.158009  0  3.921371  0
C  C63  1  0.57170725  0.56116530  0.29085204  1  0  -0.119924  0  3.675447  0  0  -0.159155  0  3.930764  0  0  -0.160476  0  3.944265  0  -0.025763  0  -0.16405  -0.158054  0  3.921347  0
C  C64  1  0.07170637  0.06116116  0.20914742  1  0  -0.119934  0  3.675431  0  0  -0.15928  0  3.930885  0  0  -0.160615  0  3.944417  0  -0.025849  0  -0.164095  -0.15818  0  3.921464  0
C  C65  1  0.42829440  0.43883668  0.70914849  1  0  -0.119861  0  3.675439  0  0  -0.159171  0  3.930843  0  0  -0.160501  0  3.944367  0  -0.025882  0  -0.164053  -0.158062  0  3.921419  0
C  C66  1  0.41308815  0.99861820  0.91472685  1  0  -0.06714  0  3.677881  0  0  -0.110194  0  3.943557  0  0  -0.107932  0  3.961592  0  0.315942  0  -0.006527  -0.111631  0  3.931467  0
C  C67  1  0.08691444  0.50138792  0.41472739  1  0  -0.0669  0  3.677862  0  0  -0.10992  0  3.943555  0  0  -0.10765  0  3.961585  0  0.315821  0  -0.006429  -0.11135  0  3.931456  0
C  C68  1  0.58691438  0.00138882  0.08527315  1  0  -0.066994  0  3.677958  0  0  -0.110023  0  3.94366  0  0  -0.107751  0  3.961686  0  0.315869  0  -0.006447  -0.111453  0  3.931561  0
C  C69  1  0.91309123  0.49862036  0.58527368  1  0  -0.067177  0  3.677844  0  0  -0.110225  0  3.943525  0  0  -0.107966  0  3.961559  0  0.315955  0  -0.006534  -0.11166  0  3.931434  0
C  C70  1  0.16448758  0.93241972  0.62537524  1  0  0.144366  0  3.675827  0  0  0.086744  0  3.943802  0  0  0.099411  0  3.956838  0  0.959387  0  0.133174  0.078572  0  3.934829  0
C  C71  1  0.33551283  0.56758136  0.12537578  1  0  0.14447  0  3.675796  0  0  0.086804  0  3.943775  0  0  0.09948  0  3.956802  0  0.959366  0  0.133211  0.078633  0  3.934801  0
C  C72  1  0.83551297  0.06757974  0.37462476  1  0  0.144417  0  3.675888  0  0  0.086784  0  3.943883  0  0  0.099461  0  3.956908  0  0.959367  0  0.133186  0.078612  0  3.934909  0
C  C73  1  0.66449087  0.43241936  0.87462369  1  0  0.144549  0  3.675651  0  0  0.086935  0  3.943674  0  0  0.099615  0  3.956696  0  0.959756  0  0.133214  0.078762  0  3.934703  0
C  C74  1  0.72985205  0.88327024  0.82173829  1  0  -0.118155  0  3.689573  0  0  -0.158704  0  3.94784  0  0  -0.160136  0  3.962138  0  -0.009759  0  -0.163917  -0.157537  0  3.937902  0
C  C75  1  0.77014515  0.61672958  0.32173936  1  0  -0.118233  0  3.689666  0  0  -0.158698  0  3.947855  0  0  -0.160132  0  3.962155  0  -0.009734  0  -0.163894  -0.157521  0  3.937921  0
C  C76  1  0.27014536  0.11672796  0.17826010  1  0  -0.118109  0  3.689675  0  0  -0.158556  0  3.94786  0  0  -0.159999  0  3.962169  0  -0.00972  0  -0.163826  -0.157383  0  3.937927  0
C  C77  1  0.22985650  0.38327240  0.67826064  1  0  -0.118185  0  3.689694  0  0  -0.158641  0  3.947869  0  0  -0.160081  0  3.962175  0  -0.009719  0  -0.163865  -0.157462  0  3.937931  0
C  C78  1  0.92722695  0.83400356  0.72482574  1  0  -0.002808  0  3.630752  0  0  -0.064215  0  3.889516  0  0  -0.059911  0  3.900348  0  0.28262  0  -0.055473  -0.066948  0  3.882089  0
C  C79  1  0.57277265  0.66599878  0.22482628  1  0  -0.002845  0  3.630716  0  0  -0.064282  0  3.889475  0  0  -0.059991  0  3.900323  0  0.282703  0  -0.055483  -0.067002  0  3.882034  0
C  C80  1  0.07277046  0.16599464  0.27517533  1  0  -0.002759  0  3.630775  0  0  -0.064129  0  3.889537  0  0  -0.059832  0  3.900373  0  0.282639  0  -0.055433  -0.066862  0  3.882111  0
C  C81  1  0.42723084  0.33400446  0.77517426  1  0  -0.002807  0  3.63075  0  0  -0.064162  0  3.889518  0  0  -0.059869  0  3.900362  0  0.282187  0  -0.055451  -0.066894  0  3.882089  0
C  C82  1  0.26898204  0.86179515  0.72573231  1  0  -0.087025  0  3.68892  0  0  -0.125066  0  3.948696  0  0  -0.123323  0  3.966276  0  0.236896  0  -0.008115  -0.126162  0  3.936888  0
C  C83  1  0.23101707  0.63820593  0.22573284  1  0  -0.087179  0  3.688916  0  0  -0.125251  0  3.948681  0  0  -0.123518  0  3.966268  0  0.236824  0  -0.008176  -0.126346  0  3.936874  0
C  C84  1  0.73101721  0.13820431  0.27426769  1  0  -0.087056  0  3.688868  0  0  -0.125098  0  3.948642  0  0  -0.123357  0  3.966224  0  0.236841  0  -0.008107  -0.126194  0  3.936836  0
C  C85  1  0.76898533  0.36179479  0.77426662  1  0  -0.087198  0  3.68891  0  0  -0.125201  0  3.9487  0  0  -0.123467  0  3.966286  0  0.236713  0  -0.008188  -0.126298  0  3.936893  0
C  C86  1  0.40899109  0.90915756  0.67457558  1  0  -0.011188  0  3.790877  0  0  -0.044435  0  4.063052  0  0  -0.042089  0  4.081049  0  0.418604  0  -0.010298  -0.045997  0  4.050941  0
C  C87  1  0.09100933  0.59084352  0.17457612  1  0  -0.011128  0  3.790851  0  0  -0.044364  0  4.063015  0  0  -0.042017  0  4.081016  0  0.418597  0  -0.010298  -0.045927  0  4.050906  0
C  C88  1  0.59100926  0.09084442  0.32542442  1  0  -0.011093  0  3.790818  0  0  -0.044324  0  4.062981  0  0  -0.04198  0  4.080982  0  0.4186  0  -0.010288  -0.045886  0  4.050871  0
C  C89  1  0.90899383  0.40915594  0.82542335  1  0  -0.011213  0  3.790908  0  0  -0.044429  0  4.063057  0  0  -0.042084  0  4.081058  0  0.4188  0  -0.010295  -0.04599  0  4.050947  0
C  C90  1  0.72113812  0.95769832  0.89512241  1  0  -0.005677  0  3.615272  0  0  -0.064715  0  3.867889  0  0  -0.060882  0  3.879607  0  0.265227  0  -0.055493  -0.067153  0  3.859949  0
C  C91  1  0.77885963  0.54230276  0.39512241  1  0  -0.005537  0  3.615309  0  0  -0.064628  0  3.868005  0  0  -0.060793  0  3.87972  0  0.265044  0  -0.055463  -0.067072  0  3.860071  0
C  C92  1  0.27886168  0.04230240  0.10487759  1  0  -0.005523  0  3.615426  0  0  -0.064579  0  3.86802  0  0  -0.060743  0  3.87974  0  0.265191  0  -0.055405  -0.067019  0  3.860081  0
C  C93  1  0.22114071  0.45769922  0.60487706  1  0  -0.005636  0  3.615445  0  0  -0.064704  0  3.868108  0  0  -0.060869  0  3.879824  0  0.2652  0  -0.055494  -0.067142  0  3.860166  0
C  C94  1  0.23717394  0.89340790  0.93818153  1  0  -0.009671  0  3.774115  0  0  -0.045129  0  4.048933  0  0  -0.042553  0  4.066938  0  0.402784  0  -0.011484  -0.046839  0  4.036775  0
C  C95  1  0.26281649  0.60658814  0.43818046  1  0  -0.009859  0  3.774416  0  0  -0.045341  0  4.04927  0  0  -0.042764  0  4.067271  0  0.402558  0  -0.011552  -0.047048  0  4.037109  0
C  C96  1  0.76282011  0.10659156  0.06181954  1  0  -0.009774  0  3.774505  0  0  -0.045229  0  4.049308  0  0  -0.042657  0  4.067313  0  0.402766  0  -0.011521  -0.046938  0  4.037149  0
C  C97  1  0.73717333  0.39340754  0.56181901  1  0  -0.009739  0  3.774155  0  0  -0.045201  0  4.048982  0  0  -0.042621  0  4.066982  0  0.402795  0  -0.011489  -0.046909  0  4.036823  0
N  N98  1  0.24084992  0.73837261  0.95459964  1  0  -0.379154  0  3.278021  0  0  -0.304005  0  3.555953  0  0  -0.324195  0  3.575097  0  -1.226416  0  -0.362843  -0.2902  0  3.542474  0
N  N99  1  0.25914995  0.76162721  0.45460017  1  0  -0.379098  0  3.278004  0  0  -0.303939  0  3.555933  0  0  -0.324129  0  3.575077  0  -1.225966  0  -0.362819  -0.290135  0  3.542457  0
N  N100  1  0.75914803  0.26162685  0.04539983  1  0  -0.379136  0  3.278172  0  0  -0.303988  0  3.556104  0  0  -0.324179  0  3.57525  0  -1.226209  0  -0.362831  -0.290184  0  3.542627  0
N  N101  1  0.74085115  0.23837351  0.54540143  1  0  -0.379109  0  3.27806  0  0  -0.303962  0  3.555994  0  0  -0.324152  0  3.575138  0  -1.226193  0  -0.362837  -0.290157  0  3.542515  0
N  N102  1  0.52463632  0.90562122  0.91768281  1  0  -0.06588  0  3.586376  0  0  0.031544  0  3.798253  0  0  0.016542  0  3.825716  0  -1.266966  0  -0.247909  0.041449  0  3.779556  0
N  N103  1  0.97536164  0.59437734  0.41768281  1  0  -0.065977  0  3.586415  0  0  0.031457  0  3.798308  0  0  0.016454  0  3.825767  0  -1.266879  0  -0.247968  0.041364  0  3.779613  0
N  N104  1  0.47536218  0.09437950  0.08231719  1  0  -0.065954  0  3.586477  0  0  0.031452  0  3.798387  0  0  0.016452  0  3.825844  0  -1.266891  0  -0.247989  0.041358  0  3.779692  0
N  N105  1  0.02463891  0.40562212  0.58231666  1  0  -0.065897  0  3.586473  0  0  0.03152  0  3.798374  0  0  0.01652  0  3.825834  0  -1.266956  0  -0.247951  0.041424  0  3.779678  0
N  N106  1  0.11442003  0.87734443  0.69353164  1  0  -0.070309  0  3.579314  0  0  0.025112  0  3.797051  0  0  0.010525  0  3.823149  0  -1.230498  0  -0.249563  0.034765  0  3.779242  0
N  N107  1  0.38558017  0.62265917  0.19353218  1  0  -0.0703  0  3.57927  0  0  0.025221  0  3.796899  0  0  0.010641  0  3.822998  0  -1.230545  0  -0.249559  0.034871  0  3.779088  0
N  N108  1  0.88557868  0.12265377  0.30646836  1  0  -0.07032  0  3.579362  0  0  0.025096  0  3.797101  0  0  0.010514  0  3.823196  0  -1.230531  0  -0.249576  0.03475  0  3.779292  0
N  N109  1  0.61442332  0.37734407  0.80646729  1  0  -0.070268  0  3.579224  0  0  0.025055  0  3.797066  0  0  0.010472  0  3.823164  0  -1.230078  0  -0.249559  0.034708  0  3.77926  0
N  N110  1  0.34206062  0.95251985  0.61261118  1  0  -0.362458  0  3.242686  0  0  -0.294148  0  3.521702  0  0  -0.313109  0  3.53982  0  -1.199452  0  -0.355252  -0.281225  0  3.509059  0
N  N111  1  0.15793979  0.54748123  0.11261225  1  0  -0.362509  0  3.242767  0  0  -0.294203  0  3.521796  0  0  -0.313164  0  3.539913  0  -1.199413  0  -0.355256  -0.281279  0  3.50915  0
N  N112  1  0.65794102  0.04748213  0.38738828  1  0  -0.362547  0  3.242789  0  0  -0.294244  0  3.521817  0  0  -0.313206  0  3.539934  0  -1.199417  0  -0.35528  -0.281321  0  3.509171  0
N  N113  1  0.84206337  0.45251823  0.88738828  1  0  -0.36256  0  3.242692  0  0  -0.294251  0  3.521707  0  0  -0.313215  0  3.539828  0  -1.199655  0  -0.355277  -0.281327  0  3.509061  0
Cl  Cl114  1  0.20122886  0.31817288  0.95775230  1  0  -0.66209  0  0.679861  0  0  -0.600834  0  0.90878  0  0  -0.61577  0  0.891085  0  -0.744138  0  -0.382027  -0.589851  0  0.920881  0
Cl  Cl115  1  0.29877060  0.18182496  0.45775230  1  0  -0.662099  0  0.679875  0  0  -0.600847  0  0.908783  0  0  -0.615785  0  0.891091  0  -0.744129  0  -0.382028  -0.589854  0  0.920876  0
Cl  Cl116  1  0.79877061  0.68182406  0.04224877  1  0  -0.662108  0  0.679883  0  0  -0.600861  0  0.908812  0  0  -0.615796  0  0.891116  0  -0.744134  0  -0.38203  -0.58987  0  0.920905  0
Cl  Cl117  1  0.70122811  0.81817324  0.54224877  1  0  -0.662092  0  0.679863  0  0  -0.600833  0  0.908774  0  0  -0.615771  0  0.891082  0  -0.744143  0  -0.382024  -0.589844  0  0.920872  0
