# generated using pymatgen
data_ZnH10C15I4NO6
_symmetry_space_group_name_H-M   'P 1'
_cell_length_a   11.00190146
_cell_length_b   13.16141399
_cell_length_c   14.38406376
_cell_angle_alpha   90.40043760
_cell_angle_beta   89.79868669
_cell_angle_gamma   90.24824082
_symmetry_Int_Tables_number   1
_chemical_formula_structural   ZnH10C15I4NO6
_chemical_formula_sum   'Zn2 H20 C30 I8 N2 O12'
_cell_volume   2082.73771980
_cell_formula_units_Z   2
loop_
 _symmetry_equiv_pos_site_id
 _symmetry_equiv_pos_as_xyz
  1  'x, y, z'
loop_
 _atom_site_type_symbol
 _atom_site_label
 _atom_site_symmetry_multiplicity
 _atom_site_fract_x
 _atom_site_fract_y
 _atom_site_fract_z
 _atom_site_occupancy
 _atom_site_pbe_bader_charge
 _atom_site_pbe_bader_spin_density
 _atom_site_pbe_cm5_charge
 _atom_site_pbe_ddec_charge
 _atom_site_pbe_ddec_spin_density
 _atom_site_pbe_ddec_sum_bond_order
 _atom_site_pbe_magmom
Zn  Zn0  1  0.50069633  0.39114072  0.49903451  1  1.343353  0  0.706978  0.932756  0  2.362666  0
Zn  Zn1  1  0.49941357  0.61415460  0.50717756  1  1.341852  0  0.706469  0.932491  0  2.375181  0
H  H2  1  0.07630793  0.36599907  0.22760479  1  0.065596  0  0.103588  0.06975  0  0.999828  0
H  H3  1  0.08341884  0.26756816  0.31159144  1  0.097019  0  0.082855  0.052887  0  1.061024  0
H  H4  1  0.31234304  0.27446898  0.30643299  1  0.079563  0  0.084391  0.127414  0  1.015772  0
H  H5  1  0.25184952  0.25073284  0.19319040  1  0.021537  0  0.095252  0.130965  0  0.98241  0
H  H6  1  0.30682269  0.37377204  0.22322871  1  0.031853  0  0.087564  0.123544  0  1.021317  0
H  H7  1  0.25754953  0.54582060  0.32047575  1  0.080853  0  0.100776  0.073489  0  1.028188  0
H  H8  1  0.23397103  0.67937043  0.31490325  1  0.059303  0  0.084128  0.062018  0  1.043689  0
H  H9  1  0.10891684  0.65472764  0.16982448  1  0.044258  0  0.092989  0.126878  0  0.994159  0
H  H10  1  0.25799849  0.60483335  0.15519705  1  0.054253  0  0.094619  0.129715  0  1.005962  0
H  H11  1  0.13336962  0.52104041  0.17471607  1  0.031649  0  0.091732  0.124462  0  1.012939  0
H  H12  1  0.76141518  0.50772661  0.28833201  1  0.086342  0  0.102118  0.071461  0  1.037517  0
H  H13  1  0.74243671  0.37794776  0.31917540  1  0.098688  0  0.086471  0.07194  0  1.054801  0
H  H14  1  0.85877062  0.32226454  0.17950664  1  0.046018  0  0.087335  0.120046  0  1.008693  0
H  H15  1  0.73819169  0.40357315  0.14498543  1  0.047281  0  0.094629  0.133377  0  1.00175  0
H  H16  1  0.88943550  0.45135021  0.14902291  1  0.031624  0  0.090602  0.121478  0  1.00598  0
H  H17  1  0.95637069  0.74211750  0.32197414  1  0.081235  0  0.088466  0.054546  0  1.048012  0
H  H18  1  0.80393354  0.76470092  0.35837145  1  0.070735  0  0.089117  0.062846  0  1.007149  0
H  H19  1  0.72542103  0.66179874  0.22309617  1  0.04344  0  0.091703  0.126453  0  1.009236  0
H  H20  1  0.82062759  0.76250230  0.18490109  1  0.048891  0  0.098717  0.132507  0  0.981272  0
H  H21  1  0.87797359  0.63637407  0.18667043  1  0.010128  0  0.093166  0.127155  0  1.008662  0
C  C22  1  0.50371809  0.51260214  0.32411456  1  1.648636  0  0.221314  0.638328  0  4.277525  0
C  C23  1  0.26510295  0.51250344  0.49785245  1  1.619988  0  0.202824  0.585802  0  4.156674  0
C  C24  1  0.73492993  0.48898948  0.49772246  1  1.605508  0  0.202999  0.588528  0  4.14584  0
C  C25  1  0.49975433  0.49735067  0.68096596  1  1.658411  0  0.209939  0.631909  0  4.304963  0
C  C26  1  0.07926940  0.40963879  0.43518667  1  0.596226  0  0.091082  0.183061  0  3.552789  0
C  C27  1  0.06503562  0.60383992  0.43681134  1  0.528383  0  0.083144  0.162947  0  3.506398  0
C  C28  1  0.93461095  0.41142237  0.42058813  1  0.546812  0  0.085939  0.165255  0  3.511017  0
C  C29  1  0.92001708  0.60307341  0.45274299  1  0.562992  0  0.087075  0.179619  0  3.544329  0
C  C30  1  0.06982367  0.50562712  0.59816584  1  -0.227951  0  -0.04713  0.035956  0  3.345366  0
C  C31  1  0.93076635  0.47597196  0.59588222  1  -0.245783  0  -0.046117  0.036137  0  3.340175  0
C  C32  1  0.12211139  0.50801009  0.49522346  1  0.032009  0  -0.014497  -0.114851  0  3.559312  0
C  C33  1  0.87780043  0.49411922  0.49475531  1  0.034039  0  -0.014572  -0.113868  0  3.556207  0
C  C34  1  0.50514892  0.51490309  0.22381339  1  0.237677  0  -0.006014  -0.137183  0  3.85632  0
C  C35  1  0.50432726  0.51253182  0.13846590  1  -0.402715  0  -0.016822  0.010492  0  4.279126  0
C  C36  1  0.50314857  0.50849332  0.04538350  1  0.229684  0  -0.012435  -0.026765  0  4.22381  0
C  C37  1  0.50174747  0.50354912  0.95965320  1  -0.163111  0  -0.004154  0.004728  0  4.206768  0
C  C38  1  0.50064291  0.49907186  0.86659206  1  -0.177646  0  -0.023189  0.006162  0  4.251259  0
C  C39  1  0.49998513  0.49562797  0.78131767  1  0.049768  0  -0.007923  -0.109668  0  3.851937  0
C  C40  1  0.51401952  0.85453085  0.50744738  1  0.833226  0  0.223899  0.319739  0  4.137561  0
C  C41  1  0.49187194  0.15065151  0.49608392  1  0.847339  0  0.224943  0.322148  0  4.130637  0
C  C42  1  0.50762561  0.95586010  0.50367050  1  0.165386  0  0.027768  -0.033941  0  4.090086  0
C  C43  1  0.50056441  0.04948527  0.49984919  1  0.152807  0  0.02799  -0.033485  0  4.088597  0
C  C44  1  0.13191844  0.33350964  0.28305155  1  0.331171  0  -0.073351  0.085585  0  3.849483  0
C  C45  1  0.25852013  0.30687784  0.24994205  1  -0.05619  0  -0.248316  -0.388779  0  3.942617  0
C  C46  1  0.19578231  0.60464795  0.29616088  1  0.38109  0  -0.079244  0.080792  0  3.847153  0
C  C47  1  0.17182405  0.59558328  0.19301596  1  -0.067537  0  -0.241675  -0.382216  0  3.940112  0
C  C48  1  0.80173522  0.43221963  0.28304126  1  0.339486  0  -0.081971  0.070283  0  3.840655  0
C  C49  1  0.82421422  0.40032348  0.18335883  1  -0.073441  0  -0.245341  -0.389814  0  3.9598  0
C  C50  1  0.86373670  0.71117364  0.32115967  1  0.350329  0  -0.07486  0.091156  0  3.852056  0
C  C51  1  0.81924848  0.69068954  0.22342332  1  -0.034905  0  -0.240256  -0.383187  0  3.939328  0
I  I52  1  0.15018561  0.25213325  0.49855743  1  -0.017359  0  -0.003682  -0.124043  0  1.663919  0
I  I53  1  0.14671551  0.76936137  0.46171850  1  -0.030027  0  -0.012524  -0.142713  0  1.595409  0
I  I54  1  0.85091267  0.24254576  0.41743482  1  -0.046804  0  -0.018537  -0.14729  0  1.567788  0
I  I55  1  0.84978406  0.74132935  0.54509926  1  0.00455  0  0.006355  -0.11501  0  1.69491  0
I  I56  1  0.18167884  0.41155806  0.69451587  1  0.132703  0  0.06497  0.013151  0  1.80629  0
I  I57  1  0.11047118  0.64889663  0.67718969  1  0.136981  0  0.058279  0.010183  0  1.836969  0
I  I58  1  0.89204580  0.31923966  0.64832949  1  0.146312  0  0.062616  0.01602  0  1.859329  0
I  I59  1  0.81921949  0.54789367  0.70899524  1  0.135925  0  0.06773  0.013158  0  1.81276  0
N  N60  1  0.52272159  0.76565226  0.51100782  1  -1.10787  0  -0.27211  -0.291175  0  3.075431  0
N  N61  1  0.47941825  0.23926514  0.49285097  1  -1.119533  0  -0.271572  -0.292482  0  3.071267  0
O  O62  1  0.52263250  0.42613720  0.36011475  1  -1.136876  0  -0.29678  -0.522605  0  2.292428  0
O  O63  1  0.48305605  0.59668056  0.36538240  1  -1.133939  0  -0.302438  -0.528428  0  2.273646  0
O  O64  1  0.32171364  0.43150853  0.48031160  1  -1.169893  0  -0.305939  -0.537512  0  2.507198  0
O  O65  1  0.31223630  0.59718105  0.51849323  1  -1.153794  0  -0.304029  -0.518009  0  2.455878  0
O  O66  1  0.68824989  0.40241510  0.51056430  1  -1.151457  0  -0.306287  -0.521785  0  2.452886  0
O  O67  1  0.67795073  0.57097814  0.48789247  1  -1.158252  0  -0.305364  -0.537743  0  2.503025  0
O  O68  1  0.49082210  0.41205438  0.63948553  1  -1.13165  0  -0.307738  -0.53308  0  2.315756  0
O  O69  1  0.50859135  0.58516916  0.64528287  1  -1.129862  0  -0.305393  -0.527479  0  2.314228  0
O  O70  1  0.14295840  0.41122095  0.35502543  1  -1.053589  0  -0.173885  -0.171062  0  2.689614  0
O  O71  1  0.07930311  0.59557111  0.34306198  1  -1.041266  0  -0.181391  -0.182334  0  2.679568  0
O  O72  1  0.91879255  0.43532243  0.32984170  1  -1.048788  0  -0.179668  -0.180593  0  2.672246  0
O  O73  1  0.85825934  0.61680942  0.37271152  1  -1.042667  0  -0.177329  -0.172212  0  2.679337  0
