# generated using pymatgen
data_AgMo2H7C11(N3O4)2
_symmetry_space_group_name_H-M   'P 1'
_cell_length_a   7.25768286
_cell_length_b   11.45236828
_cell_length_c   11.77663987
_cell_angle_alpha   119.09304557
_cell_angle_beta   98.88392690
_cell_angle_gamma   90.00017167
_symmetry_Int_Tables_number   1
_chemical_formula_structural   AgMo2H7C11(N3O4)2
_chemical_formula_sum   'Ag2 Mo4 H14 C22 N12 O16'
_cell_volume   841.88270789
_cell_formula_units_Z   2
loop_
 _symmetry_equiv_pos_site_id
 _symmetry_equiv_pos_as_xyz
  1  'x, y, z'
loop_
 _atom_site_type_symbol
 _atom_site_label
 _atom_site_symmetry_multiplicity
 _atom_site_fract_x
 _atom_site_fract_y
 _atom_site_fract_z
 _atom_site_occupancy
 _atom_site_hle17_bader_spin_density
 _atom_site_hle17_ddec_charge
 _atom_site_hle17_ddec_spin_density
 _atom_site_hle17_ddec_sum_bond_order
 _atom_site_hle17_magmom
 _atom_site_hse06_10hf_bader_spin_density
 _atom_site_hse06_10hf_ddec_charge
 _atom_site_hse06_10hf_ddec_spin_density
 _atom_site_hse06_10hf_ddec_sum_bond_order
 _atom_site_hse06_10hf_magmom
 _atom_site_hse06_bader_spin_density
 _atom_site_hse06_ddec_charge
 _atom_site_hse06_ddec_spin_density
 _atom_site_hse06_ddec_sum_bond_order
 _atom_site_hse06_magmom
 _atom_site_pbe_bader_spin_density
 _atom_site_pbe_cm5_charge
 _atom_site_pbe_ddec_charge
 _atom_site_pbe_ddec_spin_density
 _atom_site_pbe_ddec_sum_bond_order
 _atom_site_pbe_magmom
Ag  Ag0  1  0.99999901  0.49999998  0.49999952  1  0  0.571058  0  1.308442  0  0  0.430824  0  1.695215  0  0  0.458494  0  1.657275  0  0  0.504466  0.410466  0  1.723571  0
Ag  Ag1  1  0.49999972  0.99999997  0.49999867  1  0  0.571056  0  1.308469  0  0  0.43082  0  1.695254  0  0  0.458494  0  1.657312  0  0  0.504466  0.410466  0  1.723609  0
Mo  Mo2  1  0.41258094  0.09454236  0.14924457  1  0  2.234693  0  4.039756  0  0  2.234092  0  4.578092  0  0  2.331625  0  4.545366  0  0  1.531434  2.161602  0  4.607493  0
Mo  Mo3  1  0.08741866  0.94529737  0.85075464  1  0  2.234719  0  4.039582  0  0  2.234132  0  4.577903  0  0  2.331661  0  4.545178  0  0  1.531423  2.161653  0  4.607272  0
Mo  Mo4  1  0.58741819  0.90545639  0.85075579  1  0  2.234668  0  4.039718  0  0  2.234104  0  4.578024  0  0  2.331632  0  4.5453  0  0  1.531406  2.161615  0  4.607419  0
Mo  Mo5  1  0.91258046  0.05470138  0.14924572  1  0  2.23468  0  4.039679  0  0  2.234114  0  4.577987  0  0  2.331641  0  4.545266  0  0  1.531409  2.161621  0  4.607384  0
H  H6  1  0.28300081  0.74124919  0.21235989  1  0  0.122762  0  0.94465  0  0  0.129148  0  1.014458  0  0  0.13341  0  1.010292  0  0  0.115349  0.125513  0  1.018452  0
H  H7  1  0.21700056  0.52889023  0.78763963  1  0  0.122822  0  0.944685  0  0  0.129198  0  1.014489  0  0  0.133475  0  1.010307  0  0  0.115389  0.125559  0  1.018486  0
H  H8  1  0.71699728  0.25875258  0.78764180  1  0  0.122742  0  0.944741  0  0  0.129149  0  1.014509  0  0  0.133462  0  1.010287  0  0  0.115364  0.12551  0  1.018507  0
H  H9  1  0.78300172  0.47111155  0.21235908  1  0  0.122742  0  0.944781  0  0  0.129153  0  1.014532  0  0  0.133443  0  1.010333  0  0  0.115366  0.125515  0  1.01853  0
H  H10  1  0.08474331  0.36822731  0.20105441  1  0  0.123424  0  0.958382  0  0  0.129988  0  1.02377  0  0  0.133074  0  1.019002  0  0  0.143388  0.127341  0  1.026938  0
H  H11  1  0.41525723  0.16717360  0.79894553  1  0  0.123392  0  0.958363  0  0  0.129958  0  1.023754  0  0  0.133043  0  1.018986  0  0  0.143366  0.127312  0  1.026921  0
H  H12  1  0.91525872  0.63177246  0.79894501  1  0  0.123408  0  0.958364  0  0  0.129974  0  1.023754  0  0  0.133059  0  1.018982  0  0  0.14337  0.127328  0  1.02692  0
H  H13  1  0.58474190  0.83282516  0.20105313  1  0  0.123404  0  0.958356  0  0  0.129962  0  1.023755  0  0  0.133048  0  1.018982  0  0  0.143361  0.127316  0  1.026921  0
H  H14  1  0.39927572  0.68332505  0.55153069  1  0  0.110159  0  0.953672  0  0  0.121985  0  1.010105  0  0  0.123814  0  1.008065  0  0  0.136488  0.120442  0  1.011825  0
H  H15  1  0.10072048  0.13179083  0.44846775  1  0  0.110139  0  0.95369  0  0  0.121955  0  1.010141  0  0  0.123783  0  1.008104  0  0  0.136477  0.120413  0  1.01186  0
H  H16  1  0.60071959  0.31667672  0.44846989  1  0  0.110146  0  0.953682  0  0  0.121967  0  1.010125  0  0  0.123798  0  1.008084  0  0  0.136478  0.120425  0  1.011844  0
H  H17  1  0.89927598  0.86820893  0.55153283  1  0  0.110128  0  0.953729  0  0  0.121949  0  1.010157  0  0  0.123778  0  1.008119  0  0  0.136481  0.120406  0  1.011877  0
H  H18  1  0.25000111  0.30820227  0.99999879  1  0  0.151562  0  0.928243  0  0  0.160769  0  0.988048  0  0  0.164544  0  0.985251  0  0  0.121354  0.157668  0  0.991057  0
H  H19  1  0.75000105  0.69179851  0.00000028  1  0  0.15168  0  0.928218  0  0  0.160913  0  0.987966  0  0  0.164689  0  0.985166  0  0  0.121425  0.157816  0  0.990968  0
C  C20  1  0.27187161  0.64805910  0.11919601  1  0  -0.143634  0  3.695653  0  0  -0.183503  0  3.95704  0  0  -0.184676  0  3.972543  0  0  -0.078498  -0.182232  0  3.944782  0
C  C21  1  0.22813374  0.52886278  0.88080170  1  0  -0.143707  0  3.695683  0  0  -0.183571  0  3.957079  0  0  -0.184753  0  3.972557  0  0  -0.078551  -0.182315  0  3.944868  0
C  C22  1  0.72813182  0.35194066  0.88080439  1  0  -0.143632  0  3.69567  0  0  -0.183522  0  3.957077  0  0  -0.184736  0  3.972539  0  0  -0.078505  -0.18226  0  3.944852  0
C  C23  1  0.77187120  0.47113798  0.11919932  1  0  -0.143702  0  3.695665  0  0  -0.183541  0  3.957105  0  0  -0.184735  0  3.972575  0  0  -0.078523  -0.182277  0  3.944875  0
C  C24  1  0.25000070  0.77932792  0.99999948  1  0  0.702873  0  3.837759  0  0  0.656591  0  4.124336  0  0  0.6952  0  4.110205  0  0  0.224678  0.630195  0  4.133445  0
C  C25  1  0.75000175  0.22067224  0.99999983  1  0  0.702963  0  3.837549  0  0  0.656566  0  4.124348  0  0  0.695175  0  4.110217  0  0  0.224668  0.630174  0  4.133465  0
C  C26  1  0.18134449  0.45483529  0.27166358  1  0  0.194106  0  3.602455  0  0  0.115574  0  3.865725  0  0  0.143665  0  3.879398  0  0  0.169939  0.10557  0  3.858616  0
C  C27  1  0.31865628  0.18317138  0.72833445  1  0  0.194187  0  3.602374  0  0  0.115646  0  3.865639  0  0  0.143741  0  3.879324  0  0  0.169995  0.105644  0  3.858526  0
C  C28  1  0.81865616  0.54516448  0.72833571  1  0  0.194145  0  3.602436  0  0  0.115612  0  3.865685  0  0  0.143705  0  3.879379  0  0  0.169977  0.105608  0  3.858568  0
C  C29  1  0.68134285  0.81682739  0.27166252  1  0  0.194111  0  3.602402  0  0  0.11559  0  3.865628  0  0  0.143686  0  3.879321  0  0  0.169985  0.105589  0  3.858512  0
C  C30  1  0.34147118  0.61662075  0.44825113  1  0  0.210828  0  3.676431  0  0  0.161923  0  3.949226  0  0  0.174811  0  3.958193  0  0  0.154518  0.153967  0  3.940146  0
C  C31  1  0.15852615  0.16836600  0.55174627  1  0  0.210867  0  3.676503  0  0  0.16196  0  3.949309  0  0  0.17485  0  3.95827  0  0  0.154506  0.154007  0  3.940225  0
C  C32  1  0.65852679  0.38338001  0.55175008  1  0  0.210829  0  3.676447  0  0  0.161918  0  3.949257  0  0  0.174807  0  3.958218  0  0  0.154495  0.153964  0  3.940171  0
C  C33  1  0.84147159  0.83163276  0.44825226  1  0  0.210828  0  3.676602  0  0  0.161938  0  3.949393  0  0  0.174828  0  3.958354  0  0  0.154493  0.153984  0  3.940308  0
C  C34  1  0.25000348  0.64899850  0.00000027  1  0  -0.027738  0  3.766693  0  0  0.000191  0  3.992154  0  0  -0.007848  0  4.016146  0  0  -0.008715  0.00475  0  3.977669  0
C  C35  1  0.74999979  0.35100286  0.00000207  1  0  -0.027707  0  3.766663  0  0  0.00023  0  3.992195  0  0  -0.007809  0  4.016201  0  0  -0.00873  0.004786  0  3.977716  0
C  C36  1  0.27181370  0.52556648  0.11766211  1  0  0.18901  0  3.775251  0  0  0.168277  0  4.029024  0  0  0.184613  0  4.052619  0  0  0.105706  0.165607  0  4.013794  0
C  C37  1  0.22819142  0.40790439  0.88233629  1  0  0.18907  0  3.77516  0  0  0.168328  0  4.028923  0  0  0.184675  0  4.052519  0  0  0.105752  0.165656  0  4.013691  0
C  C38  1  0.72818973  0.47443329  0.88233660  1  0  0.189084  0  3.77512  0  0  0.168382  0  4.028846  0  0  0.184724  0  4.052452  0  0  0.105746  0.165707  0  4.013616  0
C  C39  1  0.77181213  0.59209638  0.11766460  1  0  0.189209  0  3.774934  0  0  0.168363  0  4.028853  0  0  0.184709  0  4.052455  0  0  0.1057  0.165694  0  4.01362  0
C  C40  1  0.25000323  0.40329484  0.99999928  1  0  -0.190584  0  3.628213  0  0  -0.221259  0  3.889854  0  0  -0.224378  0  3.901311  0  0  -0.073522  -0.219537  0  3.878597  0
C  C41  1  0.75000311  0.59670593  0.00000103  1  0  -0.190852  0  3.628163  0  0  -0.22153  0  3.889833  0  0  -0.224648  0  3.901282  0  0  -0.073583  -0.219806  0  3.878575  0
N  N42  1  0.21304607  0.50853085  0.40293847  1  0  -0.387946  0  3.321791  0  0  -0.301721  0  3.631867  0  0  -0.324375  0  3.638803  0  0  -0.377747  -0.285521  0  3.623321  0
N  N43  1  0.28695315  0.10559108  0.59705968  1  0  -0.387953  0  3.32189  0  0  -0.301724  0  3.631958  0  0  -0.324377  0  3.638889  0  0  -0.377731  -0.285522  0  3.623413  0
N  N44  1  0.78695305  0.49146791  0.59706104  1  0  -0.387934  0  3.321806  0  0  -0.301702  0  3.631875  0  0  -0.324355  0  3.638805  0  0  -0.377716  -0.285501  0  3.62333  0
N  N45  1  0.71304458  0.89440769  0.40293800  1  0  -0.387909  0  3.321882  0  0  -0.301692  0  3.631947  0  0  -0.324347  0  3.638877  0  0  -0.377718  -0.28549  0  3.623401  0
N  N46  1  0.38839183  0.63297680  0.35252576  1  0  -0.262396  0  2.842086  0  0  -0.262034  0  3.107259  0  0  -0.259717  0  3.127866  0  0  -0.214533  -0.255361  0  3.097912  0
N  N47  1  0.11160845  0.28044987  0.64747183  1  0  -0.262484  0  2.842125  0  0  -0.26213  0  3.107302  0  0  -0.259803  0  3.127908  0  0  -0.214567  -0.255453  0  3.097953  0
N  N48  1  0.61160614  0.36702396  0.64747459  1  0  -0.262416  0  2.842082  0  0  -0.262064  0  3.107254  0  0  -0.259737  0  3.127868  0  0  -0.214542  -0.255391  0  3.097906  0
N  N49  1  0.88839231  0.71955090  0.35252795  1  0  -0.262433  0  2.842148  0  0  -0.262094  0  3.107314  0  0  -0.259763  0  3.127923  0  0  -0.214559  -0.255416  0  3.097965  0
N  N50  1  0.28475886  0.52942509  0.24077774  1  0  0.010836  0  3.58149  0  0  0.132671  0  3.750762  0  0  0.084377  0  3.821379  0  0  -0.116547  0.139513  0  3.73611  0
N  N51  1  0.21524240  0.28864761  0.75921997  1  0  0.010845  0  3.581395  0  0  0.132705  0  3.75064  0  0  0.084385  0  3.821285  0  0  -0.116542  0.139546  0  3.735993  0
N  N52  1  0.71524166  0.47057368  0.75922106  1  0  0.010835  0  3.581466  0  0  0.132688  0  3.750707  0  0  0.084365  0  3.821358  0  0  -0.116558  0.139542  0  3.736033  0
N  N53  1  0.78475976  0.71135316  0.24077994  1  0  0.01084  0  3.581379  0  0  0.132742  0  3.750621  0  0  0.084413  0  3.821273  0  0  -0.11652  0.139575  0  3.735987  0
O  O54  1  0.64316308  0.01819367  0.08954804  1  0  -1.008702  0  1.918121  0  0  -1.005175  0  2.231588  0  0  -1.049426  0  2.226293  0  0  -0.610786  -0.970575  0  2.233717  0
O  O55  1  0.85683485  0.92864488  0.91045156  1  0  -1.008696  0  1.918097  0  0  -1.005171  0  2.231554  0  0  -1.049421  0  2.226263  0  0  -0.610773  -0.97057  0  2.23368  0
O  O56  1  0.35683592  0.98180408  0.91045182  1  0  -1.008634  0  1.917984  0  0  -1.00512  0  2.231468  0  0  -1.049354  0  2.226148  0  0  -0.610774  -0.970524  0  2.233603  0
O  O57  1  0.14316415  0.07135287  0.08954915  1  0  -1.008669  0  1.918011  0  0  -1.005144  0  2.231487  0  0  -1.049391  0  2.226183  0  0  -0.610774  -0.970547  0  2.233621  0
O  O58  1  0.43970012  0.12740538  0.30921146  1  0  -0.683144  0  1.431253  0  0  -0.682858  0  1.686709  0  0  -0.708978  0  1.675643  0  0  -0.506383  -0.664441  0  1.695877  0
O  O59  1  0.06029775  0.81819434  0.69078833  1  0  -0.683167  0  1.431214  0  0  -0.682884  0  1.686664  0  0  -0.709004  0  1.675599  0  0  -0.50639  -0.664468  0  1.695825  0
O  O60  1  0.56029925  0.87259538  0.69078903  1  0  -0.683199  0  1.431237  0  0  -0.68292  0  1.686679  0  0  -0.709039  0  1.675611  0  0  -0.506413  -0.664505  0  1.695848  0
O  O61  1  0.93969870  0.18180543  0.30921056  1  0  -0.683186  0  1.431273  0  0  -0.682893  0  1.686709  0  0  -0.709011  0  1.675642  0  0  -0.506398  -0.664478  0  1.695878  0
O  O62  1  0.35717501  0.87633504  0.09478600  1  0  -0.641697  0  2.106571  0  0  -0.597303  0  2.355089  0  0  -0.625536  0  2.34622  0  0  -0.317842  -0.57653  0  2.360473  0
O  O63  1  0.14282305  0.78154910  0.90521315  1  0  -0.641696  0  2.106586  0  0  -0.597312  0  2.35509  0  0  -0.625543  0  2.346221  0  0  -0.317858  -0.57655  0  2.360502  0
O  O64  1  0.64282563  0.12366473  0.90521244  1  0  -0.641705  0  2.106462  0  0  -0.597293  0  2.355038  0  0  -0.625527  0  2.346174  0  0  -0.317831  -0.576519  0  2.360416  0
O  O65  1  0.85717619  0.21845066  0.09478685  1  0  -0.641735  0  2.106484  0  0  -0.597331  0  2.355099  0  0  -0.625564  0  2.346234  0  0  -0.317855  -0.576545  0  2.360453  0
O  O66  1  0.45422430  0.24910243  0.16319108  1  0  -0.671943  0  1.39484  0  0  -0.674664  0  1.633906  0  0  -0.699736  0  1.625892  0  0  -0.518632  -0.656703  0  1.640411  0
O  O67  1  0.04577636  0.08591179  0.83680798  1  0  -0.671943  0  1.394773  0  0  -0.674665  0  1.633827  0  0  -0.699736  0  1.625815  0  0  -0.51862  -0.656711  0  1.640337  0
O  O68  1  0.54577470  0.75089534  0.83680625  1  0  -0.671858  0  1.394786  0  0  -0.674613  0  1.633867  0  0  -0.699684  0  1.625853  0  0  -0.518591  -0.656655  0  1.640378  0
O  O69  1  0.95422300  0.91408896  0.16319675  1  0  -0.671846  0  1.394737  0  0  -0.674615  0  1.633833  0  0  -0.699685  0  1.625821  0  0  -0.51859  -0.656659  0  1.640352  0
