# generated using pymatgen
data_CuH7C7SIN
_symmetry_space_group_name_H-M   'P 1'
_cell_length_a   5.86033589
_cell_length_b   10.54999177
_cell_length_c   15.60034886
_cell_angle_alpha   90.00075617
_cell_angle_beta   90.00010700
_cell_angle_gamma   98.68859960
_symmetry_Int_Tables_number   1
_chemical_formula_structural   CuH7C7SIN
_chemical_formula_sum   'Cu4 H28 C28 S4 I4 N4'
_cell_volume   953.44608985
_cell_formula_units_Z   4
loop_
 _symmetry_equiv_pos_site_id
 _symmetry_equiv_pos_as_xyz
  1  'x, y, z'
loop_
 _atom_site_type_symbol
 _atom_site_label
 _atom_site_symmetry_multiplicity
 _atom_site_fract_x
 _atom_site_fract_y
 _atom_site_fract_z
 _atom_site_occupancy
 _atom_site_hle17_bader_spin_density
 _atom_site_hle17_ddec_charge
 _atom_site_hle17_ddec_spin_density
 _atom_site_hle17_ddec_sum_bond_order
 _atom_site_hle17_magmom
 _atom_site_hse06_10hf_bader_spin_density
 _atom_site_hse06_10hf_ddec_charge
 _atom_site_hse06_10hf_ddec_spin_density
 _atom_site_hse06_10hf_ddec_sum_bond_order
 _atom_site_hse06_10hf_magmom
 _atom_site_hse06_bader_spin_density
 _atom_site_hse06_ddec_charge
 _atom_site_hse06_ddec_spin_density
 _atom_site_hse06_ddec_sum_bond_order
 _atom_site_hse06_magmom
 _atom_site_pbe_bader_spin_density
 _atom_site_pbe_cm5_charge
 _atom_site_pbe_ddec_charge
 _atom_site_pbe_ddec_spin_density
 _atom_site_pbe_ddec_sum_bond_order
 _atom_site_pbe_magmom
Cu  Cu0  1  0.76920650  0.48663926  0.50816733  1  0  0.258739  0  2.253643  0  0  0.201874  0  2.7246  0  0  0.207663  0  2.677837  0  0  0.237379  0.200301  0  2.754295  0
Cu  Cu1  1  0.73068189  0.01334530  0.00822446  1  0  0.258755  0  2.254393  0  0  0.20193  0  2.72544  0  0  0.207687  0  2.678666  0  0  0.237427  0.200349  0  2.755135  0
Cu  Cu2  1  0.23057864  0.51318894  0.49176651  1  0  0.258782  0  2.254117  0  0  0.20192  0  2.725169  0  0  0.20768  0  2.6784  0  0  0.237345  0.200353  0  2.754864  0
Cu  Cu3  1  0.26948319  0.98688170  0.99178183  1  0  0.258711  0  2.253781  0  0  0.201835  0  2.724851  0  0  0.207549  0  2.678076  0  0  0.237387  0.200255  0  2.754539  0
H  H4  1  0.00984072  0.23944341  0.48401086  1  0  0.084339  0  1.002147  0  0  0.08912  0  1.076372  0  0  0.093107  0  1.072887  0  0  0.082964  0.086151  0  1.078939  0
H  H5  1  0.49012951  0.26050062  0.98396646  1  0  0.084303  0  1.002136  0  0  0.089054  0  1.076438  0  0  0.093054  0  1.072934  0  0  0.082846  0.086081  0  1.079008  0
H  H6  1  0.98980514  0.76033982  0.51604348  1  0  0.084567  0  1.001897  0  0  0.089132  0  1.076556  0  0  0.093215  0  1.072986  0  0  0.082904  0.086112  0  1.079159  0
H  H7  1  0.50993567  0.73966828  0.01597316  1  0  0.08427  0  1.002105  0  0  0.08902  0  1.076524  0  0  0.093098  0  1.072947  0  0  0.08286  0.085998  0  1.079132  0
H  H8  1  0.65028392  0.08557562  0.49328163  1  0  0.084731  0  0.971307  0  0  0.09546  0  1.034081  0  0  0.097441  0  1.034658  0  0  0.095382  0.094023  0  1.033834  0
H  H9  1  0.84962503  0.41440862  0.99321860  1  0  0.084787  0  0.971104  0  0  0.095502  0  1.03387  0  0  0.097485  0  1.03445  0  0  0.095349  0.094066  0  1.033614  0
H  H10  1  0.34950978  0.91411670  0.50673618  1  0  0.085092  0  0.971522  0  0  0.09559  0  1.034474  0  0  0.097577  0  1.035041  0  0  0.095292  0.094145  0  1.034239  0
H  H11  1  0.15040548  0.58575814  0.00663898  1  0  0.085124  0  0.971231  0  0  0.095644  0  1.0342  0  0  0.097627  0  1.034772  0  0  0.095323  0.094203  0  1.033967  0
H  H12  1  0.59173851  0.92599786  0.61319770  1  0  0.085036  0  0.953728  0  0  0.09555  0  1.016384  0  0  0.098765  0  1.01413  0  0  0.095991  0.093178  0  1.018106  0
H  H13  1  0.90820830  0.57401092  0.11315306  1  0  0.085304  0  0.953545  0  0  0.095839  0  1.016187  0  0  0.09911  0  1.013867  0  0  0.096095  0.093443  0  1.017969  0
H  H14  1  0.40791293  0.07399120  0.38696562  1  0  0.085267  0  0.95319  0  0  0.09554  0  1.016195  0  0  0.098808  0  1.013875  0  0  0.095797  0.093142  0  1.017975  0
H  H15  1  0.09209233  0.42601500  0.88677246  1  0  0.085419  0  0.953053  0  0  0.09562  0  1.016117  0  0  0.098894  0  1.013793  0  0  0.095843  0.093229  0  1.017881  0
H  H16  1  0.89711823  0.92616836  0.72355424  1  0  0.085661  0  0.979545  0  0  0.093886  0  1.043664  0  0  0.097084  0  1.042275  0  0  0.088977  0.091507  0  1.044906  0
H  H17  1  0.60284402  0.57381743  0.22352620  1  0  0.085531  0  0.979296  0  0  0.093672  0  1.043569  0  0  0.096872  0  1.042184  0  0  0.088805  0.091296  0  1.044808  0
H  H18  1  0.10270184  0.07365623  0.27649242  1  0  0.085661  0  0.979329  0  0  0.093528  0  1.043867  0  0  0.096725  0  1.042497  0  0  0.088696  0.091142  0  1.045121  0
H  H19  1  0.39753561  0.42630570  0.77641919  1  0  0.085915  0  0.979305  0  0  0.093819  0  1.043781  0  0  0.09702  0  1.042413  0  0  0.088797  0.091377  0  1.045091  0
H  H20  1  0.25861648  0.07456037  0.71355033  1  0  0.073574  0  1.020026  0  0  0.083255  0  1.08897  0  0  0.086452  0  1.086928  0  0  0.080338  0.080782  0  1.090655  0
H  H21  1  0.24139460  0.42538423  0.21352755  1  0  0.073676  0  1.019955  0  0  0.083354  0  1.088901  0  0  0.086501  0  1.08691  0  0  0.080409  0.080884  0  1.090575  0
H  H22  1  0.74123940  0.92522330  0.28643030  1  0  0.073651  0  1.020003  0  0  0.08335  0  1.088957  0  0  0.086491  0  1.086979  0  0  0.080384  0.080876  0  1.090633  0
H  H23  1  0.75894804  0.57476832  0.78642746  1  0  0.073791  0  1.019943  0  0  0.083386  0  1.089044  0  0  0.08653  0  1.087064  0  0  0.080339  0.080932  0  1.090691  0
H  H24  1  0.48345775  0.22923371  0.71436522  1  0  0.32146  0  0.887422  0  0  0.30717  0  0.946608  0  0  0.315105  0  0.939914  0  0  0.30406  0.301625  0  0.951295  0
H  H25  1  0.01652651  0.27081492  0.21434276  1  0  0.32143  0  0.887412  0  0  0.307147  0  0.946567  0  0  0.315087  0  0.939861  0  0  0.304127  0.301608  0  0.951255  0
H  H26  1  0.51643326  0.77068995  0.28567567  1  0  0.320964  0  0.888101  0  0  0.306679  0  0.947225  0  0  0.314619  0  0.940527  0  0  0.303875  0.301142  0  0.951915  0
H  H27  1  0.98368673  0.72946121  0.78566225  1  0  0.321139  0  0.887681  0  0  0.306737  0  0.946994  0  0  0.314711  0  0.940277  0  0  0.303848  0.301156  0  0.951721  0
H  H28  1  0.67303042  0.33749429  0.65283562  1  0  0.311584  0  0.92773  0  0  0.29171  0  1.001095  0  0  0.30124  0  0.992216  0  0  0.277699  0.284839  0  1.007538  0
H  H29  1  0.82697340  0.16252225  0.15282726  1  0  0.311617  0  0.927582  0  0  0.291681  0  1.001007  0  0  0.301233  0  0.992114  0  0  0.277706  0.284801  0  1.007449  0
H  H30  1  0.32680472  0.66234954  0.34713860  1  0  0.310945  0  0.928259  0  0  0.291049  0  1.001684  0  0  0.300577  0  0.992823  0  0  0.277438  0.284204  0  1.008097  0
H  H31  1  0.17326019  0.83766499  0.84723095  1  0  0.310885  0  0.928335  0  0  0.290999  0  1.001776  0  0  0.300514  0  0.992939  0  0  0.277379  0.284178  0  1.008179  0
C  C32  1  0.37708280  0.26034189  0.59122948  1  0  0.348857  0  3.727974  0  0  0.325098  0  4.002974  0  0  0.351135  0  4.010705  0  0  0.146823  0.307702  0  3.997011  0
C  C33  1  0.12293421  0.23961454  0.09122438  1  0  0.348718  0  3.72756  0  0  0.324929  0  4.002731  0  0  0.350988  0  4.010463  0  0  0.146649  0.307491  0  3.996846  0
C  C34  1  0.62265670  0.73954247  0.40880884  1  0  0.347993  0  3.7297  0  0  0.324629  0  4.003918  0  0  0.350702  0  4.011633  0  0  0.146831  0.307193  0  3.998022  0
C  C35  1  0.87728100  0.76052664  0.90879601  1  0  0.348313  0  3.729883  0  0  0.324817  0  4.004127  0  0  0.350881  0  4.011863  0  0  0.147022  0.307416  0  3.998125  0
C  C36  1  0.16077018  0.16995517  0.59799379  1  0  -0.027568  0  3.792153  0  0  0.000309  0  4.016013  0  0  -0.009464  0  4.042181  0  0  -0.019777  0.006071  0  3.999334  0
C  C37  1  0.33926157  0.32998581  0.09797259  1  0  -0.027275  0  3.791908  0  0  0.000354  0  4.016127  0  0  -0.0095  0  4.042408  0  0  -0.019746  0.006181  0  3.999355  0
C  C38  1  0.83897207  0.82991293  0.40206120  1  0  -0.027679  0  3.79248  0  0  0.000187  0  4.016174  0  0  -0.009753  0  4.042642  0  0  -0.020203  0.006017  0  3.999385  0
C  C39  1  0.66096657  0.67015928  0.90199459  1  0  -0.028149  0  3.79325  0  0  0.000226  0  4.016402  0  0  -0.00971  0  4.042873  0  0  -0.020408  0.006045  0  3.999631  0
C  C40  1  0.98565095  0.17032694  0.53630979  1  0  -0.072322  0  3.725994  0  0  -0.093588  0  3.967653  0  0  -0.091616  0  3.987367  0  0  -0.087176  -0.094869  0  3.954687  0
C  C41  1  0.51434187  0.32962086  0.03627177  1  0  -0.072578  0  3.725544  0  0  -0.093701  0  3.967097  0  0  -0.091729  0  3.986849  0  0  -0.087292  -0.094995  0  3.954112  0
C  C42  1  0.01407908  0.82947886  0.46374456  1  0  -0.072869  0  3.725366  0  0  -0.094077  0  3.966732  0  0  -0.092154  0  3.986391  0  0  -0.08727  -0.095327  0  3.953773  0
C  C43  1  0.48578410  0.67055228  0.96365568  1  0  -0.072299  0  3.72548  0  0  -0.0938  0  3.966975  0  0  -0.091867  0  3.986615  0  0  -0.08719  -0.095056  0  3.95404  0
C  C44  1  0.78310602  0.08325738  0.54173521  1  0  -0.066541  0  3.759268  0  0  -0.077262  0  4.00747  0  0  -0.082439  0  4.030817  0  0  -0.093305  -0.073886  0  3.991785  0
C  C45  1  0.71685431  0.41672467  0.04169290  1  0  -0.066569  0  3.759495  0  0  -0.077202  0  4.00763  0  0  -0.082383  0  4.031004  0  0  -0.093181  -0.073818  0  3.99194  0
C  C46  1  0.21662078  0.91656276  0.45832299  1  0  -0.066837  0  3.759953  0  0  -0.077171  0  4.007875  0  0  -0.082346  0  4.031277  0  0  -0.092822  -0.073785  0  3.992157  0
C  C47  1  0.28332608  0.58339331  0.95822621  1  0  -0.066671  0  3.759346  0  0  -0.07707  0  4.007454  0  0  -0.082241  0  4.030849  0  0  -0.092837  -0.073689  0  3.99175  0
C  C48  1  0.74998715  0.99479162  0.60882386  1  0  -0.040524  0  3.732431  0  0  -0.06089  0  3.987053  0  0  -0.058781  0  4.0052  0  0  -0.086396  -0.062182  0  3.974856  0
C  C49  1  0.74998253  0.50519223  0.10878479  1  0  -0.040908  0  3.732965  0  0  -0.061379  0  3.987667  0  0  -0.059313  0  4.005811  0  0  -0.086639  -0.062675  0  3.975461  0
C  C50  1  0.24974015  0.00509170  0.39126190  1  0  -0.040462  0  3.732397  0  0  -0.060823  0  3.987013  0  0  -0.058758  0  4.005155  0  0  -0.086401  -0.062114  0  3.9748  0
C  C51  1  0.25027953  0.49489757  0.89114137  1  0  -0.04083  0  3.732519  0  0  -0.061132  0  3.987184  0  0  -0.059061  0  4.005306  0  0  -0.086255  -0.062425  0  3.974964  0
C  C52  1  0.92226914  0.99376081  0.67047344  1  0  -0.06799  0  3.770331  0  0  -0.077156  0  4.017338  0  0  -0.080664  0  4.036943  0  0  -0.099264  -0.075031  0  4.004332  0
C  C53  1  0.57772539  0.50621244  0.17044847  1  0  -0.067613  0  3.770168  0  0  -0.076704  0  4.017102  0  0  -0.080213  0  4.036713  0  0  -0.098947  -0.074573  0  4.004089  0
C  C54  1  0.07751942  0.00606740  0.32957321  1  0  -0.067557  0  3.769775  0  0  -0.076296  0  4.016713  0  0  -0.079813  0  4.03633  0  0  -0.098481  -0.074159  0  4.003693  0
C  C55  1  0.42260120  0.49392373  0.82949115  1  0  -0.067565  0  3.769967  0  0  -0.076304  0  4.016786  0  0  -0.07981  0  4.036393  0  0  -0.098561  -0.074123  0  4.003788  0
C  C56  1  0.12611541  0.08008261  0.66513344  1  0  -0.082278  0  3.719475  0  0  -0.104821  0  3.95886  0  0  -0.103155  0  3.977881  0  0  -0.091899  -0.105685  0  3.946264  0
C  C57  1  0.37390069  0.41987048  0.16510750  1  0  -0.082423  0  3.719817  0  0  -0.104852  0  3.959191  0  0  -0.10313  0  3.978276  0  0  -0.091854  -0.105723  0  3.946553  0
C  C58  1  0.87365309  0.91975408  0.33490103  1  0  -0.082553  0  3.719417  0  0  -0.105209  0  3.958903  0  0  -0.10347  0  3.977956  0  0  -0.092237  -0.106077  0  3.946268  0
C  C59  1  0.62644425  0.58025720  0.83486033  1  0  -0.082798  0  3.719761  0  0  -0.10555  0  3.959208  0  0  -0.103817  0  3.978264  0  0  -0.092205  -0.106421  0  3.946541  0
S  S60  1  0.45013870  0.33725607  0.49674888  1  0  -0.318998  0  2.620647  0  0  -0.293069  0  3.05663  0  0  -0.306433  0  3.034362  0  0  -0.195144  -0.285036  0  3.071162  0
S  S61  1  0.04981210  0.16268656  0.99675672  1  0  -0.318826  0  2.621092  0  0  -0.292827  0  3.057099  0  0  -0.306181  0  3.034811  0  0  -0.195128  -0.284781  0  3.071644  0
S  S62  1  0.54959930  0.66257468  0.50326765  1  0  -0.318612  0  2.620745  0  0  -0.292784  0  3.056461  0  0  -0.306132  0  3.034175  0  0  -0.195056  -0.284745  0  3.071003  0
S  S63  1  0.95035963  0.83745816  0.00326559  1  0  -0.31881  0  2.620192  0  0  -0.293079  0  3.055985  0  0  -0.306423  0  3.033705  0  0  -0.195172  -0.285039  0  3.07049  0
I  I64  1  0.02927697  0.52688424  0.64370372  1  0  -0.418436  0  1.44641  0  0  -0.364579  0  1.813031  0  0  -0.38417  0  1.783331  0  0  -0.199674  -0.350183  0  1.832025  0
I  I65  1  0.47073623  0.97294531  0.14374031  1  0  -0.418413  0  1.446244  0  0  -0.364652  0  1.812808  0  0  -0.384172  0  1.783021  0  0  -0.19972  -0.350245  0  1.831801  0
I  I66  1  0.97056092  0.47294335  0.35623973  1  0  -0.418349  0  1.446553  0  0  -0.364633  0  1.81331  0  0  -0.384211  0  1.78356  0  0  -0.199662  -0.350236  0  1.832349  0
I  I67  1  0.52957396  0.02732954  0.85627624  1  0  -0.418173  0  1.446173  0  0  -0.364436  0  1.812842  0  0  -0.383989  0  1.783091  0  0  -0.199612  -0.350031  0  1.831884  0
N  N68  1  0.51762580  0.27846368  0.65847850  1  0  -0.559484  0  3.200306  0  0  -0.512085  0  3.419816  0  0  -0.531271  0  3.415619  0  0  -0.537  -0.499325  0  3.423012  0
N  N69  1  0.98237889  0.22154327  0.15847067  1  0  -0.55951  0  3.200019  0  0  -0.51201  0  3.419627  0  0  -0.531215  0  3.415348  0  0  -0.536982  -0.499246  0  3.422862  0
N  N70  1  0.48216542  0.72143634  0.34154636  1  0  -0.55798  0  3.201594  0  0  -0.510673  0  3.420924  0  0  -0.529849  0  3.416747  0  0  -0.536566  -0.49796  0  3.424056  0
N  N71  1  0.01787695  0.77863742  0.84156447  1  0  -0.55814  0  3.201495  0  0  -0.510785  0  3.420805  0  0  -0.529992  0  3.416596  0  0  -0.536319  -0.498056  0  3.423938  0
