# generated using pymatgen
data_CdH26C37(NO2)3
_symmetry_space_group_name_H-M   'P 1'
_cell_length_a   11.68946740
_cell_length_b   12.27119464
_cell_length_c   12.37954125
_cell_angle_alpha   79.21926794
_cell_angle_beta   81.06260706
_cell_angle_gamma   63.14713426
_symmetry_Int_Tables_number   1
_chemical_formula_structural   CdH26C37(NO2)3
_chemical_formula_sum   'Cd2 H52 C74 N6 O12'
_cell_volume   1551.22749642
_cell_formula_units_Z   2
loop_
 _symmetry_equiv_pos_site_id
 _symmetry_equiv_pos_as_xyz
  1  'x, y, z'
loop_
 _atom_site_type_symbol
 _atom_site_label
 _atom_site_symmetry_multiplicity
 _atom_site_fract_x
 _atom_site_fract_y
 _atom_site_fract_z
 _atom_site_occupancy
 _atom_site_hle17_bader_spin_density
 _atom_site_hle17_ddec_charge
 _atom_site_hle17_ddec_spin_density
 _atom_site_hle17_ddec_sum_bond_order
 _atom_site_hle17_magmom
 _atom_site_hse06_10hf_bader_spin_density
 _atom_site_hse06_10hf_ddec_charge
 _atom_site_hse06_10hf_ddec_spin_density
 _atom_site_hse06_10hf_ddec_sum_bond_order
 _atom_site_hse06_10hf_magmom
 _atom_site_hse06_bader_spin_density
 _atom_site_hse06_ddec_charge
 _atom_site_hse06_ddec_spin_density
 _atom_site_hse06_ddec_sum_bond_order
 _atom_site_hse06_magmom
 _atom_site_pbe_bader_spin_density
 _atom_site_pbe_cm5_charge
 _atom_site_pbe_ddec_charge
 _atom_site_pbe_ddec_spin_density
 _atom_site_pbe_ddec_sum_bond_order
 _atom_site_pbe_magmom
Cd  Cd0  1  0.11517537  0.67342054  0.16503921  1  0  1.037036  0  1.761125  0  0  0.824364  0  2.212955  0  0  0.881816  0  2.165753  0  0  0.772751  0.783918  0  2.244925  0
Cd  Cd1  1  0.88482874  0.32657714  0.83496364  1  0  1.037074  0  1.761071  0  0  0.824408  0  2.212924  0  0  0.881862  0  2.165718  0  0  0.77278  0.783963  0  2.244897  0
H  H2  1  0.11900590  0.65457790  0.80089693  1  0  0.10347  0  0.975505  0  0  0.112426  0  1.037326  0  0  0.115985  0  1.035497  0  0  0.098923  0.109904  0  1.038672  0
H  H3  1  0.88099213  0.34541982  0.19910684  1  0  0.103453  0  0.975504  0  0  0.112425  0  1.0373  0  0  0.115984  0  1.035472  0  0  0.098899  0.109899  0  1.03865  0
H  H4  1  0.18218195  0.53627849  0.64336680  1  0  0.094138  0  0.942595  0  0  0.107938  0  0.995365  0  0  0.110774  0  0.994373  0  0  0.09997  0.105877  0  0.996144  0
H  H5  1  0.81781575  0.46372382  0.35663618  1  0  0.094124  0  0.942547  0  0  0.107924  0  0.99532  0  0  0.11076  0  0.994328  0  0  0.099988  0.105863  0  0.996099  0
H  H6  1  0.35597327  0.54322925  0.50145759  1  0  0.08419  0  0.965118  0  0  0.09516  0  1.028586  0  0  0.098007  0  1.027489  0  0  0.095434  0.093103  0  1.029484  0
H  H7  1  0.64402135  0.45677219  0.49854360  1  0  0.084169  0  0.965129  0  0  0.095132  0  1.028605  0  0  0.097978  0  1.02751  0  0  0.095432  0.093074  0  1.029503  0
H  H8  1  0.19699166  0.30374958  0.11877202  1  0  0.099317  0  1.019027  0  0  0.104625  0  1.088427  0  0  0.108259  0  1.086659  0  0  0.092933  0.102053  0  1.089724  0
H  H9  1  0.80300725  0.69625000  0.88122723  1  0  0.099328  0  1.019049  0  0  0.104611  0  1.088479  0  0  0.108245  0  1.086711  0  0  0.092939  0.10204  0  1.089776  0
H  H10  1  0.36907536  0.88108241  0.32454825  1  0  0.074048  0  0.983327  0  0  0.084519  0  1.050494  0  0  0.087135  0  1.049462  0  0  0.09016  0.082689  0  1.051194  0
H  H11  1  0.63092439  0.11891719  0.67544845  1  0  0.074086  0  0.983222  0  0  0.084497  0  1.050454  0  0  0.087126  0  1.049411  0  0  0.090156  0.082662  0  1.051166  0
H  H12  1  0.33143159  0.91306461  0.12508469  1  0  0.089365  0  0.965119  0  0  0.097438  0  1.030256  0  0  0.100505  0  1.02967  0  0  0.094341  0.095287  0  1.030681  0
H  H13  1  0.66856338  0.08693409  0.87491451  1  0  0.089398  0  0.9651  0  0  0.097484  0  1.030213  0  0  0.100552  0  1.029625  0  0  0.094374  0.095334  0  1.030635  0
H  H14  1  0.30570152  0.65628043  0.32800734  1  0  0.076087  0  0.954593  0  0  0.081835  0  1.024801  0  0  0.084007  0  1.023372  0  0  0.113976  0.08024  0  1.025861  0
H  H15  1  0.69430218  0.34372004  0.67199103  1  0  0.076133  0  0.954525  0  0  0.081876  0  1.024751  0  0  0.084047  0  1.023325  0  0  0.113997  0.080283  0  1.025812  0
H  H16  1  0.51440056  0.66526304  0.33241178  1  0  0.102681  0  0.957445  0  0  0.113823  0  1.018811  0  0  0.116637  0  1.017898  0  0  0.108776  0.111777  0  1.019663  0
H  H17  1  0.48560069  0.33474293  0.66758920  1  0  0.102694  0  0.957459  0  0  0.113809  0  1.018853  0  0  0.116618  0  1.017945  0  0  0.10879  0.111771  0  1.019681  0
H  H18  1  0.58367061  0.63751903  0.98330950  1  0  0.127033  0  0.929818  0  0  0.137534  0  0.985628  0  0  0.140986  0  0.984655  0  0  0.118126  0.135051  0  0.986489  0
H  H19  1  0.41633359  0.36248420  0.01668830  1  0  0.12709  0  0.929817  0  0  0.137595  0  0.985633  0  0  0.141047  0  0.98466  0  0  0.118146  0.13511  0  0.986495  0
H  H20  1  0.37467378  0.62479479  0.99421074  1  0  0.078244  0  0.957055  0  0  0.085722  0  1.022794  0  0  0.087283  0  1.022555  0  0  0.116489  0.084541  0  1.023042  0
H  H21  1  0.62532993  0.37520568  0.00578844  1  0  0.078178  0  0.957114  0  0  0.085672  0  1.02282  0  0  0.087228  0  1.022593  0  0  0.116457  0.084491  0  1.02307  0
H  H22  1  0.79653503  0.52968979  0.04876793  1  0  0.132716  0  0.953891  0  0  0.138958  0  1.019474  0  0  0.143274  0  1.016566  0  0  0.115567  0.135815  0  1.021779  0
H  H23  1  0.20347205  0.47030513  0.95123417  1  0  0.132733  0  0.953965  0  0  0.138946  0  1.01957  0  0  0.143261  0  1.016663  0  0  0.115571  0.135803  0  1.021874  0
H  H24  1  0.60225832  0.81280707  0.26286678  1  0  0.101093  0  0.965789  0  0  0.110143  0  1.031422  0  0  0.112952  0  1.030882  0  0  0.105769  0.108115  0  1.031982  0
H  H25  1  0.39774412  0.18719431  0.73713323  1  0  0.101157  0  0.965811  0  0  0.110218  0  1.031415  0  0  0.11303  0  1.030876  0  0  0.1058  0.10819  0  1.031976  0
H  H26  1  0.81239443  0.82179448  0.26291623  1  0  0.075072  0  0.948406  0  0  0.082164  0  1.016768  0  0  0.084189  0  1.015293  0  0  0.115102  0.080622  0  1.017925  0
H  H27  1  0.18760974  0.17820689  0.73708353  1  0  0.075071  0  0.948458  0  0  0.08218  0  1.01677  0  0  0.084208  0  1.015293  0  0  0.115112  0.080636  0  1.01793  0
H  H28  1  0.05274846  0.95273277  0.17925761  1  0  0.097366  0  0.937807  0  0  0.106033  0  0.999153  0  0  0.108847  0  0.996741  0  0  0.120396  0.103945  0  1.000946  0
H  H29  1  0.94724875  0.04726867  0.82074076  1  0  0.09726  0  0.937734  0  0  0.105931  0  0.999097  0  0  0.108747  0  0.996683  0  0  0.120344  0.103842  0  1.000893  0
H  H30  1  0.99612778  0.80716250  0.57170778  1  0  0.105016  0  0.964614  0  0  0.114842  0  1.026139  0  0  0.11732  0  1.026655  0  0  0.108213  0.113071  0  1.025914  0
H  H31  1  0.00386736  0.19284355  0.42829006  1  0  0.105008  0  0.964604  0  0  0.114759  0  1.026213  0  0  0.117234  0  1.026729  0  0  0.108214  0.112983  0  1.025996  0
H  H32  1  0.03068497  0.68174683  0.42501626  1  0  0.095455  0  0.937599  0  0  0.104112  0  0.996797  0  0  0.107135  0  0.994054  0  0  0.119062  0.101843  0  0.998882  0
H  H33  1  0.96931186  0.31825737  0.57498167  1  0  0.095498  0  0.937539  0  0  0.10414  0  0.996738  0  0  0.107163  0  0.993995  0  0  0.119053  0.10187  0  0.998825  0
H  H34  1  0.02255150  0.09004779  0.31431058  1  0  0.109198  0  0.956351  0  0  0.120386  0  1.014954  0  0  0.122895  0  1.015182  0  0  0.110756  0.118583  0  1.014947  0
H  H35  1  0.97744447  0.90995828  0.68568310  1  0  0.109245  0  0.956382  0  0  0.120373  0  1.015019  0  0  0.12288  0  1.015247  0  0  0.110734  0.118526  0  1.015066  0
H  H36  1  0.24101713  0.12599522  0.02523724  1  0  0.094406  0  0.961448  0  0  0.102982  0  1.023777  0  0  0.105916  0  1.022657  0  0  0.096468  0.100823  0  1.024679  0
H  H37  1  0.75897962  0.87400530  0.97476137  1  0  0.09437  0  0.961543  0  0  0.102989  0  1.023817  0  0  0.105887  0  1.022744  0  0  0.096465  0.100828  0  1.024723  0
H  H38  1  0.33031934  0.13259135  0.58670831  1  0  0.1015  0  0.967514  0  0  0.113282  0  1.030037  0  0  0.116193  0  1.029622  0  0  0.100331  0.111248  0  1.030422  0
H  H39  1  0.66968551  0.86740270  0.41328862  1  0  0.101494  0  0.967542  0  0  0.113278  0  1.030064  0  0  0.11619  0  1.029646  0  0  0.100307  0.111243  0  1.030449  0
H  H40  1  0.46253321  0.67584517  0.51683125  1  0  0.082216  0  0.9654  0  0  0.0934  0  1.029694  0  0  0.096593  0  1.027271  0  0  0.093963  0.091061  0  1.031522  0
H  H41  1  0.53745971  0.32415811  0.48316986  1  0  0.082147  0  0.965407  0  0  0.093342  0  1.029694  0  0  0.096535  0  1.027271  0  0  0.09395  0.091014  0  1.031511  0
H  H42  1  0.48621133  0.81993240  0.61281559  1  0  0.082906  0  0.983192  0  0  0.093778  0  1.047913  0  0  0.095319  0  1.047883  0  0  0.096662  0.092581  0  1.048074  0
H  H43  1  0.51378672  0.18006718  0.38718542  1  0  0.083018  0  0.983238  0  0  0.09383  0  1.048003  0  0  0.095407  0  1.047934  0  0  0.096683  0.09263  0  1.048166  0
H  H44  1  0.41331842  0.95282765  0.76151468  1  0  0.11321  0  0.942314  0  0  0.125735  0  0.998118  0  0  0.12892  0  0.997732  0  0  0.105529  0.123511  0  0.998469  0
H  H45  1  0.58667788  0.04717196  0.23848416  1  0  0.113205  0  0.942305  0  0  0.125707  0  0.998136  0  0  0.128888  0  0.997761  0  0  0.105506  0.123482  0  0.998486  0
H  H46  1  0.99765059  0.55221331  0.05834925  1  0  0.083099  0  0.958518  0  0  0.092046  0  1.023142  0  0  0.094176  0  1.021138  0  0  0.119674  0.090466  0  1.024636  0
H  H47  1  0.00235395  0.44778343  0.94165613  1  0  0.083115  0  0.958466  0  0  0.092014  0  1.023142  0  0  0.094138  0  1.02115  0  0  0.119674  0.090439  0  1.024637  0
H  H48  1  0.36943240  0.95924160  0.48850839  1  0  0.085484  0  0.977169  0  0  0.097024  0  1.040514  0  0  0.099309  0  1.039064  0  0  0.097147  0.095367  0  1.041536  0
H  H49  1  0.63057285  0.04075154  0.51148785  1  0  0.085497  0  0.977195  0  0  0.097037  0  1.040531  0  0  0.099319  0  1.039085  0  0  0.097164  0.095379  0  1.041552  0
H  H50  1  0.17079782  0.94159256  0.96941248  1  0  0.383216  0  0.907069  0  0  0.356146  0  0.98012  0  0  0.368877  0  0.966923  0  0  0.295861  0.347233  0  0.989195  0
H  H51  1  0.82919942  0.05840885  0.03058912  1  0  0.383227  0  0.907093  0  0  0.356182  0  0.980105  0  0  0.368913  0  0.966906  0  0  0.295859  0.347271  0  0.989178  0
H  H52  1  0.20922179  0.43969867  0.44909139  1  0  0.379226  0  0.923421  0  0  0.350815  0  0.99921  0  0  0.363829  0  0.98555  0  0  0.290549  0.341697  0  1.008628  0
H  H53  1  0.79078003  0.56029445  0.55091102  1  0  0.379136  0  0.923446  0  0  0.350735  0  0.999224  0  0  0.363749  0  0.985567  0  0  0.290526  0.341618  0  1.008639  0
C  C54  1  0.14785514  0.78006425  0.94535122  1  0  0.634072  0  3.925614  0  0  0.58575  0  4.215926  0  0  0.621429  0  4.208743  0  0  0.186728  0.56164  0  4.219911  0
C  C55  1  0.85214643  0.21993713  0.05464973  1  0  0.634148  0  3.925505  0  0  0.585834  0  4.215812  0  0  0.621512  0  4.208627  0  0  0.186796  0.561725  0  4.219794  0
C  C56  1  0.21912930  0.80499832  0.84096082  1  0  -0.289945  0  3.740498  0  0  -0.280006  0  3.990322  0  0  -0.296686  0  4.013062  0  0  -0.049451  -0.269078  0  3.974983  0
C  C57  1  0.78087056  0.19500306  0.15904281  1  0  -0.289979  0  3.740528  0  0  -0.280039  0  3.99035  0  0  -0.296716  0  4.013086  0  0  -0.049457  -0.269113  0  3.97501  0
C  C58  1  0.27117751  0.88939833  0.83851801  1  0  0.341128  0  3.826866  0  0  0.323059  0  4.095023  0  0  0.340476  0  4.108381  0  0  0.089811  0.311438  0  4.085572  0
C  C59  1  0.72882361  0.11060214  0.16148237  1  0  0.341121  0  3.826786  0  0  0.32305  0  4.094958  0  0  0.340466  0  4.108312  0  0  0.089778  0.31143  0  4.085504  0
C  C60  1  0.25318571  0.73466470  0.75065021  1  0  0.080083  0  3.755853  0  0  0.089154  0  3.983749  0  0  0.09362  0  4.007508  0  0  -0.004604  0.086371  0  3.967637  0
C  C61  1  0.74681103  0.26533395  0.24935277  1  0  0.080068  0  3.755879  0  0  0.089143  0  3.983781  0  0  0.093608  0  4.00754  0  0  -0.004609  0.086356  0  3.967665  0
C  C62  1  0.19351806  0.65967677  0.73852212  1  0  -0.13011  0  3.738316  0  0  -0.152108  0  3.994176  0  0  -0.15549  0  4.01286  0  0  -0.100649  -0.14991  0  3.981475  0
C  C63  1  0.80647741  0.34032280  0.26148250  1  0  -0.130182  0  3.738495  0  0  -0.152173  0  3.994318  0  0  -0.155557  0  4.013003  0  0  -0.100642  -0.149973  0  3.981616  0
C  C64  1  0.22924160  0.59363208  0.65010317  1  0  -0.069664  0  3.792599  0  0  -0.084939  0  4.050608  0  0  -0.085116  0  4.070827  0  0  -0.097907  -0.084547  0  4.036658  0
C  C65  1  0.77075515  0.40636658  0.34989982  1  0  -0.06952  0  3.792525  0  0  -0.084792  0  4.050508  0  0  -0.084968  0  4.070725  0  0  -0.097879  -0.084401  0  4.036555  0
C  C66  1  0.32716363  0.59792803  0.56933778  1  0  -0.094782  0  3.818729  0  0  -0.113734  0  4.080889  0  0  -0.116912  0  4.103354  0  0  -0.109053  -0.11159  0  4.065519  0
C  C67  1  0.67283057  0.40207433  0.43066330  1  0  -0.094836  0  3.818978  0  0  -0.113783  0  4.081159  0  0  -0.116961  0  4.103622  0  0  -0.10907  -0.11164  0  4.065793  0
C  C68  1  0.19826032  0.42631914  0.27869594  1  0  0.650721  0  3.890947  0  0  0.6035  0  4.176053  0  0  0.63959  0  4.168604  0  0  0.192702  0.579116  0  4.180219  0
C  C69  1  0.80174114  0.57367672  0.72130684  1  0  0.650919  0  3.890596  0  0  0.603705  0  4.17567  0  0  0.639794  0  4.168221  0  0  0.192766  0.579319  0  4.179844  0
C  C70  1  0.23959507  0.29695243  0.33278384  1  0  -0.276501  0  3.702143  0  0  -0.266811  0  3.94649  0  0  -0.282945  0  3.96872  0  0  -0.047898  -0.256275  0  3.93152  0
C  C71  1  0.76040382  0.70304529  0.66721898  1  0  -0.276488  0  3.702209  0  0  -0.266765  0  3.946462  0  0  -0.282889  0  3.968689  0  0  -0.047897  -0.256225  0  3.931494  0
C  C72  1  0.26107006  0.19665535  0.27510522  1  0  0.079684  0  3.745713  0  0  0.08976  0  3.974108  0  0  0.094113  0  3.998294  0  0  -0.003676  0.087063  0  3.957688  0
C  C73  1  0.73893003  0.80333965  0.72489226  1  0  0.079599  0  3.745768  0  0  0.089689  0  3.974096  0  0  0.094045  0  3.998281  0  0  -0.003658  0.08699  0  3.957678  0
C  C74  1  0.23585549  0.21135803  0.16329182  1  0  -0.135077  0  3.740366  0  0  -0.156362  0  3.990188  0  0  -0.160909  0  4.010322  0  0  -0.105093  -0.153406  0  3.976503  0
C  C75  1  0.76414465  0.78863880  0.83670694  1  0  -0.135024  0  3.740223  0  0  -0.156302  0  3.99006  0  0  -0.16085  0  4.010183  0  0  -0.105068  -0.153347  0  3.976375  0
C  C76  1  0.30978096  0.07331275  0.33272918  1  0  0.020731  0  3.817485  0  0  0.037371  0  4.046928  0  0  0.033162  0  4.07217  0  0  -0.022824  0.039979  0  4.029799  0
C  C77  1  0.69021925  0.92668589  0.66727167  1  0  0.020697  0  3.817277  0  0  0.037343  0  4.046694  0  0  0.033131  0  4.071943  0  0  -0.022859  0.039953  0  4.029565  0
C  C78  1  0.33398355  0.97296831  0.27733154  1  0  -0.13223  0  3.804122  0  0  -0.150135  0  4.055213  0  0  -0.151796  0  4.077245  0  0  -0.103371  -0.148791  0  4.040212  0
C  C79  1  0.66602003  0.02702665  0.72266785  1  0  -0.132277  0  3.804256  0  0  -0.150137  0  4.055357  0  0  -0.151811  0  4.077387  0  0  -0.103399  -0.148796  0  4.040357  0
C  C80  1  0.31179527  0.99057161  0.16774290  1  0  -0.083496  0  3.803506  0  0  -0.100864  0  4.058121  0  0  -0.103261  0  4.078577  0  0  -0.104635  -0.099286  0  4.044175  0
C  C81  1  0.68820237  0.00943076  0.83225281  1  0  -0.083531  0  3.803449  0  0  -0.100911  0  4.058066  0  0  -0.103305  0  4.078512  0  0  -0.104661  -0.099332  0  4.044119  0
C  C82  1  0.26351977  0.27114685  0.44552622  1  0  0.335876  0  3.83115  0  0  0.320115  0  4.098009  0  0  0.336934  0  4.111573  0  0  0.085919  0.308847  0  4.088511  0
C  C83  1  0.73648168  0.72885090  0.55447056  1  0  0.335711  0  3.831362  0  0  0.319961  0  4.098201  0  0  0.336776  0  4.111766  0  0  0.085881  0.308689  0  4.088705  0
C  C84  1  0.36991065  0.65287604  0.25338800  1  0  0.128918  0  3.719075  0  0  0.099242  0  3.969348  0  0  0.106144  0  3.988345  0  0  0.04765  0.094788  0  3.956385  0
C  C85  1  0.63008483  0.34712540  0.74661225  1  0  0.128907  0  3.719317  0  0  0.099182  0  3.969624  0  0  0.106085  0  3.988621  0  0  0.047655  0.094724  0  3.956667  0
C  C86  1  0.48497399  0.65947431  0.25525719  1  0  -0.151421  0  3.71736  0  0  -0.167806  0  3.960868  0  0  -0.17562  0  3.98309  0  0  -0.075389  -0.162768  0  3.94599  0
C  C87  1  0.51503277  0.34052707  0.74473975  1  0  -0.151451  0  3.717771  0  0  -0.16781  0  3.961283  0  0  -0.175624  0  3.983506  0  0  -0.075488  -0.16277  0  3.94641  0
C  C88  1  0.56366760  0.65689848  0.15723348  1  0  0.104373  0  3.756324  0  0  0.116104  0  3.984358  0  0  0.119784  0  4.006267  0  0  0.02064  0.113817  0  3.969375  0
C  C89  1  0.43633830  0.34310290  0.84276440  1  0  0.104337  0  3.756606  0  0  0.116087  0  3.984572  0  0  0.119768  0  4.006478  0  0  0.0207  0.1138  0  3.969589  0
C  C90  1  0.52521624  0.64145907  0.06160159  1  0  -0.147543  0  3.662875  0  0  -0.163183  0  3.905052  0  0  -0.169984  0  3.923948  0  0  -0.071112  -0.158856  0  3.89244  0
C  C91  1  0.47478406  0.35854324  0.93840019  1  0  -0.147565  0  3.662765  0  0  -0.163235  0  3.904946  0  0  -0.170037  0  3.923842  0  0  -0.071143  -0.158907  0  3.892335  0
C  C92  1  0.40856548  0.63518464  0.06715171  1  0  0.134866  0  3.706391  0  0  0.102767  0  3.959591  0  0  0.110127  0  3.977937  0  0  0.048989  0.097962  0  3.947137  0
C  C93  1  0.59144089  0.36481764  0.93284755  1  0  0.134973  0  3.706202  0  0  0.102866  0  3.959398  0  0  0.110229  0  3.977738  0  0  0.049054  0.098059  0  3.946945  0
C  C94  1  0.68304988  0.66969430  0.15606985  1  0  0.097414  0  3.762078  0  0  0.108818  0  3.990659  0  0  0.112294  0  4.013057  0  0  0.018145  0.10671  0  3.975308  0
C  C95  1  0.31695466  0.33030432  0.84393034  1  0  0.097389  0  3.76212  0  0  0.10885  0  3.990564  0  0  0.112329  0  4.012953  0  0  0.018204  0.106741  0  3.975212  0
C  C96  1  0.79518606  0.59715303  0.09561656  1  0  -0.145931  0  3.67483  0  0  -0.163626  0  3.923958  0  0  -0.170915  0  3.943552  0  0  -0.071115  -0.158955  0  3.910917  0
C  C97  1  0.20481512  0.40284926  0.90438671  1  0  -0.146055  0  3.67478  0  0  -0.163718  0  3.923834  0  0  -0.171008  0  3.943427  0  0  -0.071233  -0.159048  0  3.910796  0
C  C98  1  0.68809554  0.75257621  0.21698670  1  0  -0.150912  0  3.696172  0  0  -0.170062  0  3.945076  0  0  -0.177016  0  3.964589  0  0  -0.076327  -0.165662  0  3.932103  0
C  C99  1  0.31190944  0.24742335  0.78301084  1  0  -0.150957  0  3.696366  0  0  -0.170161  0  3.945249  0  0  -0.177122  0  3.96477  0  0  -0.076393  -0.16576  0  3.932277  0
C  C100  1  0.80406104  0.75837117  0.21709851  1  0  0.145715  0  3.716921  0  0  0.109373  0  3.977776  0  0  0.118012  0  3.993954  0  0  0.052538  0.10371  0  3.966874  0
C  C101  1  0.19594436  0.24162745  0.78289994  1  0  0.145687  0  3.716987  0  0  0.109385  0  3.977816  0  0  0.118018  0  3.993997  0  0  0.052499  0.103724  0  3.966916  0
C  C102  1  0.04036427  0.92444091  0.26745072  1  0  0.127775  0  3.70078  0  0  0.094196  0  3.95862  0  0  0.101012  0  3.977132  0  0  0.047051  0.089765  0  3.946074  0
C  C103  1  0.95963470  0.07556238  0.73254463  1  0  0.127906  0  3.7008  0  0  0.094307  0  3.958623  0  0  0.101122  0  3.977138  0  0  0.047107  0.089878  0  3.946063  0
C  C104  1  0.00788124  0.96137502  0.45755892  1  0  0.096464  0  3.730161  0  0  0.110405  0  3.954064  0  0  0.114343  0  3.97466  0  0  0.016747  0.107912  0  3.940013  0
C  C105  1  0.99211254  0.03863015  0.54243606  1  0  0.096435  0  3.730053  0  0  0.110331  0  3.953974  0  0  0.114272  0  3.974569  0  0  0.016736  0.107838  0  3.939913  0
C  C106  1  0.00836985  0.84486467  0.48632097  1  0  -0.142627  0  3.704012  0  0  -0.161916  0  3.951138  0  0  -0.169624  0  3.974316  0  0  -0.076187  -0.15695  0  3.93562  0
C  C107  1  0.99162450  0.15514506  0.51367633  1  0  -0.142506  0  3.704248  0  0  -0.161734  0  3.951387  0  0  -0.169439  0  3.974564  0  0  -0.076158  -0.15677  0  3.935875  0
C  C108  1  0.02716285  0.77349860  0.40467504  1  0  0.120423  0  3.711232  0  0  0.089235  0  3.967385  0  0  0.095663  0  3.985897  0  0  0.043779  0.085065  0  3.954826  0
C  C109  1  0.97283562  0.22650193  0.59532169  1  0  0.120275  0  3.711666  0  0  0.089124  0  3.967754  0  0  0.095551  0  3.986269  0  0  0.043725  0.084955  0  3.955192  0
C  C110  1  0.02309374  0.00075606  0.34446619  1  0  -0.13809  0  3.690594  0  0  -0.157167  0  3.938078  0  0  -0.164515  0  3.960351  0  0  -0.073796  -0.15245  0  3.923208  0
C  C111  1  0.97690006  0.99924909  0.65553121  1  0  -0.138157  0  3.690688  0  0  -0.157144  0  3.938131  0  0  -0.164493  0  3.960405  0  0  -0.073796  -0.152392  0  3.923278  0
C  C112  1  0.26100210  0.11153921  0.11120753  1  0  -0.053803  0  3.763834  0  0  -0.065375  0  4.010981  0  0  -0.064825  0  4.030103  0  0  -0.093972  -0.065464  0  3.997833  0
C  C113  1  0.73899549  0.88845945  0.88879371  1  0  -0.053748  0  3.763598  0  0  -0.065349  0  4.010728  0  0  -0.064772  0  4.02987  0  0  -0.093959  -0.065437  0  3.997581  0
C  C114  1  0.31140711  0.14843002  0.50042189  1  0  -0.199646  0  3.777627  0  0  -0.219254  0  4.036826  0  0  -0.227809  0  4.056161  0  0  -0.110858  -0.213709  0  4.023725  0
C  C115  1  0.68859603  0.85156402  0.49957854  1  0  -0.19966  0  3.777743  0  0  -0.219286  0  4.036943  0  0  -0.227837  0  4.056272  0  0  -0.110872  -0.213738  0  4.02384  0
C  C116  1  0.38596169  0.67129047  0.57778131  1  0  -0.117976  0  3.770233  0  0  -0.136504  0  4.018436  0  0  -0.137637  0  4.039847  0  0  -0.097844  -0.135484  0  4.003829  0
C  C117  1  0.61403473  0.32871465  0.42221732  1  0  -0.117887  0  3.770618  0  0  -0.136407  0  4.01885  0  0  -0.137542  0  4.040266  0  0  -0.09785  -0.1354  0  4.004236  0
C  C118  1  0.34970452  0.74182186  0.66627640  1  0  0.030223  0  3.801376  0  0  0.048167  0  4.026158  0  0  0.044216  0  4.051364  0  0  -0.019466  0.050568  0  4.009114  0
C  C119  1  0.65029019  0.25818137  0.33373010  1  0  0.030264  0  3.801259  0  0  0.048145  0  4.026121  0  0  0.044195  0  4.051334  0  0  -0.019433  0.050557  0  4.009056  0
C  C120  1  0.40813571  0.81960312  0.67369101  1  0  -0.069967  0  3.762085  0  0  -0.09243  0  4.011251  0  0  -0.088652  0  4.029566  0  0  -0.084101  -0.094524  0  3.998611  0
C  C121  1  0.59186015  0.18039556  0.32631049  1  0  -0.070136  0  3.762104  0  0  -0.092517  0  4.011266  0  0  -0.088768  0  4.029565  0  0  -0.084145  -0.094617  0  3.998626  0
C  C122  1  0.36845067  0.89346143  0.75541381  1  0  -0.1856  0  3.737273  0  0  -0.201636  0  3.98907  0  0  -0.209541  0  4.007394  0  0  -0.10361  -0.196505  0  3.97662  0
C  C123  1  0.63154911  0.10653814  0.24458532  1  0  -0.185547  0  3.737195  0  0  -0.201567  0  3.988976  0  0  -0.209473  0  4.007307  0  0  -0.103572  -0.196436  0  3.976523  0
C  C124  1  0.90695311  0.60808623  0.10133700  1  0  0.137564  0  3.69629  0  0  0.106572  0  3.943474  0  0  0.113621  0  3.962181  0  0  0.051735  0.102002  0  3.930752  0
C  C125  1  0.09305231  0.39191238  0.89866388  1  0  0.137654  0  3.696143  0  0  0.106702  0  3.943313  0  0  0.113751  0  3.962015  0  0  0.051804  0.102121  0  3.930607  0
C  C126  1  0.33365231  0.05294475  0.44540111  1  0  -0.071884  0  3.778744  0  0  -0.094657  0  4.029853  0  0  -0.090409  0  4.048018  0  0  -0.086236  -0.097012  0  4.017184  0
C  C127  1  0.66634912  0.94705302  0.55459405  1  0  -0.071825  0  3.778424  0  0  -0.094597  0  4.029529  0  0  -0.090344  0  4.047691  0  0  -0.086222  -0.09695  0  4.016858  0
N  N128  1  0.04432613  0.81153068  0.29655552  1  0  -0.336195  0  3.256273  0  0  -0.257885  0  3.524465  0  0  -0.277599  0  3.543213  0  0  -0.329559  -0.244441  0  3.511364  0
N  N129  1  0.95567245  0.18847350  0.70344296  1  0  -0.336231  0  3.256422  0  0  -0.257931  0  3.524614  0  0  -0.277641  0  3.543357  0  0  -0.329575  -0.244485  0  3.511511  0
N  N130  1  0.33081488  0.64312156  0.16065688  1  0  -0.321401  0  3.241856  0  0  -0.244433  0  3.502734  0  0  -0.263779  0  3.521529  0  0  -0.326088  -0.231293  0  3.489713  0
N  N131  1  0.66919053  0.35687705  0.83934318  1  0  -0.321449  0  3.241817  0  0  -0.244425  0  3.502664  0  0  -0.26377  0  3.521456  0  0  -0.326096  -0.231286  0  3.489646  0
N  N132  1  0.91175667  0.68636595  0.16138293  1  0  -0.322454  0  3.266593  0  0  -0.243322  0  3.530954  0  0  -0.262938  0  3.548712  0  0  -0.330827  -0.230006  0  3.518609  0
N  N133  1  0.08824619  0.31363450  0.83861880  1  0  -0.322455  0  3.266416  0  0  -0.243373  0  3.530798  0  0  -0.262991  0  3.54856  0  0  -0.330811  -0.230058  0  3.518456  0
O  O134  1  0.18962877  0.45599589  0.17528041  1  0  -0.616172  0  1.998673  0  0  -0.55345  0  2.239545  0  0  -0.58063  0  2.229464  0  0  -0.322422  -0.534363  0  2.245566  0
O  O135  1  0.81036970  0.54400276  0.82472150  1  0  -0.616192  0  1.998443  0  0  -0.553524  0  2.239379  0  0  -0.58071  0  2.229315  0  0  -0.322436  -0.534438  0  2.245406  0
O  O136  1  0.17220831  0.51032804  0.34119627  1  0  -0.660476  0  1.996319  0  0  -0.596318  0  2.223736  0  0  -0.623727  0  2.212345  0  0  -0.335914  -0.577169  0  2.230828  0
O  O137  1  0.82778750  0.48966881  0.65880476  1  0  -0.660545  0  1.996231  0  0  -0.596387  0  2.223634  0  0  -0.623795  0  2.212242  0  0  -0.335956  -0.577234  0  2.230725  0
O  O138  1  0.13928548  0.67819449  0.97008198  1  0  -0.624109  0  1.981988  0  0  -0.55996  0  2.22289  0  0  -0.587416  0  2.212936  0  0  -0.327966  -0.540636  0  2.22889  0
O  O139  1  0.86071953  0.32180316  0.02992398  1  0  -0.624156  0  1.981939  0  0  -0.560017  0  2.222849  0  0  -0.58747  0  2.212891  0  0  -0.328019  -0.540691  0  2.22885  0
O  O140  1  0.10786724  0.85803456  0.01584001  1  0  -0.641088  0  1.98478  0  0  -0.580889  0  2.215504  0  0  -0.607365  0  2.204479  0  0  -0.329786  -0.562421  0  2.222382  0
O  O141  1  0.89213082  0.14196501  0.98416261  1  0  -0.641102  0  1.98479  0  0  -0.58092  0  2.215519  0  0  -0.607399  0  2.204491  0  0  -0.329801  -0.562455  0  2.222395  0
O  O142  1  0.23664875  0.96425397  0.91585502  1  0  -0.512094  0  2.093441  0  0  -0.46274  0  2.307866  0  0  -0.484142  0  2.299307  0  0  -0.34408  -0.447495  0  2.313078  0
O  O143  1  0.76335150  0.03574651  0.08414549  1  0  -0.512067  0  2.0935  0  0  -0.46272  0  2.307895  0  0  -0.484125  0  2.29934  0  0  -0.34404  -0.447479  0  2.313109  0
O  O144  1  0.24510228  0.35940594  0.50534893  1  0  -0.531619  0  2.074185  0  0  -0.483233  0  2.286324  0  0  -0.504392  0  2.277387  0  0  -0.359518  -0.4681  0  2.29176  0
O  O145  1  0.75490044  0.64058902  0.49465140  1  0  -0.531471  0  2.074258  0  0  -0.483087  0  2.286366  0  0  -0.504257  0  2.277456  0  0  -0.359459  -0.467952  0  2.291799  0
