# generated using pymatgen
data_AgH8C6(NO)3
_symmetry_space_group_name_H-M   'P 1'
_cell_length_a   6.81102925
_cell_length_b   7.91487799
_cell_length_c   8.17085193
_cell_angle_alpha   108.23697662
_cell_angle_beta   90.26618196
_cell_angle_gamma   97.62976995
_symmetry_Int_Tables_number   1
_chemical_formula_structural   AgH8C6(NO)3
_chemical_formula_sum   'Ag2 H16 C12 N6 O6'
_cell_volume   414.14960137
_cell_formula_units_Z   2
loop_
 _symmetry_equiv_pos_site_id
 _symmetry_equiv_pos_as_xyz
  1  'x, y, z'
loop_
 _atom_site_type_symbol
 _atom_site_label
 _atom_site_symmetry_multiplicity
 _atom_site_fract_x
 _atom_site_fract_y
 _atom_site_fract_z
 _atom_site_occupancy
 _atom_site_hle17_bader_spin_density
 _atom_site_hle17_ddec_charge
 _atom_site_hle17_ddec_spin_density
 _atom_site_hle17_ddec_sum_bond_order
 _atom_site_hle17_magmom
 _atom_site_hse06_10hf_bader_spin_density
 _atom_site_hse06_10hf_ddec_charge
 _atom_site_hse06_10hf_ddec_spin_density
 _atom_site_hse06_10hf_ddec_sum_bond_order
 _atom_site_hse06_10hf_magmom
 _atom_site_hse06_bader_spin_density
 _atom_site_hse06_ddec_charge
 _atom_site_hse06_ddec_spin_density
 _atom_site_hse06_ddec_sum_bond_order
 _atom_site_hse06_magmom
 _atom_site_pbe_bader_spin_density
 _atom_site_pbe_cm5_charge
 _atom_site_pbe_ddec_charge
 _atom_site_pbe_ddec_spin_density
 _atom_site_pbe_ddec_sum_bond_order
 _atom_site_pbe_magmom
Ag  Ag0  1  0.70233751  0.01781839  0.91714865  1  0  0.54195  0  1.377871  0  0  0.404162  0  1.822845  0  0  0.436067  0  1.770083  0  0  0.44808  0.382057  0  1.859203  0
Ag  Ag1  1  0.29766284  0.98217943  0.08285972  1  0  0.541953  0  1.37775  0  0  0.404183  0  1.822708  0  0  0.436074  0  1.76996  0  0  0.448069  0.382084  0  1.859059  0
H  H2  1  0.47750135  0.70023396  0.94508832  1  0  0.309483  0  0.944866  0  0  0.290523  0  1.017513  0  0  0.298821  0  1.009685  0  0  0.286433  0.284566  0  1.023118  0
H  H3  1  0.52251183  0.29976117  0.05491447  1  0  0.309556  0  0.944827  0  0  0.290605  0  1.017475  0  0  0.298841  0  1.009741  0  0  0.286482  0.284646  0  1.023093  0
H  H4  1  0.24067818  0.61041797  0.89701714  1  0  0.321801  0  0.896395  0  0  0.302399  0  0.964439  0  0  0.309868  0  0.95851  0  0  0.295929  0.296996  0  0.96873  0
H  H5  1  0.75931952  0.38957173  0.10297900  1  0  0.321786  0  0.896507  0  0  0.302397  0  0.964503  0  0  0.309899  0  0.95851  0  0  0.295984  0.296993  0  0.968798  0
H  H6  1  0.12495881  0.50629121  0.61045566  1  0  0.116753  0  0.972656  0  0  0.127037  0  1.034302  0  0  0.129834  0  1.034233  0  0  0.107398  0.125049  0  1.034487  0
H  H7  1  0.87502289  0.49373741  0.38954946  1  0  0.116744  0  0.972692  0  0  0.126996  0  1.034355  0  0  0.129795  0  1.03429  0  0  0.107362  0.125009  0  1.034536  0
H  H8  1  0.19723198  0.50029903  0.30491297  1  0  0.098964  0  0.941083  0  0  0.109503  0  1.00125  0  0  0.112148  0  0.998479  0  0  0.107564  0.107503  0  1.003333  0
H  H9  1  0.80276628  0.49972292  0.69509522  1  0  0.098985  0  0.941255  0  0  0.109509  0  1.001414  0  0  0.112153  0  0.998642  0  0  0.107594  0.10751  0  1.003493  0
H  H10  1  0.49381901  0.69552631  0.25708355  1  0  0.114048  0  0.963936  0  0  0.122392  0  1.028957  0  0  0.125718  0  1.027951  0  0  0.102677  0.119921  0  1.029972  0
H  H11  1  0.50619298  0.30447947  0.74290893  1  0  0.114007  0  0.964119  0  0  0.122353  0  1.02913  0  0  0.125675  0  1.028138  0  0  0.102652  0.119887  0  1.030142  0
H  H12  1  0.88669780  0.84024329  0.48881445  1  0  0.127963  0  0.935707  0  0  0.1523  0  0.99141  0  0  0.153226  0  0.992363  0  0  0.098016  0.151665  0  0.990694  0
H  H13  1  0.11330410  0.15976384  0.51118079  1  0  0.127946  0  0.935703  0  0  0.152283  0  0.991407  0  0  0.153196  0  0.992385  0  0  0.098024  0.151648  0  0.990693  0
H  H14  1  0.75250591  0.96088881  0.38840079  1  0  0.12571  0  0.946745  0  0  0.146176  0  1.006013  0  0  0.147083  0  1.007511  0  0  0.094483  0.145468  0  1.005025  0
H  H15  1  0.24748546  0.03911700  0.61160009  1  0  0.125743  0  0.946729  0  0  0.1462  0  1.006008  0  0  0.147094  0  1.007536  0  0  0.094481  0.145492  0  1.005021  0
H  H16  1  0.80221233  0.04097230  0.61660103  1  0  0.107747  0  0.993514  0  0  0.123824  0  1.070013  0  0  0.126202  0  1.067605  0  0  0.084893  0.122019  0  1.071822  0
H  H17  1  0.19778767  0.95903216  0.38339584  1  0  0.10778  0  0.993491  0  0  0.123831  0  1.07002  0  0  0.126222  0  1.067579  0  0  0.084895  0.122026  0  1.071827  0
C  C18  1  0.37452862  0.70868352  0.71779148  1  0  0.456022  0  3.788773  0  0  0.432343  0  4.036676  0  0  0.449465  0  4.055188  0  0  0.210532  0.420737  0  4.023991  0
C  C19  1  0.62547242  0.29131828  0.28220828  1  0  0.45601  0  3.788807  0  0  0.43234  0  4.036721  0  0  0.44946  0  4.055228  0  0  0.210577  0.420735  0  4.02403  0
C  C20  1  0.24730463  0.59442506  0.58210341  1  0  -0.233627  0  3.702436  0  0  -0.24744  0  3.948352  0  0  -0.259242  0  3.969999  0  0  -0.098767  -0.239937  0  3.933987  0
C  C21  1  0.75268695  0.40559148  0.41789821  1  0  -0.233532  0  3.702383  0  0  -0.247293  0  3.948274  0  0  -0.259092  0  3.969906  0  0  -0.098697  -0.239792  0  3.933913  0
C  C22  1  0.28944919  0.59012422  0.41492053  1  0  0.037194  0  3.73642  0  0  0.014479  0  3.993535  0  0  0.02259  0  4.009067  0  0  -0.06846  0.009432  0  3.982876  0
C  C23  1  0.71055156  0.40989508  0.58509178  1  0  0.03704  0  3.736636  0  0  0.014354  0  3.993713  0  0  0.02246  0  4.009261  0  0  -0.068569  0.009304  0  3.983062  0
C  C24  1  0.45571698  0.69899509  0.38720877  1  0  -0.191028  0  3.690546  0  0  -0.209187  0  3.941001  0  0  -0.219884  0  3.962747  0  0  -0.098899  -0.20237  0  3.926484  0
C  C25  1  0.54428572  0.30100807  0.61279386  1  0  -0.191036  0  3.690732  0  0  -0.209195  0  3.941186  0  0  -0.219916  0  3.962945  0  0  -0.098902  -0.202379  0  3.926672  0
C  C26  1  0.57683639  0.81036559  0.52789417  1  0  0.323765  0  3.743333  0  0  0.329723  0  3.980405  0  0  0.34059  0  4.001752  0  0  0.117662  0.322561  0  3.965616  0
C  C27  1  0.42316821  0.18963085  0.47210526  1  0  0.323749  0  3.743203  0  0  0.329717  0  3.980314  0  0  0.340576  0  4.001661  0  0  0.117674  0.322553  0  3.965527  0
C  C28  1  0.76364860  0.92029515  0.50434923  1  0  -0.380864  0  3.703693  0  0  -0.462454  0  3.934205  0  0  -0.466791  0  3.94342  0  0  -0.246029  -0.459139  0  3.927639  0
C  C29  1  0.23634824  0.07970799  0.49565090  1  0  -0.380893  0  3.703604  0  0  -0.462441  0  3.934103  0  0  -0.46679  0  3.943342  0  0  -0.246024  -0.459127  0  3.927538  0
N  N30  1  0.13465838  0.28043095  0.91087806  1  0  0.692705  0  4.142314  0  0  0.720535  0  4.438528  0  0  0.747508  0  4.44538  0  0  0.096623  0.701108  0  4.433557  0
N  N31  1  0.86534166  0.71954531  0.08911289  1  0  0.692551  0  4.142196  0  0  0.720386  0  4.438364  0  0  0.749254  0  4.444793  0  0  0.096625  0.700948  0  4.433405  0
N  N32  1  0.53338249  0.81678495  0.69141291  1  0  -0.462407  0  3.23724  0  0  -0.378999  0  3.505382  0  0  -0.403503  0  3.519678  0  0  -0.349845  -0.36252  0  3.495389  0
N  N33  1  0.46662922  0.18321956  0.30859020  1  0  -0.462294  0  3.237222  0  0  -0.378953  0  3.505412  0  0  -0.403446  0  3.519706  0  0  -0.349831  -0.36247  0  3.495413  0
N  N34  1  0.34548111  0.71356289  0.88955279  1  0  -0.68862  0  3.201561  0  0  -0.625143  0  3.4524  0  0  -0.648468  0  3.44633  0  0  -0.615953  -0.608727  0  3.456159  0
N  N35  1  0.65453038  0.28644029  0.11045237  1  0  -0.688706  0  3.201805  0  0  -0.625231  0  3.452562  0  0  -0.648558  0  3.446509  0  0  -0.616062  -0.608812  0  3.456322  0
O  O36  1  0.08124767  0.12140065  0.91722092  1  0  -0.487404  0  1.857303  0  0  -0.454609  0  2.119245  0  0  -0.473546  0  2.106188  0  0  -0.205494  -0.44078  0  2.127995  0
O  O37  1  0.91874993  0.87856881  0.08275575  1  0  -0.487325  0  1.857294  0  0  -0.454536  0  2.119264  0  0  -0.474271  0  2.106204  0  0  -0.205494  -0.440711  0  2.128023  0
O  O38  1  0.02403938  0.34964352  0.83408052  1  0  -0.455648  0  1.759172  0  0  -0.447271  0  1.98067  0  0  -0.460996  0  1.975254  0  0  -0.182157  -0.437063  0  1.98424  0
O  O39  1  0.97596339  0.65033139  0.16590883  1  0  -0.455555  0  1.759246  0  0  -0.447114  0  1.980668  0  0  -0.461673  0  1.975273  0  0  -0.18208  -0.436912  0  1.984242  0
O  O40  1  0.29971079  0.36747192  0.98205841  1  0  -0.474479  0  1.801381  0  0  -0.450287  0  2.015985  0  0  -0.466331  0  2.009987  0  0  -0.184695  -0.438553  0  2.019981  0
O  O41  1  0.70027481  0.63250717  0.01796018  1  0  -0.474538  0  1.801273  0  0  -0.450396  0  2.015942  0  0  -0.467317  0  2.010013  0  0  -0.184751  -0.438624  0  2.019895  0
