# generated using pymatgen
data_CoP2H7C4N3O7
_symmetry_space_group_name_H-M   'P 1'
_cell_length_a   5.12956214
_cell_length_b   9.52308989
_cell_length_c   10.88273748
_cell_angle_alpha   64.67459361
_cell_angle_beta   87.69901018
_cell_angle_gamma   74.98923774
_symmetry_Int_Tables_number   1
_chemical_formula_structural   CoP2H7C4N3O7
_chemical_formula_sum   'Co2 P4 H14 C8 N6 O14'
_cell_volume   462.60353262
_cell_formula_units_Z   2
loop_
 _symmetry_equiv_pos_site_id
 _symmetry_equiv_pos_as_xyz
  1  'x, y, z'
loop_
 _atom_site_type_symbol
 _atom_site_label
 _atom_site_symmetry_multiplicity
 _atom_site_fract_x
 _atom_site_fract_y
 _atom_site_fract_z
 _atom_site_occupancy
 _atom_site_hle17_ddec_charge
 _atom_site_hle17_ddec_spin_density
 _atom_site_hle17_ddec_sum_bond_order
 _atom_site_hle17_magmom
 _atom_site_hse06_10hf_ddec_charge
 _atom_site_hse06_10hf_ddec_spin_density
 _atom_site_hse06_10hf_ddec_sum_bond_order
 _atom_site_hse06_10hf_magmom
 _atom_site_hse06_ddec_charge
 _atom_site_hse06_ddec_spin_density
 _atom_site_hse06_ddec_sum_bond_order
 _atom_site_hse06_magmom
 _atom_site_pbe_cm5_charge
 _atom_site_pbe_ddec_charge
 _atom_site_pbe_ddec_spin_density
 _atom_site_pbe_ddec_sum_bond_order
 _atom_site_pbe_magmom
Co  Co0  1  0.43411053  0.94530878  0.37950622  1  1.206352  2.848304  1.785655  2.637  1.174939  2.855226  2.171542  2.697  1.242881  2.888361  2.105752  2.758  0.683792  1.116995  2.822242  2.222209  2.636
Co  Co1  1  0.56589080  0.05469074  0.62049462  1  1.206307  2.848304  1.785749  2.637  1.17488  2.855228  2.171651  2.697  1.242822  2.888364  2.105858  2.758  0.683754  1.116936  2.822231  2.222309  2.636
P  P2  1  0.85108028  0.17403243  0.19625127  1  1.449897  0.004366  4.772035  0.005  1.297198  0.006988  5.271018  0.008  1.348948  0.0051  5.234224  0.006  0.368017  1.259901  0.008796  5.294542  0.009
P  P3  1  0.14892354  0.82596588  0.80374998  1  1.449886  0.004365  4.772205  0.005  1.297162  0.006988  5.271203  0.008  1.348915  0.005105  5.234405  0.006  0.367952  1.259864  0.008797  5.294735  0.009
P  P4  1  0.98882406  0.25731960  0.42291042  1  1.440145  0.004713  4.708636  0.004  1.287641  0.007588  5.219006  0.007  1.340437  0.00532  5.181312  0.006  0.374173  1.249382  0.009832  5.244286  0.009
P  P5  1  0.01117868  0.74268112  0.57708903  1  1.440161  0.004713  4.708667  0.004  1.287672  0.007588  5.21903  0.007  1.340473  0.005318  5.181331  0.006  0.374183  1.249409  0.009833  5.244311  0.009
H  H6  1  0.91220544  0.48944340  0.42912048  1  0.39698  -0.000145  0.868501  0.0  0.371619  3.5e-05  0.941604  0.0  0.380341  3.3e-05  0.932009  0.0  0.324328  0.365131  4.1e-05  0.949035  0.0
H  H7  1  0.08779479  0.51055853  0.57088040  1  0.396983  -0.000145  0.868514  0.0  0.37162  3.5e-05  0.941623  0.0  0.380343  3.4e-05  0.932029  0.0  0.324323  0.365132  4.1e-05  0.949056  0.0
H  H8  1  0.93446284  0.28106263  0.97448895  1  0.396603  0.000179  0.91646  0.0  0.350804  0.000219  1.009286  0.0  0.362717  0.000155  0.992529  0.0  0.304859  0.342503  0.00029  1.020958  0.001
H  H9  1  0.06553849  0.71893689  0.02551097  1  0.396585  0.000179  0.916488  0.0  0.350777  0.000219  1.009325  0.0  0.362693  0.000155  0.992565  0.0  0.304853  0.342477  0.00029  1.020996  0.001
H  H10  1  0.66785327  0.52394967  0.06288525  1  0.128341  0.0002  0.918283  0.0  0.136719  0.00016  0.986901  0.0  0.13893  0.00011  0.985148  0.0  0.128826  0.135132  0.000223  0.988292  0.0
H  H11  1  0.33214948  0.47605106  0.93711328  1  0.12832  0.000201  0.918323  0.0  0.136706  0.00016  0.986924  0.0  0.138916  0.00011  0.98517  0.0  0.128813  0.135118  0.000223  0.988314  0.0
H  H12  1  0.48569131  0.45074114  0.21002754  1  0.117012  4.6e-05  0.944517  0.0  0.128023  6.9e-05  1.009579  0.0  0.129784  3.9e-05  1.008691  0.0  0.127828  0.126846  8.7e-05  1.010272  0.0
H  H13  1  0.51430418  0.54925838  0.78997065  1  0.117069  4.8e-05  0.944572  0.0  0.128062  6.9e-05  1.009632  0.0  0.129823  4e-05  1.008743  0.0  0.127849  0.126886  8.7e-05  1.010324  0.0
H  H14  1  0.37877211  0.61900116  0.34303008  1  0.12369  -1.9e-05  0.922242  0.001  0.130949  -4.1e-05  0.986915  0.0  0.1339  -4e-05  0.983363  0.0  0.146401  0.128393  -8.6e-05  0.99027  0.0
H  H15  1  0.62122196  0.38099716  0.65697042  1  0.123761  -2e-05  0.922192  0.001  0.131002  -4.1e-05  0.986881  0.0  0.133953  -4e-05  0.983327  0.0  0.14642  0.128445  -8.6e-05  0.990237  0.0
H  H16  1  0.92624584  0.90124443  0.17509635  1  0.114652  -4.5e-05  0.965085  0.0  0.124507  -2.6e-05  1.022764  0.0  0.127798  -6.6e-05  1.019313  0.0  0.141991  0.12114  -1.6e-05  1.02629  0.0
H  H17  1  0.07375494  0.09875630  0.82490405  1  0.11465  -4.4e-05  0.96509  0.0  0.124506  -2.6e-05  1.022764  0.0  0.127797  -6.7e-05  1.019314  0.0  0.141988  0.12114  -1.6e-05  1.026291  0.0
H  H18  1  0.31039669  0.27610537  0.20304987  1  0.375345  -0.000496  0.916795  0.0  0.351345  -0.000348  0.987875  0.0  0.361515  -0.000364  0.976844  0.0  0.299688  0.344176  -0.000306  0.995406  0.0
H  H19  1  0.68960409  0.72389535  0.79695054  1  0.375348  -0.000496  0.916799  0.0  0.351344  -0.000348  0.987877  0.0  0.361515  -0.000364  0.976846  0.0  0.299686  0.344177  -0.000306  0.995409  0.0
C  C20  1  0.67479772  0.48144699  0.17382190  1  -0.052469  0.000645  3.628713  0.001  -0.13299  0.000743  3.878116  0.001  -0.129312  0.000511  3.888237  0.001  -0.046778  -0.135893  0.001033  3.871859  0.001
C  C21  1  0.32520361  0.51855253  0.82617802  1  -0.052477  0.000639  3.628776  0.001  -0.13295  0.000744  3.878088  0.001  -0.129286  0.000511  3.888247  0.001  -0.046748  -0.135853  0.001033  3.871829  0.001
C  C22  1  0.91968221  0.33323491  0.23606783  1  -0.24752  0.003973  3.699116  0.006  -0.212892  0.003161  3.956796  0.005  -0.222612  0.00213  3.967477  0.004  0.053092  -0.206307  0.004253  3.950174  0.006
C  C23  1  0.08031858  0.66676582  0.76393165  1  -0.247548  0.003975  3.699101  0.006  -0.212924  0.003161  3.956785  0.005  -0.222643  0.002128  3.96746  0.004  0.053082  -0.206339  0.004253  3.950166  0.006
C  C24  1  0.53440298  0.67100841  0.28556325  1  0.167353  -0.014896  3.595209  -0.009  0.096885  -0.004679  3.864219  -0.002  0.111932  -0.00362  3.872732  -0.002  0.167108  0.086292  -0.006032  3.859787  -0.003
C  C25  1  0.46559410  0.32898749  0.71443993  1  0.167313  -0.014887  3.595268  -0.009  0.096834  -0.004678  3.864325  -0.002  0.111881  -0.003619  3.872838  -0.002  0.167131  0.086239  -0.006031  3.859893  -0.003
C  C26  1  0.80997660  0.81401493  0.19656319  1  0.211192  -0.008855  3.646365  -0.005  0.155783  -0.001883  3.928961  -0.001  0.168025  -0.001551  3.939616  -0.001  0.157283  0.147291  -0.002882  3.923114  -0.001
C  C27  1  0.19002029  0.18598580  0.80343636  1  0.21116  -0.008857  3.646356  -0.005  0.155762  -0.001883  3.928938  -0.001  0.168005  -0.001549  3.939592  -0.001  0.157274  0.147266  -0.002881  3.923097  -0.001
N  N28  1  0.61322694  0.79476474  0.28562496  1  -0.384924  0.029592  3.229468  0.06  -0.348731  0.022184  3.543782  0.039  -0.371845  0.018267  3.550699  0.032  -0.332861  -0.332415  0.025456  3.540327  0.044
N  N29  1  0.38677104  0.20523358  0.71437455  1  -0.384907  0.02959  3.229524  0.06  -0.348715  0.022183  3.543848  0.039  -0.371829  0.018266  3.550764  0.032  -0.332896  -0.332399  0.025456  3.540396  0.044
N  N30  1  0.68141554  0.61757752  0.20103196  1  0.067376  0.000734  3.535588  0.002  0.179368  0.000602  3.72198  0.001  0.17154  0.000654  3.74205  0.001  -0.127845  0.184124  0.000371  3.709243  0.001
N  N31  1  0.31858634  0.38242080  0.79896656  1  0.067375  0.000732  3.535564  0.002  0.179376  0.000602  3.721942  0.001  0.171547  0.000654  3.742005  0.001  -0.127863  0.184132  0.000371  3.709204  0.001
N  N32  1  0.85587736  0.70865353  0.14325402  1  -0.247744  0.003638  2.968799  0.006  -0.218523  0.00151  3.21868  0.002  -0.229229  0.001121  3.230869  0.002  -0.200533  -0.212398  0.001896  3.21208  0.003
N  N33  1  0.14412202  0.29134599  0.85674685  1  -0.247764  0.003638  2.968779  0.006  -0.218555  0.00151  3.21866  0.002  -0.229258  0.00112  3.230846  0.002  -0.200545  -0.212428  0.001896  3.212061  0.003
O  O34  1  0.24578451  0.11828914  0.47018036  1  -0.835364  0.036537  2.113461  0.065  -0.781458  0.033622  2.42067  0.049  -0.815745  0.027305  2.39467  0.04  -0.341371  -0.754143  0.039968  2.438464  0.058
O  O35  1  0.75421715  0.88171400  0.52981729  1  -0.835327  0.036538  2.113437  0.065  -0.781455  0.033623  2.420673  0.049  -0.815751  0.027306  2.394679  0.04  -0.341395  -0.754154  0.039969  2.438506  0.058
O  O36  1  0.59338013  0.13312838  0.25776519  1  -0.837512  0.027329  2.134389  0.047  -0.773439  0.022882  2.418305  0.034  -0.807908  0.017667  2.399405  0.026  -0.355855  -0.74627  0.028463  2.428725  0.042
O  O37  1  0.40662119  0.86687114  0.74223565  1  -0.837537  0.027329  2.134446  0.047  -0.773448  0.022882  2.418387  0.034  -0.807917  0.017668  2.399485  0.026  -0.35582  -0.746258  0.028463  2.42877  0.042
O  O38  1  0.10871830  0.03743130  0.23764281  1  -0.840996  0.029796  2.057847  0.052  -0.787973  0.02408  2.342946  0.037  -0.822287  0.018475  2.324234  0.028  -0.363909  -0.759325  0.029764  2.354663  0.046
O  O39  1  0.89128303  0.96256822  0.76235804  1  -0.840996  0.029798  2.057837  0.052  -0.787968  0.024081  2.342964  0.037  -0.822282  0.018476  2.324249  0.028  -0.363898  -0.759323  0.029766  2.354689  0.046
O  O40  1  0.73155851  0.23650933  0.49255720  1  -0.82406  0.027364  2.027712  0.047  -0.772139  0.022212  2.32595  0.034  -0.806057  0.016815  2.306508  0.025  -0.360031  -0.744478  0.028161  2.33739  0.042
O  O41  1  0.26844422  0.76349139  0.50744409  1  -0.82407  0.027363  2.02776  0.047  -0.772153  0.022212  2.325999  0.034  -0.806071  0.016815  2.306555  0.025  -0.36002  -0.744488  0.028159  2.337439  0.042
O  O42  1  0.15037533  0.37409716  0.16801716  1  -0.497021  0.002098  2.12325  0.004  -0.45935  0.001347  2.348152  0.002  -0.473869  0.000716  2.340461  0.001  -0.379229  -0.448249  0.002443  2.35292  0.004
O  O43  1  0.84962546  0.62590357  0.83198232  1  -0.497005  0.002098  2.123254  0.004  -0.459329  0.001347  2.348146  0.002  -0.473846  0.000714  2.340456  0.001  -0.379213  -0.448228  0.002443  2.352915  0.004
O  O44  1  0.07358915  0.40387022  0.43565571  1  -0.70886  0.001585  2.039409  0.004  -0.649355  0.001438  2.279983  0.003  -0.668912  0.000856  2.259846  0.002  -0.386651  -0.635176  0.002128  2.294402  0.005
O  O45  1  0.92640968  0.59613050  0.56434472  1  -0.708862  0.001584  2.03942  0.004  -0.649361  0.001438  2.279994  0.003  -0.668917  0.000856  2.259854  0.002  -0.386631  -0.635184  0.002127  2.294423  0.005
O  O46  1  0.78102684  0.25755961  0.03671398  1  -0.71847  0.003358  2.065966  0.006  -0.648911  0.002908  2.308886  0.005  -0.670948  0.002003  2.28476  0.004  -0.382317  -0.632634  0.003879  2.324228  0.007
O  O47  1  0.21897394  0.74244111  0.96328735  1  -0.718421  0.003358  2.066065  0.006  -0.648862  0.002908  2.308997  0.005  -0.670905  0.002002  2.284874  0.004  -0.382287  -0.632583  0.003879  2.32434  0.007
