# generated using pymatgen
data_CdH20C34(N3O4)2
_symmetry_space_group_name_H-M   'P 1'
_cell_length_a   15.15384887
_cell_length_b   15.15379753
_cell_length_c   19.64060928
_cell_angle_alpha   90.00218166
_cell_angle_beta   89.99769283
_cell_angle_gamma   120.00027934
_symmetry_Int_Tables_number   1
_chemical_formula_structural   CdH20C34(N3O4)2
_chemical_formula_sum   'Cd3 H60 C102 N18 O24'
_cell_volume   3905.96904239
_cell_formula_units_Z   3
loop_
 _symmetry_equiv_pos_site_id
 _symmetry_equiv_pos_as_xyz
  1  'x, y, z'
loop_
 _atom_site_type_symbol
 _atom_site_label
 _atom_site_symmetry_multiplicity
 _atom_site_fract_x
 _atom_site_fract_y
 _atom_site_fract_z
 _atom_site_occupancy
 _atom_site_pbe_bader_charge
 _atom_site_pbe_bader_spin_density
 _atom_site_pbe_cm5_charge
 _atom_site_pbe_ddec_charge
 _atom_site_pbe_ddec_spin_density
 _atom_site_pbe_ddec_sum_bond_order
 _atom_site_pbe_magmom
Cd  Cd0  1  0.13416625  0.99998647  0.16667039  1  1.24431  0  0.757921  0.775647  0  2.24266  0
Cd  Cd1  1  0.99998743  0.13416545  0.83332868  1  1.244322  0  0.757895  0.775604  0  2.242692  0
Cd  Cd2  1  0.86584375  0.86584659  0.50000005  1  1.247162  0  0.757852  0.775707  0  2.242584  0
H  H3  1  0.67121110  0.54420765  0.24303076  1  0.063307  0  0.099186  0.094696  0  1.003032  0
H  H4  1  0.71807655  0.45099786  0.32704489  1  0.109768  0  0.106032  0.109257  0  0.997988  0
H  H5  1  0.80485297  0.71980810  0.20608791  1  0.093267  0  0.106027  0.108518  0  0.996183  0
H  H6  1  0.26378949  0.92805490  0.26031665  1  0.152723  0  0.116797  0.098176  0  1.0179  0
H  H7  1  0.43017586  0.92805835  0.26538519  1  0.109105  0  0.109135  0.11337  0  1.018219  0
H  H8  1  0.01228504  0.10159970  0.99170526  1  0.105894  0  0.115087  0.083563  0  1.030637  0
H  H9  1  0.91294089  0.06017949  0.09899328  1  0.174855  0  0.116143  0.138588  0  1.01813  0
H  H10  1  0.66403176  0.04552194  0.98172057  1  0.118506  0  0.11304  0.120219  0  1.001551  0
H  H11  1  0.77514324  0.08625007  0.87748642  1  0.125122  0  0.12086  0.102709  0  0.992788  0
H  H12  1  0.38788501  0.84615592  0.56946075  1  0.602354  0  0.338557  0.374861  0  0.871276  0
H  H13  1  0.45578328  0.12700966  0.90965036  1  0.062655  0  0.099132  0.094767  0  1.003147  0
H  H14  1  0.54899815  0.26707677  0.99367281  1  0.093672  0  0.106068  0.109355  0  0.99776  0
H  H15  1  0.28017070  0.08504247  0.87272796  1  0.10206  0  0.106062  0.10867  0  0.995997  0
H  H16  1  0.07194337  0.33573327  0.92694044  1  0.123248  0  0.116806  0.098291  0  1.017934  0
H  H17  1  0.07198523  0.50213515  0.93200638  1  0.121821  0  0.109036  0.113143  0  1.018418  0
H  H18  1  0.89840851  0.91070380  0.65837818  1  0.105147  0  0.115113  0.083542  0  1.030776  0
H  H19  1  0.93982485  0.85277078  0.76566154  1  0.173108  0  0.116165  0.13862  0  1.017989  0
H  H20  1  0.95447611  0.61852070  0.64835906  1  0.119461  0  0.113002  0.12015  0  1.001482  0
H  H21  1  0.91375444  0.68891356  0.54413535  1  0.127427  0  0.120874  0.102724  0  0.992675  0
H  H22  1  0.15385099  0.54174603  0.23608787  1  0.604834  0  0.338454  0.374628  0  0.871158  0
H  H23  1  0.87295090  0.32878703  0.57634201  1  0.021475  0  0.099137  0.094764  0  1.003116  0
H  H24  1  0.73288182  0.28190984  0.66037399  1  0.086849  0  0.106038  0.109349  0  0.997724  0
H  H25  1  0.91491703  0.19514547  0.53939400  1  0.086165  0  0.106152  0.10868  0  0.996145  0
H  H26  1  0.66428078  0.73619800  0.59364196  1  0.152978  0  0.116777  0.098116  0  1.018148  0
H  H27  1  0.49789707  0.56981409  0.59871323  1  0.105132  0  0.109134  0.113308  0  1.018324  0
H  H28  1  0.08929566  0.98771051  0.32504431  1  0.111554  0  0.11511  0.083562  0  1.030781  0
H  H29  1  0.14724127  0.08706616  0.43232774  1  0.162421  0  0.11613  0.138585  0  1.018088  0
H  H30  1  0.38146671  0.33596478  0.31503048  1  0.11718  0  0.113029  0.12007  0  1.00161  0
H  H31  1  0.31107340  0.22484421  0.21080506  1  0.129012  0  0.120828  0.10263  0  0.99283  0
H  H32  1  0.45827444  0.61211667  0.90281247  1  0.606085  0  0.338518  0.374812  0  0.871063  0
H  H33  1  0.54420644  0.67120907  0.75696876  1  0.06331  0  0.099201  0.094736  0  1.003053  0
H  H34  1  0.45099696  0.71807168  0.67295416  1  0.109625  0  0.106057  0.107503  0  0.999937  0
H  H35  1  0.71980279  0.80485059  0.79391135  1  0.093315  0  0.106037  0.108491  0  0.99626  0
H  H36  1  0.92805324  0.26378925  0.73968238  1  0.152787  0  0.116788  0.098162  0  1.017918  0
H  H37  1  0.92806142  0.43017996  0.73461268  1  0.108948  0  0.109131  0.113371  0  1.018263  0
H  H38  1  0.10159156  0.01228349  0.00829366  1  0.105567  0  0.11508  0.083536  0  1.03067  0
H  H39  1  0.06017502  0.91293963  0.90100543  1  0.173191  0  0.11615  0.138604  0  1.018088  0
H  H40  1  0.04552128  0.66403143  0.01828141  1  0.118514  0  0.113047  0.120252  0  1.001493  0
H  H41  1  0.08625040  0.77514577  0.12251340  1  0.125138  0  0.120825  0.102695  0  0.99278  0
H  H42  1  0.84615335  0.38788090  0.43053672  1  0.602246  0  0.338501  0.374737  0  0.871195  0
H  H43  1  0.12701591  0.45578423  0.09035224  1  0.06271  0  0.099122  0.094772  0  1.00321  0
H  H44  1  0.26708377  0.54900114  0.00632908  1  0.094053  0  0.106068  0.10941  0  0.997743  0
H  H45  1  0.08504642  0.28016887  0.12727176  1  0.101977  0  0.106039  0.108621  0  0.996041  0
H  H46  1  0.33573762  0.07194889  0.07305925  1  0.123179  0  0.11683  0.098329  0  1.017961  0
H  H47  1  0.50213793  0.07198727  0.06799317  1  0.121781  0  0.109022  0.113155  0  1.018392  0
H  H48  1  0.91070120  0.89840796  0.34162236  1  0.105198  0  0.115146  0.083569  0  1.030778  0
H  H49  1  0.85276753  0.93982361  0.23434003  1  0.1745  0  0.116176  0.138655  0  1.017957  0
H  H50  1  0.61851782  0.95447551  0.35164117  1  0.119413  0  0.113019  0.120195  0  1.001428  0
H  H51  1  0.68891223  0.91375623  0.45586486  1  0.127505  0  0.120862  0.102715  0  0.992697  0
H  H52  1  0.54174362  0.15385192  0.76391413  1  0.604766  0  0.338448  0.374612  0  0.871196  0
H  H53  1  0.32878667  0.87295274  0.42365854  1  0.021463  0  0.099142  0.094776  0  1.003122  0
H  H54  1  0.28191000  0.73288299  0.33962672  1  0.0871  0  0.106034  0.109324  0  0.99773  0
H  H55  1  0.19514664  0.91492096  0.46060969  1  0.086226  0  0.106129  0.108648  0  0.996095  0
H  H56  1  0.73620124  0.66428286  0.40635689  1  0.152921  0  0.116743  0.098058  0  1.018129  0
H  H57  1  0.56981849  0.49789803  0.40128438  1  0.105057  0  0.109141  0.113324  0  1.018368  0
H  H58  1  0.98771281  0.08929683  0.67495431  1  0.11157  0  0.115085  0.083519  0  1.030793  0
H  H59  1  0.08706921  0.14723824  0.56767159  1  0.162383  0  0.116146  0.138601  0  1.018113  0
H  H60  1  0.33596604  0.38146603  0.68496794  1  0.117104  0  0.113018  0.120064  0  1.001643  0
H  H61  1  0.22484296  0.31107360  0.78919401  1  0.127873  0  0.120811  0.102611  0  0.99291  0
H  H62  1  0.61211598  0.45827109  0.09718616  1  0.60613  0  0.338558  0.37492  0  0.870958  0
C  C63  1  0.74838772  0.57943857  0.26352282  1  -0.103382  0  -0.099438  -0.108021  0  4.062674  0
C  C64  1  0.77429016  0.52745244  0.31056907  1  -0.026136  0  -0.079915  -0.078734  0  3.970048  0
C  C65  1  0.87234574  0.57361033  0.33900879  1  0.028127  0  -0.011456  -0.076476  0  3.923844  0
C  C66  1  0.94767633  0.67226707  0.31822509  1  0.058091  0  0.028248  0.085787  0  3.867747  0
C  C67  1  0.92158909  0.72253748  0.26850782  1  -0.007084  0  -0.011327  -0.067253  0  3.905257  0
C  C68  1  0.82201709  0.67687185  0.24307822  1  -0.009496  0  -0.076668  -0.07212  0  3.97125  0
C  C69  1  0.89387126  0.51879892  0.39329771  1  1.445511  0  0.226674  0.575027  0  4.110192  0
C  C70  1  0.99893760  0.82336803  0.23841535  1  1.545447  0  0.186512  0.545494  0  4.250855  0
C  C71  1  0.31991130  0.96067810  0.21952323  1  0.464351  0  0.048688  0.09394  0  3.936993  0
C  C72  1  0.41123265  0.95989238  0.22186795  1  -0.044228  0  -0.077178  -0.149823  0  3.939339  0
C  C73  1  0.93442306  0.08742199  0.99144224  1  0.491807  0  0.053066  0.103088  0  3.932403  0
C  C74  1  0.87851220  0.06433609  0.05139556  1  -0.007536  0  -0.069004  -0.13805  0  3.900656  0
C  C75  1  0.77939217  0.04857930  0.04842547  1  -0.02872  0  0.011663  0.041046  0  3.965809  0
C  C76  1  0.74078244  0.05712007  0.98542259  1  -0.03067  0  -0.074787  -0.146924  0  3.93651  0
C  C77  1  0.80179867  0.07958942  0.92787437  1  0.459964  0  0.050228  0.091423  0  3.931301  0
C  C78  1  0.71704397  0.02303243  0.11099592  1  1.105472  0  0.266889  0.387184  0  4.004345  0
C  C79  1  0.42055427  0.16895141  0.93015599  1  -0.061829  0  -0.099364  -0.108197  0  4.063114  0
C  C80  1  0.47254912  0.24685167  0.97719560  1  -0.103866  0  -0.079975  -0.078718  0  3.969757  0
C  C81  1  0.42638622  0.29873109  0.00565899  1  0.030096  0  -0.011541  -0.07637  0  3.923712  0
C  C82  1  0.32772168  0.27539962  0.98488490  1  0.050333  0  0.028201  0.085662  0  3.867629  0
C  C83  1  0.27745106  0.19904824  0.93516054  1  -0.006198  0  -0.011252  -0.067328  0  3.904884  0
C  C84  1  0.32311930  0.14514548  0.90971889  1  0.027276  0  -0.076776  -0.072331  0  3.971393  0
C  C85  1  0.48119992  0.37505837  0.05994373  1  1.459166  0  0.226771  0.574961  0  4.109454  0
C  C86  1  0.17662144  0.17556582  0.90506799  1  1.558288  0  0.186608  0.545798  0  4.25071  0
C  C87  1  0.03933490  0.35923143  0.88613859  1  0.486682  0  0.048602  0.093553  0  3.937303  0
C  C88  1  0.04015000  0.45135464  0.88848966  1  -0.035172  0  -0.07692  -0.149198  0  3.93954  0
C  C89  1  0.91258408  0.84701814  0.65810870  1  0.495958  0  0.053142  0.103146  0  3.932354  0
C  C90  1  0.93566922  0.81418852  0.71805865  1  -0.029141  0  -0.069044  -0.137947  0  3.900301  0
C  C91  1  0.95143603  0.73083155  0.71507203  1  -0.000531  0  0.011602  0.040747  0  3.965742  0
C  C92  1  0.94287960  0.68367381  0.65207037  1  -0.030161  0  -0.074762  -0.146778  0  3.936534  0
C  C93  1  0.92040971  0.72221796  0.59452878  1  0.458635  0  0.050213  0.09146  0  3.931076  0
C  C94  1  0.97697397  0.69401682  0.77763585  1  1.089968  0  0.266894  0.387479  0  4.004156  0
C  C95  1  0.83101259  0.25161280  0.59683987  1  -0.021284  0  -0.099334  -0.10805  0  4.062779  0
C  C96  1  0.75312563  0.22569851  0.64389423  1  -0.056308  0  -0.079969  -0.078902  0  3.969742  0
C  C97  1  0.70124410  0.12764604  0.67234383  1  0.014962  0  -0.011464  -0.076439  0  3.924112  0
C  C98  1  0.72458123  0.05232285  0.65155889  1  0.025859  0  0.028242  0.08564  0  3.867691  0
C  C99  1  0.80093434  0.07841690  0.60182898  1  -0.014381  0  -0.011131  -0.066945  0  3.905043  0
C  C100  1  0.85482255  0.17798391  0.57639149  1  0.025406  0  -0.076914  -0.072396  0  3.9714  0
C  C101  1  0.62492770  0.10612801  0.72664445  1  1.450036  0  0.226489  0.574954  0  4.109038  0
C  C102  1  0.82444929  0.00109194  0.57173421  1  1.557894  0  0.186473  0.545367  0  4.250842  0
C  C103  1  0.64077853  0.68008436  0.55284287  1  0.442084  0  0.048749  0.094199  0  3.937091  0
C  C104  1  0.54866752  0.58877026  0.55518759  1  -0.004396  0  -0.077035  -0.149587  0  3.939438  0
C  C105  1  0.15298061  0.06557384  0.32477517  1  0.499586  0  0.053056  0.103025  0  3.932426  0
C  C106  1  0.18581693  0.12148900  0.38472627  1  -0.009447  0  -0.068918  -0.137876  0  3.900471  0
C  C107  1  0.26916987  0.22061362  0.38174689  1  -0.036723  0  0.011603  0.040864  0  3.965607  0
C  C108  1  0.31631213  0.25921657  0.31874053  1  0.026663  0  -0.074747  -0.146716  0  3.936526  0
C  C109  1  0.27776735  0.19819802  0.26119670  1  0.433619  0  0.050192  0.091478  0  3.931395  0
C  C110  1  0.30598490  0.28296729  0.44431301  1  1.105761  0  0.26683  0.38715  0  4.004333  0
C  C111  1  0.57943782  0.74838564  0.73647915  1  -0.103465  0  -0.099432  -0.107977  0  4.062033  0
C  C112  1  0.52745051  0.77428609  0.68943088  1  -0.026067  0  -0.079894  -0.07723  0  3.969973  0
C  C113  1  0.57360603  0.87234191  0.66099105  1  0.028737  0  -0.011477  -0.07644  0  3.923494  0
C  C114  1  0.67226157  0.94767474  0.68177663  1  0.057179  0  0.028208  0.085783  0  3.867667  0
C  C115  1  0.72253468  0.92158797  0.73149236  1  -0.006998  0  -0.011277  -0.067218  0  3.905102  0
C  C116  1  0.67686924  0.82201658  0.75692309  1  -0.00947  0  -0.076732  -0.072136  0  3.971383  0
C  C117  1  0.51880000  0.89386816  0.60670164  1  1.445675  0  0.226643  0.574962  0  4.110116  0
C  C118  1  0.82336552  0.99893717  0.76158468  1  1.54538  0  0.186527  0.54558  0  4.250641  0
C  C119  1  0.96067811  0.31991064  0.78047573  1  0.464267  0  0.04864  0.093837  0  3.937072  0
C  C120  1  0.95989497  0.41123401  0.77812991  1  -0.044169  0  -0.07712  -0.149731  0  3.93929  0
C  C121  1  0.08741762  0.93442277  0.00855694  1  0.492808  0  0.053096  0.103116  0  3.932446  0
C  C122  1  0.06433413  0.87851185  0.94860318  1  -0.006568  0  -0.069022  -0.138053  0  3.900567  0
C  C123  1  0.04857718  0.77939141  0.95157539  1  -0.028982  0  0.011649  0.040991  0  3.965664  0
C  C124  1  0.05711878  0.74078320  0.01457932  1  -0.030464  0  -0.074774  -0.146917  0  3.936388  0
C  C125  1  0.07958620  0.80179998  0.07212645  1  0.460008  0  0.050207  0.091352  0  3.931309  0
C  C126  1  0.02302772  0.71704194  0.88900553  1  1.105942  0  0.266884  0.387232  0  4.004393  0
C  C127  1  0.16895421  0.42055561  0.06984355  1  -0.061957  0  -0.099303  -0.108161  0  4.062963  0
C  C128  1  0.24685788  0.47255110  0.02280434  1  -0.104383  0  -0.079993  -0.078821  0  3.969688  0
C  C129  1  0.29873657  0.42638673  0.99434196  1  0.029825  0  -0.011469  -0.076243  0  3.923692  0
C  C130  1  0.27540134  0.32772043  0.01511514  1  0.021655  0  0.028173  0.085525  0  3.867737  0
C  C131  1  0.19904807  0.27744764  0.06483757  1  -0.007017  0  -0.011241  -0.067383  0  3.904985  0
C  C132  1  0.14514662  0.32311641  0.09027923  1  0.027644  0  -0.076808  -0.072264  0  3.97136  0
C  C133  1  0.37506444  0.48120131  0.94005711  1  1.458771  0  0.226742  0.574879  0  4.109637  0
C  C134  1  0.17556346  0.17661555  0.09492666  1  1.558146  0  0.186692  0.545905  0  4.250318  0
C  C135  1  0.35923219  0.03933681  0.11386009  1  0.48665  0  0.048601  0.093574  0  3.937351  0
C  C136  1  0.45135603  0.04015198  0.11150894  1  -0.03522  0  -0.076881  -0.149183  0  3.939438  0
C  C137  1  0.84701426  0.91258138  0.34189087  1  0.495325  0  0.053108  0.103079  0  3.932412  0
C  C138  1  0.81418662  0.93566923  0.28194296  1  -0.030148  0  -0.069082  -0.138028  0  3.900417  0
C  C139  1  0.73082939  0.95143563  0.28492811  1  -0.000422  0  0.011607  0.040805  0  3.965687  0
C  C140  1  0.68367232  0.94287975  0.34793084  1  -0.030299  0  -0.074789  -0.146896  0  3.936444  0
C  C141  1  0.72221751  0.92040941  0.40547140  1  0.458521  0  0.05022  0.091448  0  3.931167  0
C  C142  1  0.69401561  0.97697603  0.22236481  1  1.090519  0  0.266932  0.387566  0  4.003856  0
C  C143  1  0.25161303  0.83101552  0.40316180  1  -0.021321  0  -0.099363  -0.108119  0  4.06275  0
C  C144  1  0.22569864  0.75312593  0.35610854  1  -0.056449  0  -0.079968  -0.078887  0  3.969643  0
C  C145  1  0.12764460  0.70124249  0.32766161  1  0.016206  0  -0.01139  -0.076288  0  3.923904  0
C  C146  1  0.05232258  0.72458296  0.34844456  1  0.024591  0  0.028186  0.085527  0  3.867834  0
C  C147  1  0.07841662  0.80094010  0.39817337  1  -0.014556  0  -0.011145  -0.067015  0  3.90499  0
C  C148  1  0.17798419  0.85482465  0.42361123  1  0.025218  0  -0.076861  -0.07228  0  3.971434  0
C  C149  1  0.10612776  0.62493011  0.27335752  1  1.450365  0  0.22657  0.575007  0  4.108883  0
C  C150  1  0.00109131  0.82445459  0.42826920  1  1.558308  0  0.186614  0.545491  0  4.250693  0
C  C151  1  0.68008637  0.64077920  0.44715555  1  0.442047  0  0.048746  0.094268  0  3.937123  0
C  C152  1  0.58877258  0.54866656  0.44480996  1  -0.004005  0  -0.077038  -0.149611  0  3.939408  0
C  C153  1  0.06557469  0.15298068  0.67522367  1  0.499568  0  0.053113  0.103131  0  3.932416  0
C  C154  1  0.12149005  0.18581435  0.61527402  1  -0.009446  0  -0.068961  -0.137925  0  3.900538  0
C  C155  1  0.22061506  0.26916809  0.61825375  1  -0.036719  0  0.01162  0.040863  0  3.965533  0
C  C156  1  0.25921832  0.31631238  0.68125902  1  0.026693  0  -0.074775  -0.146729  0  3.936532  0
C  C157  1  0.19819810  0.27776646  0.73880242  1  0.434804  0  0.050215  0.091492  0  3.931436  0
C  C158  1  0.28296957  0.30598114  0.55568704  1  1.105865  0  0.266764  0.387091  0  4.004325  0
C  C159  1  0.57592918  0.00001789  0.16668189  1  1.087403  0  0.26445  0.388123  0  3.998601  0
C  C160  1  0.47838333  0.00002128  0.16668443  1  -0.043585  0  0.009237  0.042346  0  3.968085  0
C  C161  1  0.00001993  0.57593048  0.83331766  1  1.087272  0  0.26444  0.3881  0  3.998615  0
C  C162  1  0.00002205  0.47838391  0.83331520  1  -0.043506  0  0.009212  0.042325  0  3.968042  0
C  C163  1  0.42408288  0.42408016  0.49999941  1  1.066196  0  0.264234  0.387755  0  3.998867  0
C  C164  1  0.52163047  0.52162872  0.49999830  1  -0.038653  0  0.009166  0.042331  0  3.96792  0
N  N165  1  0.89695616  0.09418396  0.93096771  1  -1.230118  0  -0.319812  -0.219032  0  3.495905  0
N  N166  1  0.62907090  0.02423658  0.10822651  1  -1.16853  0  -0.300873  -0.401311  0  3.192458  0
N  N167  1  0.90583032  0.80279317  0.59762938  1  -1.225281  0  -0.319902  -0.219201  0  3.495702  0
N  N168  1  0.97577964  0.60484120  0.77486326  1  -1.172182  0  -0.301076  -0.401703  0  3.192434  0
N  N169  1  0.19720392  0.10303867  0.26429575  1  -1.237028  0  -0.319903  -0.219138  0  3.496004  0
N  N170  1  0.39515867  0.37094561  0.44154009  1  -1.187356  0  -0.300849  -0.401192  0  3.192618  0
N  N171  1  0.09417986  0.89695759  0.06903149  1  -1.230351  0  -0.319798  -0.218979  0  3.495841  0
N  N172  1  0.02423648  0.62907024  0.89177399  1  -1.168569  0  -0.300885  -0.401348  0  3.192497  0
N  N173  1  0.80279223  0.90583120  0.40237176  1  -1.224974  0  -0.319885  -0.219096  0  3.495701  0
N  N174  1  0.60483955  0.97577877  0.22513748  1  -1.172379  0  -0.301058  -0.401719  0  3.192226  0
N  N175  1  0.10303889  0.19720431  0.73570302  1  -1.237013  0  -0.319883  -0.219137  0  3.495944  0
N  N176  1  0.37094796  0.39515615  0.55845879  1  -1.187403  0  -0.300771  -0.401153  0  3.192535  0
N  N177  1  0.29467850  0.99999358  0.16668775  1  -1.179209  0  -0.315775  -0.222348  0  3.472123  0
N  N178  1  0.75279362  0.00000138  0.16667914  1  -1.179285  0  -0.29357  -0.383591  0  3.188655  0
N  N179  1  0.99999112  0.29467693  0.83331170  1  -1.179341  0  -0.3157  -0.222184  0  3.471981  0
N  N180  1  0.99999840  0.75279252  0.83332201  1  -1.179229  0  -0.293504  -0.383525  0  3.18872  0
N  N181  1  0.70531565  0.70531508  0.49999917  1  -1.184461  0  -0.315948  -0.223061  0  3.472101  0
N  N182  1  0.24721136  0.24720975  0.50000006  1  -1.175506  0  -0.293374  -0.383325  0  3.188748  0
O  O183  1  0.09189169  0.84637507  0.23708667  1  -1.162208  0  -0.323349  -0.559002  0  2.239906  0
O  O184  1  0.96202764  0.55682720  0.43573938  1  -1.123313  0  -0.295344  -0.49266  0  2.094398  0
O  O185  1  0.82618398  0.41589475  0.39248974  1  -1.099088  0  -0.347916  -0.498528  0  2.213828  0
O  O186  1  0.96754671  0.88057995  0.21314302  1  -1.164415  0  -0.336728  -0.558868  0  2.167923  0
O  O187  1  0.15362092  0.24551607  0.90373439  1  -1.17013  0  -0.323451  -0.559145  0  2.240121  0
O  O188  1  0.44316833  0.40519236  0.10240220  1  -1.130132  0  -0.29546  -0.49274  0  2.093453  0
O  O189  1  0.58410645  0.41029160  0.05913564  1  -1.103076  0  -0.34795  -0.498666  0  2.213682  0
O  O190  1  0.11939922  0.08695489  0.87980309  1  -1.168437  0  -0.336671  -0.5589  0  2.167869  0
O  O191  1  0.75452423  0.90812350  0.57042385  1  -1.174971  0  -0.323327  -0.558902  0  2.24008  0
O  O192  1  0.59479362  0.03795619  0.76909015  1  -1.130628  0  -0.295236  -0.492658  0  2.093101  0
O  O193  1  0.58972786  0.17382970  0.72586445  1  -1.099251  0  -0.347851  -0.498381  0  2.213529  0
O  O194  1  0.91304295  0.03250931  0.54643673  1  -1.163514  0  -0.33674  -0.558943  0  2.16759  0
O  O195  1  0.84637323  0.09189221  0.76291512  1  -1.162176  0  -0.323359  -0.559056  0  2.239755  0
O  O196  1  0.55683310  0.96202808  0.56425836  1  -1.123331  0  -0.295363  -0.492645  0  2.094149  0
O  O197  1  0.41589621  0.82618469  0.60750772  1  -1.099165  0  -0.347946  -0.498448  0  2.213644  0
O  O198  1  0.88057677  0.96754489  0.78685647  1  -1.164334  0  -0.336698  -0.558871  0  2.167911  0
O  O199  1  0.24550844  0.15360910  0.09625360  1  -1.1698  0  -0.323506  -0.559225  0  2.24004  0
O  O200  1  0.40520353  0.44317100  0.89760017  1  -1.129736  0  -0.295417  -0.4927  0  2.09358  0
O  O201  1  0.41029149  0.58410655  0.94086050  1  -1.103071  0  -0.347916  -0.498518  0  2.213753  0
O  O202  1  0.08695544  0.11939973  0.12019729  1  -1.168672  0  -0.336696  -0.558916  0  2.167736  0
O  O203  1  0.90812419  0.75452817  0.42957835  1  -1.175029  0  -0.32334  -0.558944  0  2.240042  0
O  O204  1  0.03795932  0.59479843  0.23091190  1  -1.130971  0  -0.29532  -0.492734  0  2.093181  0
O  O205  1  0.17382785  0.58972721  0.27413953  1  -1.099231  0  -0.347888  -0.498416  0  2.213465  0
O  O206  1  0.03250659  0.91304794  0.45356709  1  -1.16372  0  -0.33684  -0.558975  0  2.167642  0
