# generated using pymatgen
data_MnH8C12S2N2O5
_symmetry_space_group_name_H-M   'P 1'
_cell_length_a   9.57151711
_cell_length_b   13.89839300
_cell_length_c   13.89841711
_cell_angle_alpha   70.88506042
_cell_angle_beta   86.09770072
_cell_angle_gamma   86.09871604
_symmetry_Int_Tables_number   1
_chemical_formula_structural   MnH8C12S2N2O5
_chemical_formula_sum   'Mn4 H32 C48 S8 N8 O20'
_cell_volume   1740.84313385
_cell_formula_units_Z   4
loop_
 _symmetry_equiv_pos_site_id
 _symmetry_equiv_pos_as_xyz
  1  'x, y, z'
loop_
 _atom_site_type_symbol
 _atom_site_label
 _atom_site_symmetry_multiplicity
 _atom_site_fract_x
 _atom_site_fract_y
 _atom_site_fract_z
 _atom_site_occupancy
 _atom_site_pbe_bader_charge
 _atom_site_pbe_bader_spin_density
 _atom_site_pbe_cm5_charge
 _atom_site_pbe_ddec_charge
 _atom_site_pbe_ddec_spin_density
 _atom_site_pbe_ddec_sum_bond_order
 _atom_site_pbe_magmom
Mn  Mn0  1  0.99999005  0.00000573  0.99999855  1  1.555327  4.537585  0.614993  1.078832  4.658679  2.276601  4.474
Mn  Mn1  1  0.50000458  0.00000042  0.99999936  1  1.555328  4.537601  0.615054  1.078994  4.658669  2.276474  4.474
Mn  Mn2  1  0.24999131  0.16725842  0.83275061  1  1.547349  4.535506  0.605027  1.106518  4.650983  2.245785  4.472
Mn  Mn3  1  0.74999935  0.83275074  0.16724717  1  1.547446  4.535495  0.605037  1.106373  4.650997  2.245908  4.472
H  H4  1  0.66973076  0.22005661  0.89028767  1  0.14776  0.000278  0.124384  0.103588  -0.000713  1.032253  0.0
H  H5  1  0.80796193  0.57470562  0.73287730  1  0.120826  0.00015  0.087988  0.090733  8.7e-05  1.096873  0.0
H  H6  1  0.99332420  0.43695633  0.79878108  1  0.09982  0.000263  0.103723  0.10183  -0.000126  1.017466  0.0
H  H7  1  0.58834371  0.72875803  0.97198098  1  0.117293  7.4e-05  0.115364  0.084648  -0.000578  0.99649  0.0
H  H8  1  0.82770365  0.94023256  0.73152741  1  0.116528  0.000229  0.111279  0.109726  -3e-05  1.010598  0.0
H  H9  1  0.75109040  0.85563294  0.61135008  1  0.107242  0.000178  0.100822  0.115478  7.3e-05  1.00744  0.0
H  H10  1  0.06215544  0.19154232  0.66387295  1  0.637841  0.001804  0.276532  0.336278  0.001047  1.02772  0.002
H  H11  1  0.22849639  0.17796826  0.64338268  1  0.603516  0.001608  0.314419  0.390134  0.00066  0.903934  0.001
H  H12  1  0.83023479  0.10971442  0.77994053  1  0.148034  0.000278  0.124333  0.103626  -0.000713  1.032267  0.0
H  H13  1  0.69203795  0.26713526  0.42528260  1  0.120925  0.00015  0.087907  0.090623  8.7e-05  1.096764  0.0
H  H14  1  0.50665852  0.20123169  0.56302597  1  0.099773  0.000263  0.103749  0.101779  -0.000125  1.017548  0.0
H  H15  1  0.91166474  0.02802073  0.27124348  1  0.117455  7.4e-05  0.115368  0.084685  -0.000578  0.996578  0.0
H  H16  1  0.67230537  0.26847129  0.05976809  1  0.116591  0.000229  0.111283  0.109688  -3e-05  1.01063  0.0
H  H17  1  0.74890613  0.38864958  0.14437334  1  0.107239  0.000178  0.100813  0.115457  7.3e-05  1.007436  0.0
H  H18  1  0.43784577  0.33613771  0.80846323  1  0.638116  0.001802  0.276496  0.336236  0.001046  1.027783  0.002
H  H19  1  0.27149381  0.35664037  0.82203547  1  0.603342  0.001607  0.314601  0.390572  0.000659  0.903618  0.001
H  H20  1  0.33025921  0.77994499  0.10972489  1  0.148147  0.000278  0.124377  0.103576  -0.000713  1.032319  0.0
H  H21  1  0.19202942  0.42529138  0.26713097  1  0.120793  0.00015  0.08799  0.090757  8.7e-05  1.096723  0.0
H  H22  1  0.00666602  0.56304219  0.20122530  1  0.09996  0.000263  0.103727  0.101846  -0.000126  1.017422  0.0
H  H23  1  0.41167017  0.27123050  0.02802624  1  0.11742  7.4e-05  0.115395  0.084683  -0.000578  0.996562  0.0
H  H24  1  0.17230181  0.05975749  0.26847248  1  0.116484  0.000229  0.11131  0.109843  -3e-05  1.010446  0.0
H  H25  1  0.24890849  0.14436170  0.38865001  1  0.107203  0.000178  0.100829  0.115478  7.3e-05  1.007448  0.0
H  H26  1  0.93784007  0.80845688  0.33612002  1  0.637778  0.001808  0.276478  0.336253  0.001049  1.02776  0.002
H  H27  1  0.77149899  0.82201718  0.35660406  1  0.603744  0.001608  0.314399  0.390144  0.00066  0.903927  0.001
H  H28  1  0.16976925  0.89028173  0.22005739  1  0.147814  0.000278  0.1243  0.103518  -0.000713  1.032295  0.0
H  H29  1  0.30797023  0.73286164  0.57471490  1  0.120994  0.00015  0.087928  0.090663  8.7e-05  1.096802  0.0
H  H30  1  0.49334750  0.79876673  0.43696824  1  0.099957  0.000264  0.103775  0.101868  -0.000125  1.017407  0.0
H  H31  1  0.08833082  0.97197624  0.72876245  1  0.117342  7.4e-05  0.115353  0.08467  -0.000578  0.996566  0.0
H  H32  1  0.32768987  0.73153028  0.94024065  1  0.116508  0.000229  0.111316  0.109808  -3e-05  1.010437  0.0
H  H33  1  0.25108808  0.61135125  0.85563857  1  0.107274  0.000178  0.100855  0.115495  7.3e-05  1.007401  0.0
H  H34  1  0.56215684  0.66386381  0.19154017  1  0.638324  0.001802  0.276519  0.336218  0.001047  1.027797  0.002
H  H35  1  0.72850877  0.64336117  0.17797224  1  0.603436  0.001607  0.314594  0.390484  0.000659  0.90361  0.001
C  C36  1  0.95375998  0.23330264  0.88489182  1  1.588132  0.02276  0.226687  0.601654  0.022343  4.18719  0.019
C  C37  1  0.84552841  0.31818320  0.84945044  1  -0.025523  0.002125  -0.019317  -0.098232  0.000955  3.974467  0.001
C  C38  1  0.70337047  0.29792280  0.85586050  1  0.510134  0.005036  0.05835  0.090085  0.00377  3.906225  0.003
C  C39  1  0.64198566  0.46758809  0.77505011  1  0.381865  0.004409  0.120623  0.206202  0.003618  4.01649  0.003
C  C40  1  0.78080758  0.49567935  0.76768579  1  0.047381  -0.000872  -0.096804  -0.177332  -0.000877  3.993433  -0.001
C  C41  1  0.88326976  0.41930910  0.80475346  1  -0.057936  0.005004  -0.060806  -0.01981  0.003648  3.936408  0.003
C  C42  1  0.63256737  0.74565827  0.73248329  1  0.454013  0.007665  0.112978  0.19346  0.006229  4.059775  0.005
C  C43  1  0.62675330  0.75776694  0.89244842  1  0.505681  0.00636  0.058262  0.105984  0.004691  3.933276  0.004
C  C44  1  0.71268425  0.84116661  0.86090185  1  0.045889  0.001523  -0.012656  -0.086041  -0.000168  3.949528  0.0
C  C45  1  0.75871722  0.87679701  0.75813805  1  -0.059198  0.008681  -0.060338  -0.019862  0.006377  3.933467  0.005
C  C46  1  0.71625343  0.82996057  0.69162413  1  -0.056291  -0.001994  -0.095593  -0.17897  -0.002053  3.976717  -0.002
C  C47  1  0.75691732  0.88812031  0.93546322  1  1.574033  0.037203  0.234279  0.609275  0.035311  4.158202  0.031
C  C48  1  0.54620144  0.11513268  0.76668744  1  1.587455  0.022773  0.226569  0.601351  0.022348  4.187495  0.019
C  C49  1  0.65443581  0.15055995  0.68180587  1  -0.026039  0.002124  -0.019324  -0.098236  0.000955  3.974285  0.001
C  C50  1  0.79660209  0.14414035  0.70207395  1  0.510033  0.005037  0.058351  0.089877  0.003771  3.906181  0.003
C  C51  1  0.85799830  0.22495599  0.53241131  1  0.382283  0.004409  0.120494  0.206076  0.003618  4.01661  0.003
C  C52  1  0.71918408  0.23232628  0.50431058  1  0.04747  -0.000873  -0.096793  -0.177267  -0.000878  3.993309  -0.001
C  C53  1  0.61670947  0.19525864  0.58067585  1  -0.058276  0.005007  -0.060738  -0.019614  0.00365  3.936288  0.003
C  C54  1  0.86743478  0.26752097  0.25434402  1  0.45389  0.007664  0.112973  0.193437  0.006228  4.059993  0.005
C  C55  1  0.87325158  0.10755292  0.24223745  1  0.505568  0.006361  0.058217  0.105846  0.004692  3.933446  0.004
C  C56  1  0.78732190  0.13909475  0.15883568  1  0.046191  0.001526  -0.012554  -0.085829  -0.000167  3.949301  0.0
C  C57  1  0.74128618  0.24185829  0.12320860  1  -0.059429  0.008681  -0.060465  -0.020048  0.006376  3.933635  0.005
C  C58  1  0.78374296  0.30837403  0.17004573  1  -0.056379  -0.001993  -0.095519  -0.178822  -0.002052  3.976582  -0.002
C  C59  1  0.74308642  0.06452423  0.11188300  1  1.574021  0.037223  0.234377  0.609407  0.035331  4.157735  0.031
C  C60  1  0.04622131  0.76670579  0.11510518  1  1.586763  0.022774  0.226418  0.601253  0.022346  4.187652  0.019
C  C61  1  0.15446135  0.68182220  0.15055870  1  -0.026108  0.002127  -0.01933  -0.098141  0.000957  3.974242  0.001
C  C62  1  0.29662598  0.70207646  0.14414607  1  0.509813  0.005035  0.058239  0.089839  0.003769  3.906345  0.003
C  C63  1  0.35800039  0.53240970  0.22495957  1  0.382356  0.004406  0.120488  0.206011  0.003616  4.01663  0.003
C  C64  1  0.21918038  0.50432148  0.23232351  1  0.047604  -0.000871  -0.09676  -0.177175  -0.000876  3.99319  -0.001
C  C65  1  0.11671803  0.58069477  0.19525340  1  -0.058114  0.005002  -0.06077  -0.019898  0.003647  3.936498  0.003
C  C66  1  0.36743071  0.25433183  0.26752266  1  0.454492  0.007665  0.11306  0.19348  0.006229  4.060006  0.005
C  C67  1  0.37325198  0.24222542  0.10755647  1  0.505852  0.006359  0.058209  0.105999  0.00469  3.933338  0.004
C  C68  1  0.28732662  0.15882038  0.13910026  1  0.04581  0.001526  -0.012575  -0.086013  -0.000167  3.949537  0.0
C  C69  1  0.24129027  0.12319380  0.24186294  1  -0.06006  0.008683  -0.060448  -0.020062  0.006377  3.933628  0.005
C  C70  1  0.28374877  0.17003102  0.30837826  1  -0.055806  -0.001993  -0.095648  -0.178979  -0.002052  3.976899  -0.002
C  C71  1  0.24308560  0.11187808  0.06452466  1  1.574259  0.03721  0.234365  0.609391  0.035319  4.158032  0.031
C  C72  1  0.45382581  0.88488008  0.23328743  1  1.586833  0.022815  0.226562  0.601278  0.022386  4.187151  0.019
C  C73  1  0.34557632  0.84944222  0.31817964  1  -0.025438  0.002128  -0.019242  -0.09776  0.000958  3.973718  0.001
C  C74  1  0.20340608  0.85585656  0.29792499  1  0.51007  0.005039  0.058381  0.08984  0.003773  3.906129  0.003
C  C75  1  0.14201201  0.77504015  0.46758779  1  0.382526  0.00441  0.120471  0.205932  0.00362  4.0166  0.003
C  C76  1  0.28082921  0.76767289  0.49568523  1  0.04778  -0.000873  -0.096672  -0.176982  -0.000877  3.993168  -0.001
C  C77  1  0.38329755  0.80474128  0.41931279  1  -0.059111  0.005009  -0.060884  -0.020134  0.003651  3.936534  0.003
C  C78  1  0.13256694  0.73247753  0.74566474  1  0.454392  0.007662  0.113028  0.193396  0.006227  4.060032  0.005
C  C79  1  0.12674386  0.89244559  0.75777014  1  0.505996  0.006358  0.058277  0.10603  0.00469  3.93332  0.004
C  C80  1  0.21266713  0.86090533  0.84117527  1  0.046241  0.001528  -0.0125  -0.086015  -0.000164  3.949411  0.0
C  C81  1  0.25870380  0.75814332  0.87680324  1  -0.059869  0.008681  -0.060497  -0.019992  0.006376  3.933451  0.005
C  C82  1  0.21624923  0.69162603  0.82996364  1  -0.056195  -0.001991  -0.095584  -0.178877  -0.002051  3.976728  -0.002
C  C83  1  0.25691145  0.93548646  0.88811757  1  1.57352  0.037223  0.234331  0.609343  0.035326  4.157811  0.031
S  S84  1  0.49806221  0.55446673  0.72920708  1  0.100535  0.003394  0.05014  -0.006623  0.002595  2.824344  0.001
S  S85  1  0.58760640  0.68483789  0.64406174  1  0.036254  0.003354  0.046271  -0.008144  0.002519  2.796789  0.001
S  S86  1  0.00193253  0.27079882  0.44554044  1  0.100235  0.003394  0.05017  -0.006567  0.002596  2.824211  0.001
S  S87  1  0.91239602  0.35594141  0.31516468  1  0.036431  0.003354  0.046299  -0.008146  0.00252  2.796783  0.001
S  S88  1  0.50192910  0.44553103  0.27080022  1  0.100273  0.003392  0.050151  -0.006611  0.002595  2.824307  0.001
S  S89  1  0.41238611  0.31515757  0.35594339  1  0.036019  0.003354  0.046269  -0.00812  0.002519  2.796792  0.001
S  S90  1  0.99807136  0.72919889  0.55446417  1  0.100022  0.003395  0.050166  -0.006545  0.002597  2.824032  0.001
S  S91  1  0.08760787  0.64405631  0.68484065  1  0.036199  0.003353  0.046291  -0.008131  0.002519  2.796704  0.001
N  N92  1  0.60332781  0.37100189  0.81906533  1  -1.253834  0.001688  -0.306348  -0.272497  0.000603  3.371941  0.001
N  N93  1  0.58942826  0.70900943  0.83009672  1  -1.223619  -0.000288  -0.325391  -0.307855  -0.001053  3.375467  -0.001
N  N94  1  0.89664667  0.18093653  0.62899720  1  -1.253856  0.001689  -0.306231  -0.272403  0.000603  3.372039  0.001
N  N95  1  0.91057632  0.16991065  0.29099059  1  -1.223761  -0.000287  -0.325403  -0.307823  -0.001052  3.375596  -0.001
N  N96  1  0.39666041  0.62899437  0.18094691  1  -1.253905  0.001689  -0.306182  -0.272262  0.000603  3.371935  0.001
N  N97  1  0.41057319  0.29097685  0.16991178  1  -1.224036  -0.000286  -0.325459  -0.307939  -0.001052  3.375589  -0.001
N  N98  1  0.10336472  0.81905885  0.37100426  1  -1.253498  0.00169  -0.306254  -0.272343  0.000604  3.372043  0.001
N  N99  1  0.08942331  0.83008785  0.70901754  1  -1.223931  -0.000286  -0.325479  -0.307927  -0.001051  3.375568  -0.001
O  O100  1  0.91020515  0.14336799  0.91906407  1  -1.200928  0.066683  -0.296603  -0.55471  0.047054  2.355385  0.029
O  O101  1  0.08178772  0.25631347  0.87546461  1  -1.200759  0.061308  -0.314603  -0.577796  0.042334  2.288257  0.026
O  O102  1  0.67230995  0.87953409  0.01464317  1  -1.232402  0.097089  -0.310967  -0.63084  0.073042  2.444803  0.035
O  O103  1  0.87187648  0.93132342  0.91777165  1  -1.181422  0.075743  -0.284012  -0.540781  0.055476  2.30749  0.042
O  O104  1  0.15769486  0.20502375  0.68256979  1  -1.254234  0.05196  -0.568705  -0.752216  0.038279  2.135409  0.023
O  O105  1  0.58977033  0.08095202  0.85661946  1  -1.200036  0.066658  -0.296642  -0.554686  0.047047  2.355165  0.029
O  O106  1  0.41816653  0.12456888  0.74369028  1  -1.200648  0.061314  -0.314469  -0.577516  0.042345  2.288705  0.026
O  O107  1  0.82768929  0.98534107  0.12045977  1  -1.232429  0.097091  -0.310981  -0.630901  0.073049  2.445036  0.035
O  O108  1  0.62813215  0.08223033  0.06867362  1  -1.181328  0.075749  -0.284096  -0.540931  0.055489  2.307231  0.042
O  O109  1  0.34229589  0.31745031  0.79498461  1  -1.25428  0.051946  -0.568876  -0.752693  0.038278  2.135178  0.023
O  O110  1  0.08974546  0.85664659  0.08092430  1  -1.199934  0.066672  -0.296521  -0.554524  0.047058  2.355647  0.029
O  O111  1  0.91820108  0.74367583  0.12452905  1  -1.200163  0.06128  -0.31439  -0.577503  0.04232  2.288324  0.026
O  O112  1  0.32769016  0.12047650  0.98533934  1  -1.232254  0.09708  -0.31092  -0.630853  0.073039  2.444937  0.035
O  O113  1  0.12812417  0.06867803  0.08221459  1  -1.18137  0.075732  -0.284081  -0.540867  0.055476  2.307478  0.042
O  O114  1  0.84231099  0.79497917  0.31740927  1  -1.254401  0.051976  -0.568619  -0.752161  0.038292  2.135504  0.023
O  O115  1  0.41028504  0.91908047  0.14334765  1  -1.199259  0.066697  -0.296579  -0.554617  0.047087  2.355622  0.029
O  O116  1  0.58185137  0.87542341  0.25630617  1  -1.201028  0.061357  -0.314492  -0.577532  0.042358  2.288867  0.026
O  O117  1  0.17231263  0.01467336  0.87952787  1  -1.23217  0.097086  -0.310943  -0.6309  0.073047  2.445221  0.035
O  O118  1  0.37187359  0.91778945  0.93131784  1  -1.181264  0.075739  -0.284116  -0.540933  0.055483  2.307251  0.042
O  O119  1  0.65770408  0.68256110  0.20500915  1  -1.254715  0.051963  -0.568886  -0.752562  0.038278  2.135201  0.023
