# generated using pymatgen
data_Al2H19C28O10F
_symmetry_space_group_name_H-M   'P 1'
_cell_length_a   7.23578548
_cell_length_b   11.17533054
_cell_length_c   15.02592526
_cell_angle_alpha   80.28617985
_cell_angle_beta   77.69549445
_cell_angle_gamma   71.09331164
_symmetry_Int_Tables_number   1
_chemical_formula_structural   Al2H19C28O10F
_chemical_formula_sum   'Al2 H19 C28 O10 F1'
_cell_volume   1116.52308382
_cell_formula_units_Z   1
loop_
 _symmetry_equiv_pos_site_id
 _symmetry_equiv_pos_as_xyz
  1  'x, y, z'
loop_
 _atom_site_type_symbol
 _atom_site_label
 _atom_site_symmetry_multiplicity
 _atom_site_fract_x
 _atom_site_fract_y
 _atom_site_fract_z
 _atom_site_occupancy
 _atom_site_pbe_bader_charge
 _atom_site_pbe_bader_spin_density
 _atom_site_pbe_cm5_charge
 _atom_site_pbe_ddec_charge
 _atom_site_pbe_ddec_spin_density
 _atom_site_pbe_ddec_sum_bond_order
 _atom_site_pbe_magmom
Al  Al0  1  0.50667413  0.50758652  0.49165317  1  2.508628  0  0.42414  1.643934  0  2.512757  0
Al  Al1  1  0.00539632  0.50725297  0.49321856  1  2.510773  0  0.422906  1.642124  0  2.508369  0
H  H2  1  0.26745286  0.39586024  0.59391261  1  0.593373  0  0.325946  0.400462  0  0.896976  0
H  H3  1  0.71847895  0.65278154  0.41984360  1  0.603792  0  0.328802  0.407982  0  0.88713  0
H  H4  1  0.88069113  0.56054680  0.77118027  1  0.096736  0  0.105538  0.117496  0  1.00011  0
H  H5  1  0.37020930  0.45012434  0.75860180  1  0.086776  0  0.105659  0.116081  0  1.008928  0
H  H6  1  0.08147451  0.54224483  0.21167145  1  0.093835  0  0.10781  0.119256  0  0.999896  0
H  H7  1  0.69816101  0.43208035  0.23584834  1  0.085918  0  0.109908  0.123256  0  0.996211  0
H  H8  1  0.69650060  0.63566481  0.00104826  1  0.034548  0  0.099426  0.103528  0  0.959127  0
H  H9  1  0.92796656  0.58276819  0.93176564  1  0.05548  0  0.098768  0.102542  0  1.050453  0
H  H10  1  0.24948240  0.34964028  0.99229981  1  0.036517  0  0.099469  0.10219  0  0.969808  0
H  H11  1  0.12606336  0.44809233  0.90445089  1  0.049245  0  0.098928  0.103082  0  1.017795  0
H  H12  1  0.18140577  0.63721068  0.97362466  1  0.035241  0  0.099306  0.103378  0  0.960702  0
H  H13  1  0.00526817  0.57594373  0.04867596  1  0.059209  0  0.099752  0.104366  0  1.048636  0
H  H14  1  0.90283338  0.34877441  0.01073681  1  0.020375  0  0.098884  0.101222  0  0.972962  0
H  H15  1  0.93847109  0.43756498  0.08906063  1  0.036578  0  0.100807  0.105882  0  1.015263  0
H  H16  1  0.70854066  0.13699641  0.42214604  1  0.107293  0  0.117353  0.144696  0  0.986653  0
H  H17  1  0.21715778  0.10115056  0.64316838  1  0.043701  0  0.095223  0.100615  0  0.984443  0
H  H18  1  0.37560176  0.11893287  0.53649112  1  0.036658  0  0.099155  0.113728  0  0.990916  0
H  H19  1  0.49260390  0.88005249  0.53433931  1  0.084563  0  0.098411  0.115403  0  0.998357  0
H  H20  1  0.33421767  0.86375218  0.64119745  1  0.044809  0  0.098087  0.10736  0  0.978177  0
C  C21  1  0.86610321  0.28555919  0.49167608  1  1.596533  0  0.271192  0.654491  0  4.074608  0
C  C22  1  0.68545378  0.50708005  0.65351707  1  1.535066  0  0.26571  0.648997  0  4.071274  0
C  C23  1  0.14684062  0.73052629  0.48886828  1  1.613702  0  0.272087  0.681268  0  4.069744  0
C  C24  1  0.33004292  0.49327474  0.33390723  1  1.580615  0  0.269836  0.652894  0  4.06564  0
C  C25  1  0.80135369  0.55274143  0.96789666  1  -0.043612  0  -0.162106  -0.212377  0  3.970928  0
C  C26  1  0.22743167  0.44258596  0.95041703  1  -0.035868  0  -0.157202  -0.20035  0  3.945465  0
C  C27  1  0.15859715  0.55010544  0.01517032  1  -0.050458  0  -0.163049  -0.214997  0  3.976007  0
C  C28  1  0.83912521  0.43746270  0.04378916  1  0.02196  0  -0.157293  -0.201179  0  3.943921  0
C  C29  1  0.75458531  0.52818096  0.80681948  1  -0.069136  0  -0.090745  -0.168042  0  3.958679  0
C  C30  1  0.70442527  0.51875783  0.90199340  1  0.006547  0  -0.010762  0.083039  0  4.015317  0
C  C31  1  0.46634633  0.46478303  0.79992981  1  0.020356  0  -0.091072  -0.16522  0  3.968469  0
C  C32  1  0.41860065  0.45492591  0.89494314  1  -0.051624  0  -0.010188  0.083286  0  4.012777  0
C  C33  1  0.23680471  0.51233173  0.17925625  1  -0.04942  0  -0.086901  -0.16267  0  3.953226  0
C  C34  1  0.29145947  0.50956286  0.08481736  1  -0.018705  0  -0.011256  0.084682  0  4.014643  0
C  C35  1  0.58624766  0.44876904  0.19295221  1  -0.008889  0  -0.087519  -0.162273  0  3.950433  0
C  C36  1  0.63893289  0.44494998  0.09867573  1  0.012621  0  -0.007902  0.086198  0  4.007577  0
C  C37  1  0.63670839  0.49874582  0.75552120  1  -0.033308  0  -0.020393  -0.040772  0  4.01184  0
C  C38  1  0.54286922  0.47678143  0.94562467  1  -0.049998  0  -0.010978  -0.020894  0  3.989728  0
C  C39  1  0.38503826  0.48113389  0.23362406  1  -0.074887  0  -0.016781  -0.036672  0  4.002019  0
C  C40  1  0.49118334  0.47165522  0.04552356  1  -0.014043  0  -0.012393  -0.028466  0  3.99349  0
C  C41  1  0.94048737  0.14520453  0.48951068  1  0.010632  0  -0.007234  -0.055136  0  3.991836  0
C  C42  1  0.07699767  0.87155442  0.48702168  1  0.045056  0  -0.018281  -0.19966  0  3.962241  0
C  C43  1  0.10907371  0.06890622  0.52463212  1  -0.045558  0  -0.007749  0.046464  0  3.895029  0
C  C44  1  0.90813567  0.95124559  0.45055694  1  0.445218  0  0.105876  0.275111  0  4.032608  0
C  C45  1  0.17352638  0.93706671  0.52353077  1  -0.028321  0  0.0011  0.084314  0  3.891303  0
C  C46  1  0.84002190  0.08250134  0.45171915  1  0.014069  0  -0.094966  -0.238309  0  3.993835  0
C  C47  1  0.27064039  0.06844535  0.57462253  1  -0.000365  0  -0.14922  -0.193996  0  3.874895  0
C  C48  1  0.34399391  0.91892666  0.57343531  1  -0.01891  0  -0.149388  -0.196599  0  3.857588  0
O  O49  1  0.68325312  0.33837507  0.48678350  1  -1.254413  0  -0.230528  -0.584421  0  2.336379  0
O  O50  1  0.85773584  0.51563860  0.61638861  1  -1.265933  0  -0.239559  -0.601665  0  2.325472  0
O  O51  1  0.01697314  0.67645556  0.48803607  1  -1.248324  0  -0.234221  -0.601661  0  2.357659  0
O  O52  1  0.46552983  0.50296105  0.37213030  1  -1.263454  0  -0.235661  -0.597716  0  2.356546  0
O  O53  1  0.33120080  0.67854494  0.49233185  1  -1.256091  0  -0.230514  -0.589241  0  2.303247  0
O  O54  1  0.15325145  0.49567477  0.37163258  1  -1.261807  0  -0.234865  -0.5928  0  2.330022  0
O  O55  1  0.99367850  0.33813381  0.49923292  1  -1.246821  0  -0.227087  -0.581941  0  2.326965  0
O  O56  1  0.54880603  0.50325330  0.61314123  1  -1.271424  0  -0.239709  -0.611469  0  2.363105  0
O  O57  1  0.26544073  0.45010058  0.53629532  1  -1.408631  0  -0.460595  -0.975386  0  2.0465  0
O  O58  1  0.74641129  0.56619102  0.44955076  1  -1.413963  0  -0.460473  -0.975746  0  2.024786  0
F  F59  1  0.80475670  0.89981039  0.40945541  1  -0.642458  0  -0.10349  -0.149669  0  1.341415  0
