# generated using pymatgen
data_CuH9C9(NO2)2
_symmetry_space_group_name_H-M   'P 1'
_cell_length_a   8.00899438
_cell_length_b   10.18234614
_cell_length_c   11.67206650
_cell_angle_alpha   98.26780708
_cell_angle_beta   90.00005133
_cell_angle_gamma   89.99996524
_symmetry_Int_Tables_number   1
_chemical_formula_structural   CuH9C9(NO2)2
_chemical_formula_sum   'Cu4 H36 C36 N8 O16'
_cell_volume   941.96820579
_cell_formula_units_Z   4
loop_
 _symmetry_equiv_pos_site_id
 _symmetry_equiv_pos_as_xyz
  1  'x, y, z'
loop_
 _atom_site_type_symbol
 _atom_site_label
 _atom_site_symmetry_multiplicity
 _atom_site_fract_x
 _atom_site_fract_y
 _atom_site_fract_z
 _atom_site_occupancy
 _atom_site_hle17_ddec_charge
 _atom_site_hle17_ddec_spin_density
 _atom_site_hle17_ddec_sum_bond_order
 _atom_site_hle17_magmom
 _atom_site_hse06_10hf_ddec_charge
 _atom_site_hse06_10hf_ddec_spin_density
 _atom_site_hse06_10hf_ddec_sum_bond_order
 _atom_site_hse06_10hf_magmom
 _atom_site_hse06_ddec_charge
 _atom_site_hse06_ddec_spin_density
 _atom_site_hse06_ddec_sum_bond_order
 _atom_site_hse06_magmom
 _atom_site_pbe_cm5_charge
 _atom_site_pbe_ddec_charge
 _atom_site_pbe_ddec_spin_density
 _atom_site_pbe_ddec_sum_bond_order
 _atom_site_pbe_magmom
Cu  Cu0  1  0.43435413  0.44278425  0.22349725  1  0.822653  0.717781  1.818099  0.501  0.79809  0.803274  2.208028  0.618  0.887452  0.878675  2.143175  0.704  0.729651  0.743257  0.748134  2.253072  0.562
Cu  Cu1  1  0.06564348  0.94278541  0.22349911  1  0.822707  0.717798  1.818168  0.501  0.798114  0.803293  2.208138  0.618  0.887464  0.87868  2.14326  0.704  0.729719  0.743258  0.748136  2.253161  0.562
Cu  Cu2  1  0.56564309  0.55721414  0.77650433  1  0.822692  -0.71779  1.818086  -0.501  0.798162  -0.803277  2.208039  -0.618  0.887509  -0.878668  2.143176  -0.704  0.729704  0.743328  -0.74814  2.253087  -0.562
Cu  Cu3  1  0.93435624  0.05721596  0.77650627  1  0.822704  -0.717775  1.817967  -0.501  0.798252  -0.803276  2.207828  -0.618  0.887546  -0.878666  2.143024  -0.704  0.729669  0.743402  -0.748123  2.252863  -0.562
H  H4  1  0.15632170  0.35597852  0.14000767  1  0.271074  -0.000724  0.926272  -0.002  0.261229  0.000219  0.984061  0.0  0.26833  -2.2e-05  0.980673  -0.001  0.294418  0.256165  0.000389  0.986866  0.0
H  H5  1  0.34367462  0.85597858  0.14001128  1  0.271067  -0.000724  0.926293  -0.002  0.2612  0.00022  0.98407  0.0  0.268299  -2.2e-05  0.980683  -0.001  0.294403  0.256137  0.000389  0.986877  0.0
H  H6  1  0.84367427  0.64402483  0.85999283  1  0.271069  0.000724  0.926271  0.002  0.26124  -0.000219  0.98405  0.0  0.268341  2.2e-05  0.980662  0.001  0.294409  0.256176  -0.000389  0.986861  0.0
H  H7  1  0.65632136  0.14402378  0.85999595  1  0.27107  0.000724  0.926275  0.002  0.261249  -0.000219  0.984033  0.0  0.268349  2.2e-05  0.980644  0.001  0.294414  0.256183  -0.000389  0.986839  0.0
H  H8  1  0.15601690  0.62268263  0.08346907  1  0.107197  -8.4e-05  0.928906  0.0  0.123737  -8.6e-05  0.985945  0.0  0.125442  -4.9e-05  0.984958  0.0  0.116231  0.122414  -0.00011  0.986835  0.0
H  H9  1  0.34398202  0.12268151  0.08346972  1  0.107209  -8.5e-05  0.928905  0.0  0.123777  -8.6e-05  0.985919  0.0  0.125482  -4.9e-05  0.984933  0.0  0.116231  0.122451  -0.00011  0.98681  0.0
H  H10  1  0.84398656  0.37731775  0.91652934  1  0.107219  8.5e-05  0.928935  0.0  0.123793  8.6e-05  0.985917  0.0  0.125497  4.9e-05  0.984933  0.0  0.116231  0.122464  0.00011  0.986805  0.0
H  H11  1  0.65601895  0.87731490  0.91652647  1  0.107192  8.4e-05  0.928915  0.0  0.123749  8.6e-05  0.985945  0.0  0.125454  4.9e-05  0.984959  0.0  0.116247  0.122422  0.00011  0.986832  0.0
H  H12  1  0.00106370  0.54217542  0.15630919  1  0.101184  0.001851  0.921449  0.002  0.11672  0.001318  0.978525  0.001  0.117767  0.000881  0.978745  0.001  0.112614  0.116016  0.001638  0.978364  0.002
H  H13  1  0.49893663  0.04217324  0.15630981  1  0.101187  0.001851  0.921446  0.002  0.116722  0.001318  0.97854  0.001  0.11777  0.000881  0.978759  0.001  0.112603  0.116017  0.001638  0.978375  0.002
H  H14  1  0.99893977  0.45783092  0.84369339  1  0.101198  -0.001851  0.92139  -0.002  0.11671  -0.001318  0.978501  -0.001  0.11777  -0.000881  0.978706  -0.001  0.112598  0.116006  -0.001638  0.978336  -0.002
H  H15  1  0.50106184  0.95782614  0.84369275  1  0.101166  -0.001852  0.921428  -0.002  0.116708  -0.001319  0.978513  -0.001  0.117753  -0.000882  0.978735  -0.001  0.112595  0.115999  -0.001638  0.978348  -0.002
H  H16  1  0.28677552  0.49120436  0.95840492  1  0.109602  4.5e-05  0.954061  0.0  0.121946  5.5e-05  1.019469  0.0  0.123872  7.6e-05  1.018609  0.0  0.114028  0.120456  4.8e-05  1.020313  0.0
H  H17  1  0.21322801  0.99120745  0.95840797  1  0.10959  4.7e-05  0.954059  0.0  0.121976  5.5e-05  1.019437  0.0  0.123903  7.6e-05  1.018578  0.0  0.114019  0.120482  4.8e-05  1.020282  0.0
H  H18  1  0.71323045  0.50879006  0.04159617  1  0.109644  -4.6e-05  0.95401  0.0  0.122017  -5.5e-05  1.019378  0.0  0.123944  -7.6e-05  1.01852  0.0  0.114079  0.120529  -4.8e-05  1.02022  0.0
H  H19  1  0.78677296  0.00879293  0.04159644  1  0.109596  -4.6e-05  0.954029  0.0  0.121957  -5.5e-05  1.019407  0.0  0.123884  -7.6e-05  1.018549  0.0  0.114044  0.120469  -4.8e-05  1.020252  0.0
H  H20  1  0.19247659  0.33119984  0.95177742  1  0.113396  0.002242  0.969762  0.003  0.124047  0.001476  1.034463  0.002  0.127532  0.001022  1.031562  0.001  0.110462  0.121493  0.001761  1.036646  0.002
H  H21  1  0.30752330  0.83119892  0.95177917  1  0.113423  0.002243  0.969732  0.003  0.12405  0.001476  1.034499  0.002  0.127539  0.001022  1.031591  0.001  0.110459  0.121497  0.00176  1.036681  0.002
H  H22  1  0.80752687  0.66879656  0.04822477  1  0.113391  -0.002243  0.969788  -0.003  0.124054  -0.001476  1.034491  -0.002  0.127544  -0.001022  1.031585  -0.001  0.110434  0.121501  -0.00176  1.036674  -0.002
H  H23  1  0.69247517  0.16879649  0.04822633  1  0.113372  -0.002243  0.969836  -0.003  0.124026  -0.001476  1.034524  -0.002  0.127515  -0.001022  1.03162  -0.001  0.110431  0.121472  -0.001761  1.036706  -0.002
H  H24  1  0.95659598  0.12798397  0.42527380  1  0.093556  0.000678  0.955317  0.002  0.101399  0.000588  1.017634  0.001  0.104238  0.000433  1.015319  0.001  0.12043  0.099052  0.000706  1.019838  0.001
H  H25  1  0.54340409  0.62798315  0.42527283  1  0.093497  0.000678  0.955375  0.002  0.101381  0.000588  1.017646  0.001  0.104226  0.000433  1.015328  0.001  0.1204  0.099034  0.000706  1.019854  0.001
H  H26  1  0.04340374  0.87201442  0.57472607  1  0.093591  -0.000679  0.955291  -0.002  0.10142  -0.000588  1.017622  -0.001  0.104257  -0.000433  1.015306  -0.001  0.120426  0.099072  -0.000706  1.019831  -0.001
H  H27  1  0.45659688  0.37201524  0.57472619  1  0.093567  -0.000678  0.955311  -0.002  0.101415  -0.000588  1.017634  -0.001  0.104252  -0.000433  1.015316  -0.001  0.120434  0.099071  -0.000706  1.019834  -0.001
H  H28  1  0.71524116  0.16050574  0.55381586  1  0.118158  0.000361  0.988425  0.0  0.124677  0.000319  1.053948  0.0  0.129594  0.000238  1.050535  0.0  0.108118  0.121023  0.000364  1.056573  0.0
H  H29  1  0.78475781  0.66050384  0.55381490  1  0.118197  0.000361  0.988424  0.0  0.124716  0.00032  1.053932  0.0  0.129632  0.000238  1.050519  0.0  0.108131  0.121064  0.000364  1.056557  0.0
H  H30  1  0.28475482  0.83949563  0.44618096  1  0.11821  -0.00036  0.988403  0.0  0.124711  -0.00032  1.053939  0.0  0.129629  -0.000238  1.050523  0.0  0.10812  0.121057  -0.000364  1.056565  0.0
H  H31  1  0.21524691  0.33949456  0.44617983  1  0.118212  -0.000361  0.988401  0.0  0.124716  -0.00032  1.053932  0.0  0.129633  -0.000238  1.050517  0.0  0.108123  0.121061  -0.000364  1.056557  0.0
H  H32  1  0.48698489  0.82065816  0.34290237  1  0.117628  0.000242  0.959205  0.0  0.127771  0.000254  1.0199  0.0  0.13124  0.000183  1.018577  0.0  0.112912  0.125022  0.000305  1.021457  0.0
H  H33  1  0.01301172  0.32065617  0.34290529  1  0.11763  0.000242  0.959246  0.0  0.127788  0.000254  1.01991  0.0  0.131257  0.000183  1.018586  0.0  0.11289  0.125038  0.000305  1.021465  0.0
H  H34  1  0.51301358  0.17934123  0.65708906  1  0.117602  -0.000241  0.959295  0.0  0.1278  -0.000254  1.019926  0.0  0.13127  -0.000183  1.018602  0.0  0.112875  0.12505  -0.000305  1.021483  0.0
H  H35  1  0.98698425  0.67934024  0.65709005  1  0.117601  -0.000242  0.959284  0.0  0.127802  -0.000254  1.019912  0.0  0.131273  -0.000183  1.018588  0.0  0.112883  0.125053  -0.000305  1.021469  0.0
H  H36  1  0.73812496  0.80595021  0.22223054  1  0.09054  0.000608  0.961748  0.001  0.095359  0.00052  1.03125  0.001  0.098161  0.000427  1.028411  0.001  0.116557  0.093115  0.000561  1.033457  0.001
H  H37  1  0.76187595  0.30594812  0.22223188  1  0.090515  0.000609  0.961713  0.001  0.095329  0.00052  1.03124  0.001  0.098134  0.000427  1.028392  0.001  0.11655  0.093084  0.000561  1.033445  0.001
H  H38  1  0.26188100  0.19404819  0.77776591  1  0.090491  -0.00061  0.961688  -0.001  0.095306  -0.00052  1.031216  -0.001  0.098114  -0.000427  1.028361  -0.001  0.116542  0.093062  -0.000561  1.033422  -0.001
H  H39  1  0.23811752  0.69404729  0.77776847  1  0.090572  -0.000608  0.961729  -0.001  0.095399  -0.00052  1.031212  -0.001  0.098204  -0.000427  1.028366  -0.001  0.116582  0.093156  -0.000561  1.033419  -0.001
C  C40  1  0.13596327  0.55981031  0.15095877  1  -0.131159  -0.001559  3.619897  -0.005  -0.187415  0.000931  3.877258  -0.002  -0.186896  0.000242  3.886101  -0.003  -0.07529  -0.18762  0.001495  3.871745  -0.002
C  C41  1  0.36403704  0.05981017  0.15096042  1  -0.131184  -0.001556  3.619902  -0.005  -0.187518  0.000931  3.877256  -0.002  -0.187005  0.000239  3.886102  -0.003  -0.07531  -0.187719  0.001495  3.871734  -0.002
C  C42  1  0.86404269  0.44019206  0.84904075  1  -0.131322  0.001557  3.619824  0.005  -0.187567  -0.00093  3.877189  0.002  -0.187057  -0.000243  3.88603  0.003  -0.075353  -0.187758  -0.001495  3.871657  0.002
C  C43  1  0.63596143  0.94019219  0.84904081  1  -0.131113  0.001558  3.619923  0.005  -0.187405  -0.00093  3.877303  0.002  -0.186886  -0.000242  3.886145  0.003  -0.075299  -0.187586  -0.001495  3.871755  0.002
C  C44  1  0.19378331  0.63805212  0.26573262  1  0.665525  -0.002768  3.862887  -0.004  0.627331  0.001737  4.17327  0.001  0.664454  0.001285  4.165828  0.001  0.203019  0.601885  0.002008  4.176997  0.001
C  C45  1  0.30621709  0.13805300  0.26573522  1  0.665524  -0.002766  3.862855  -0.004  0.627328  0.001737  4.173264  0.001  0.664453  0.001287  4.165821  0.001  0.202922  0.601877  0.002007  4.176985  0.001
C  C46  1  0.80622390  0.36195223  0.73426372  1  0.665513  0.002766  3.862901  0.004  0.627356  -0.001738  4.173242  -0.001  0.664476  -0.001286  4.165801  -0.001  0.202931  0.601906  -0.002008  4.176972  -0.001
C  C47  1  0.69377763  0.86195433  0.73426321  1  0.665379  0.002765  3.863066  0.004  0.627291  -0.001738  4.17333  -0.001  0.664412  -0.001285  4.165882  -0.001  0.202959  0.60184  -0.002008  4.177054  -0.001
C  C48  1  0.28100082  0.40102258  0.99974096  1  -0.167326  -0.000858  3.637138  -0.004  -0.225948  0.001311  3.897762  -0.002  -0.226457  0.000493  3.905713  -0.002  -0.088147  -0.225376  0.001957  3.893021  -0.002
C  C49  1  0.21899784  0.90102467  0.99974303  1  -0.167347  -0.000867  3.636948  -0.004  -0.226085  0.001312  3.897674  -0.002  -0.2266  0.000492  3.905624  -0.002  -0.08816  -0.22551  0.001957  3.892931  -0.002
C  C50  1  0.71900015  0.59897482  0.00026307  1  -0.167437  0.000864  3.637082  0.004  -0.226084  -0.001312  3.89783  0.002  -0.226601  -0.000496  3.905791  0.002  -0.088185  -0.225515  -0.001958  3.893094  0.002
C  C51  1  0.78099814  0.09897471  0.00026211  1  -0.167395  0.000863  3.637119  0.004  -0.22597  -0.001312  3.897833  0.002  -0.226487  -0.000494  3.905793  0.002  -0.088129  -0.225402  -0.001957  3.893096  0.002
C  C52  1  0.45384401  0.33802196  0.98918811  1  0.65867  -0.000594  3.861149  -0.002  0.614317  0.002113  4.174446  0.002  0.64863  0.001549  4.168726  0.001  0.201454  0.590736  0.00249  4.177743  0.002
C  C53  1  0.04615093  0.83802610  0.98918862  1  0.658761  -0.000589  3.861011  -0.002  0.614369  0.002114  4.174375  0.002  0.648682  0.00155  4.168652  0.001  0.201457  0.590792  0.002491  4.177676  0.002
C  C54  1  0.54615571  0.66197444  0.01081665  1  0.658715  0.000592  3.861065  0.002  0.614269  -0.002114  4.174513  -0.002  0.648583  -0.001548  4.168792  -0.001  0.201449  0.590689  -0.002491  4.177812  -0.002
C  C55  1  0.95384004  0.16197725  0.01081616  1  0.65884  0.000591  3.860903  0.002  0.614272  -0.002114  4.174509  -0.002  0.648584  -0.001548  4.168789  -0.001  0.201425  0.590689  -0.002491  4.177803  -0.002
C  C56  1  0.84804679  0.06382586  0.40947502  1  0.130113  -0.00595  3.673473  -0.006  0.103095  -0.000837  3.924017  -0.001  0.111614  -0.001814  3.942452  -0.003  0.048647  0.097397  -7.2e-05  3.913156  -0.001
C  C57  1  0.65195206  0.56382599  0.40947423  1  0.130226  -0.005949  3.673606  -0.006  0.103183  -0.000837  3.924148  -0.001  0.111699  -0.001814  3.94259  -0.003  0.048683  0.097486  -7.2e-05  3.913292  -0.001
C  C58  1  0.15195168  0.93617154  0.59052473  1  0.129951  0.005972  3.673514  0.006  0.102989  0.000836  3.924082  0.001  0.111523  0.001814  3.942518  0.003  0.048619  0.097289  7.2e-05  3.91322  0.001
C  C59  1  0.34804891  0.43617240  0.59052564  1  0.130037  0.005945  3.673374  0.006  0.103021  0.000836  3.923973  0.001  0.111554  0.001815  3.942412  0.003  0.048631  0.097325  7.2e-05  3.913111  0.001
C  C60  1  0.70951757  0.08068045  0.48120804  1  -0.13054  0.010182  3.667651  0.01  -0.149557  0.004219  3.910133  0.005  -0.156623  0.004075  3.927867  0.005  -0.074338  -0.144975  0.004223  3.898965  0.005
C  C61  1  0.79048135  0.58068052  0.48120647  1  -0.130646  0.010181  3.667716  0.01  -0.149633  0.004218  3.910177  0.005  -0.156698  0.004077  3.92791  0.005  -0.074352  -0.145052  0.004223  3.899015  0.005
C  C62  1  0.29047965  0.91931696  0.51879000  1  -0.130445  -0.010207  3.667532  -0.01  -0.149471  -0.004218  3.91002  -0.005  -0.156537  -0.004076  3.927753  -0.005  -0.074295  -0.144891  -0.004224  3.898854  -0.005
C  C63  1  0.20951961  0.41931688  0.51878813  1  -0.130462  -0.010175  3.667429  -0.01  -0.149503  -0.004218  3.90995  -0.005  -0.156568  -0.004076  3.927682  -0.005  -0.074335  -0.14492  -0.004224  3.898779  -0.005
C  C64  1  0.57365621  0.99354392  0.46140876  1  0.108502  -0.008143  3.720167  -0.008  0.121163  -0.002868  3.94379  -0.003  0.126811  -0.003123  3.962433  -0.003  0.019373  0.117014  -0.002631  3.931355  -0.003
C  C65  1  0.92634362  0.49354376  0.46140787  1  0.108555  -0.008141  3.720124  -0.008  0.121182  -0.002866  3.943751  -0.003  0.126831  -0.003124  3.962394  -0.003  0.019386  0.11704  -0.002631  3.931319  -0.003
C  C66  1  0.42634226  0.00645447  0.53859026  1  0.108468  0.008162  3.720133  0.008  0.12115  0.002866  3.943751  0.003  0.1268  0.003123  3.962396  0.003  0.019394  0.117008  0.00263  3.931315  0.003
C  C67  1  0.07365734  0.50645463  0.53859028  1  0.108406  0.008134  3.720185  0.008  0.121118  0.002866  3.943778  0.003  0.126768  0.003122  3.962422  0.003  0.019366  0.116972  0.00263  3.931344  0.003
C  C68  1  0.58575258  0.89323689  0.36553171  1  -0.150243  0.009602  3.668988  0.01  -0.166112  0.003907  3.909568  0.005  -0.173919  0.003809  3.929189  0.004  -0.075866  -0.161084  0.003897  3.8975  0.004
C  C69  1  0.91424595  0.39323475  0.36553057  1  -0.150286  0.009602  3.669153  0.01  -0.166143  0.003907  3.909711  0.005  -0.173952  0.00381  3.929332  0.004  -0.075831  -0.161115  0.003897  3.89764  0.004
C  C70  1  0.41424714  0.10676150  0.63446473  1  -0.150272  -0.00963  3.669203  -0.01  -0.166188  -0.003906  3.909753  -0.005  -0.173999  -0.003811  3.929375  -0.004  -0.075861  -0.16116  -0.003897  3.897682  -0.004
C  C71  1  0.08575127  0.60675967  0.63446452  1  -0.150179  -0.009595  3.669238  -0.01  -0.166091  -0.003906  3.909763  -0.005  -0.173899  -0.003809  3.929383  -0.004  -0.075828  -0.161062  -0.003897  3.897698  -0.004
C  C72  1  0.72806754  0.88299663  0.29673595  1  0.124002  -0.005987  3.690057  -0.006  0.09695  -0.000871  3.943024  -0.002  0.106112  -0.001835  3.960893  -0.003  0.042805  0.091082  -0.000173  3.931995  -0.001
C  C73  1  0.77193341  0.38299553  0.29673657  1  0.124075  -0.005989  3.690204  -0.006  0.097022  -0.00087  3.943194  -0.002  0.106189  -0.001834  3.961068  -0.003  0.0428  0.09116  -0.000173  3.932162  -0.001
C  C74  1  0.27193593  0.11700177  0.70326135  1  0.124158  0.006016  3.690099  0.006  0.097133  0.000871  3.943098  0.002  0.106309  0.001836  3.960974  0.003  0.042862  0.091268  0.000174  3.932068  0.001
C  C75  1  0.22806381  0.61699889  0.70326280  1  0.123959  0.005983  3.690187  0.006  0.096916  0.00087  3.943169  0.002  0.10609  0.001835  3.961048  0.003  0.042758  0.091049  0.000173  3.932143  0.001
N  N76  1  0.22915977  0.43452080  0.12184372  1  -0.338091  0.105509  3.28791  0.128  -0.295743  0.068809  3.564454  0.089  -0.328201  0.054806  3.582719  0.075  -0.498587  -0.276694  0.07542  3.554398  0.094
N  N77  1  0.27083647  0.93452088  0.12184815  1  -0.338075  0.105506  3.287736  0.128  -0.295547  0.068806  3.564122  0.089  -0.328001  0.054806  3.582387  0.075  -0.498502  -0.276495  0.075417  3.554053  0.094
N  N78  1  0.77083621  0.56548057  0.87815567  1  -0.337974  -0.105517  3.28764  -0.128  -0.295669  -0.068813  3.56426  -0.089  -0.328126  -0.054811  3.582524  -0.075  -0.498505  -0.276618  -0.07542  3.554203  -0.094
N  N79  1  0.72915951  0.06547949  0.87815883  1  -0.338083  -0.105509  3.287898  -0.128  -0.295775  -0.068811  3.564511  -0.089  -0.32821  -0.05481  3.58275  -0.075  -0.498588  -0.276731  -0.075423  3.554443  -0.094
N  N80  1  0.85853958  0.96670457  0.31807201  1  -0.29736  0.066972  3.320027  0.081  -0.245452  0.04656  3.613726  0.06  -0.274075  0.04005  3.632052  0.054  -0.350001  -0.228958  0.049477  3.603657  0.062
N  N81  1  0.64146758  0.46670452  0.31807354  1  -0.297346  0.066974  3.320136  0.081  -0.245491  0.046563  3.613889  0.06  -0.274128  0.040051  3.632241  0.054  -0.349951  -0.229004  0.049479  3.603831  0.062
N  N82  1  0.14147013  0.03329284  0.68192602  1  -0.297362  -0.066993  3.320203  -0.081  -0.245569  -0.046563  3.613973  -0.06  -0.274215  -0.040053  3.632335  -0.054  -0.349985  -0.229075  -0.04948  3.603903  -0.062
N  N83  1  0.35853589  0.53329189  0.68192951  1  -0.297364  -0.066963  3.320102  -0.081  -0.245488  -0.046558  3.613816  -0.06  -0.274143  -0.04005  3.632177  -0.054  -0.349958  -0.229001  -0.049474  3.603763  -0.062
O  O84  1  0.31331772  0.58745161  0.31956862  1  -0.595911  0.087088  2.054562  0.114  -0.568644  0.057166  2.340216  0.082  -0.609453  0.044295  2.330709  0.067  -0.327244  -0.541467  0.065011  2.346602  0.09
O  O85  1  0.18668279  0.08745154  0.31957018  1  -0.595891  0.087084  2.054544  0.114  -0.568646  0.057165  2.34023  0.082  -0.609449  0.044295  2.33071  0.067  -0.32723  -0.541464  0.065015  2.346606  0.09
O  O86  1  0.68668575  0.41255373  0.68043212  1  -0.595934  -0.087085  2.054592  -0.114  -0.568663  -0.057166  2.340212  -0.082  -0.609464  -0.044298  2.330689  -0.067  -0.327204  -0.541487  -0.065011  2.346606  -0.09
O  O87  1  0.81331943  0.91255082  0.68043191  1  -0.595895  -0.087089  2.054577  -0.114  -0.568673  -0.057167  2.34019  -0.082  -0.609462  -0.044298  2.330666  -0.067  -0.327226  -0.541494  -0.065013  2.346575  -0.09
O  O88  1  0.12528655  0.74613412  0.30284442  1  -0.602468  0.024705  1.977322  0.032  -0.580978  0.01097  2.233569  0.015  -0.612576  0.005053  2.223327  0.008  -0.31982  -0.556908  0.018344  2.238977  0.024
O  O89  1  0.37471631  0.24613596  0.30284462  1  -0.60251  0.024702  1.97727  0.032  -0.581001  0.010969  2.2335  0.015  -0.612601  0.005052  2.223264  0.008  -0.319778  -0.556937  0.018344  2.238913  0.024
O  O90  1  0.87472690  0.25387321  0.69715229  1  -0.602414  -0.024702  1.977245  -0.032  -0.580966  -0.010969  2.233478  -0.015  -0.612555  -0.005051  2.223236  -0.008  -0.319787  -0.556898  -0.018343  2.23889  -0.024
O  O91  1  0.62527217  0.75387832  0.69714354  1  -0.602353  -0.024708  1.977301  -0.032  -0.58096  -0.010971  2.233556  -0.015  -0.612558  -0.005053  2.223313  -0.008  -0.319802  -0.556898  -0.018344  2.238976  -0.024
O  O92  1  0.54124265  0.34306740  0.08313768  1  -0.624132  0.066422  2.088139  0.087  -0.583942  0.047804  2.369418  0.068  -0.623129  0.037786  2.360178  0.057  -0.332677  -0.558202  0.053394  2.376076  0.073
O  O93  1  0.95875680  0.84307038  0.08314087  1  -0.624141  0.066424  2.088066  0.087  -0.583938  0.047805  2.36939  0.068  -0.623124  0.037786  2.360145  0.057  -0.332663  -0.558192  0.053393  2.376043  0.073
O  O94  1  0.45876081  0.65692901  0.91686365  1  -0.624112  -0.066426  2.088053  -0.087  -0.58393  -0.047806  2.369464  -0.068  -0.623113  -0.037789  2.360213  -0.057  -0.332665  -0.558187  -0.053394  2.376123  -0.073
O  O95  1  0.04124042  0.15693098  0.91686537  1  -0.624163  -0.066425  2.088027  -0.087  -0.583967  -0.047804  2.36949  -0.068  -0.62314  -0.037788  2.360243  -0.057  -0.332681  -0.558221  -0.053395  2.376137  -0.073
O  O96  1  0.50426603  0.28669427  0.89136902  1  -0.594618  0.015287  1.925962  0.018  -0.55408  0.008493  2.158522  0.01  -0.579953  0.004659  2.150386  0.006  -0.308804  -0.534878  0.012394  2.163251  0.015
O  O97  1  0.99572703  0.78670419  0.89136797  1  -0.594708  0.015285  1.925919  0.018  -0.554118  0.008492  2.158466  0.01  -0.579989  0.00466  2.150326  0.006  -0.308813  -0.534916  0.012393  2.163202  0.015
O  O98  1  0.49573494  0.71329916  0.10863622  1  -0.594594  -0.015284  1.925891  -0.018  -0.553999  -0.008492  2.1585  -0.01  -0.579876  -0.004658  2.15037  -0.006  -0.308784  -0.534799  -0.012393  2.163235  -0.015
O  O99  1  0.00426519  0.21330512  0.10863414  1  -0.594692  -0.015286  1.925829  -0.018  -0.554042  -0.008493  2.158471  -0.01  -0.579914  -0.004658  2.150336  -0.006  -0.308777  -0.534842  -0.012394  2.1632  -0.015
