# generated using pymatgen
data_CdH11C9N2ClO3
_symmetry_space_group_name_H-M   'P 1'
_cell_length_a   5.79774569
_cell_length_b   15.15458351
_cell_length_c   16.45861901
_cell_angle_alpha   89.99995697
_cell_angle_beta   89.99993074
_cell_angle_gamma   89.99998112
_symmetry_Int_Tables_number   1
_chemical_formula_structural   CdH11C9N2ClO3
_chemical_formula_sum   'Cd4 H44 C36 N8 Cl4 O12'
_cell_volume   1446.09411607
_cell_formula_units_Z   4
loop_
 _symmetry_equiv_pos_site_id
 _symmetry_equiv_pos_as_xyz
  1  'x, y, z'
loop_
 _atom_site_type_symbol
 _atom_site_label
 _atom_site_symmetry_multiplicity
 _atom_site_fract_x
 _atom_site_fract_y
 _atom_site_fract_z
 _atom_site_occupancy
 _atom_site_hle17_bader_spin_density
 _atom_site_hle17_ddec_charge
 _atom_site_hle17_ddec_spin_density
 _atom_site_hle17_ddec_sum_bond_order
 _atom_site_hle17_magmom
 _atom_site_hse06_10hf_bader_spin_density
 _atom_site_hse06_10hf_ddec_charge
 _atom_site_hse06_10hf_ddec_spin_density
 _atom_site_hse06_10hf_ddec_sum_bond_order
 _atom_site_hse06_10hf_magmom
 _atom_site_hse06_bader_spin_density
 _atom_site_hse06_ddec_charge
 _atom_site_hse06_ddec_spin_density
 _atom_site_hse06_ddec_sum_bond_order
 _atom_site_hse06_magmom
 _atom_site_pbe_bader_spin_density
 _atom_site_pbe_cm5_charge
 _atom_site_pbe_ddec_charge
 _atom_site_pbe_ddec_spin_density
 _atom_site_pbe_ddec_sum_bond_order
 _atom_site_pbe_magmom
Cd  Cd0  1  0.62829224  0.41529410  0.03707635  1  0  1.042106  0  1.782644  0  0  0.855067  0  2.234537  0  0  0.907311  0  2.188063  0  0  0.707487  0.818212  0  2.266147  0
Cd  Cd1  1  0.87171006  0.58470599  0.53707809  1  0  1.042146  0  1.782593  0  0  0.8551  0  2.234484  0  0  0.907343  0  2.188008  0  0  0.707503  0.818245  0  2.266094  0
Cd  Cd2  1  0.37170709  0.91529647  0.46292423  1  0  1.042129  0  1.782603  0  0  0.855112  0  2.234477  0  0  0.907352  0  2.188003  0  0  0.707502  0.818255  0  2.266081  0
Cd  Cd3  1  0.12829128  0.08470268  0.96292399  1  0  1.042135  0  1.78264  0  0  0.855126  0  2.23452  0  0  0.907371  0  2.188044  0  0  0.707498  0.818267  0  2.266123  0
H  H4  1  0.55595246  0.61997248  0.75361454  1  0  0.114135  0  0.939681  0  0  0.125653  0  0.99541  0  0  0.129064  0  0.994644  0  0  0.110508  0.123194  0  0.996167  0
H  H5  1  0.94405599  0.38002612  0.25361451  1  0  0.114103  0  0.939642  0  0  0.125626  0  0.995366  0  0  0.129038  0  0.994596  0  0  0.110498  0.123168  0  0.996121  0
H  H6  1  0.44404885  0.11997525  0.74638873  1  0  0.114127  0  0.939633  0  0  0.125621  0  0.995382  0  0  0.129031  0  0.994617  0  0  0.110488  0.123159  0  0.99614  0
H  H7  1  0.05594854  0.88002474  0.24638670  1  0  0.114148  0  0.939641  0  0  0.125642  0  0.995395  0  0  0.129052  0  0.994628  0  0  0.110506  0.12318  0  0.996154  0
H  H8  1  0.35035553  0.63599015  0.62210962  1  0  0.087196  0  0.974385  0  0  0.089937  0  1.048951  0  0  0.092664  0  1.046227  0  0  0.111547  0.087885  0  1.050985  0
H  H9  1  0.14965091  0.36400862  0.12210972  1  0  0.087166  0  0.97443  0  0  0.089921  0  1.04897  0  0  0.092651  0  1.046244  0  0  0.111551  0.087869  0  1.051002  0
H  H10  1  0.64964749  0.13598750  0.87789303  1  0  0.087167  0  0.974364  0  0  0.089933  0  1.048911  0  0  0.092661  0  1.046187  0  0  0.11153  0.087883  0  1.050944  0
H  H11  1  0.85035191  0.86401034  0.37789271  1  0  0.087176  0  0.974397  0  0  0.089931  0  1.048939  0  0  0.09266  0  1.046217  0  0  0.111549  0.08788  0  1.050978  0
H  H12  1  0.80169468  0.48403342  0.70108339  1  0  0.068337  0  0.962492  0  0  0.073612  0  1.034679  0  0  0.076072  0  1.032515  0  0  0.107248  0.071834  0  1.036192  0
H  H13  1  0.69831051  0.51596786  0.20108155  1  0  0.06835  0  0.962452  0  0  0.073598  0  1.034674  0  0  0.076056  0  1.03251  0  0  0.107241  0.071822  0  1.036186  0
H  H14  1  0.19830460  0.98403198  0.79891476  1  0  0.068325  0  0.962484  0  0  0.073577  0  1.034711  0  0  0.076034  0  1.032547  0  0  0.107232  0.071799  0  1.036227  0
H  H15  1  0.30169088  0.01596664  0.29891565  1  0  0.068335  0  0.962437  0  0  0.073585  0  1.034664  0  0  0.076044  0  1.0325  0  0  0.107235  0.071807  0  1.03618  0
H  H16  1  0.98035182  0.46448085  0.83938901  1  0  0.117392  0  0.983193  0  0  0.12268  0  1.053103  0  0  0.126116  0  1.051637  0  0  0.107158  0.120112  0  1.054474  0
H  H17  1  0.51964944  0.53552230  0.33938662  1  0  0.117397  0  0.983235  0  0  0.122699  0  1.053118  0  0  0.126137  0  1.051649  0  0  0.107185  0.120133  0  1.054489  0
H  H18  1  0.01964230  0.96448153  0.66060977  1  0  0.117422  0  0.983165  0  0  0.122689  0  1.053109  0  0  0.126126  0  1.051641  0  0  0.107154  0.120122  0  1.054481  0
H  H19  1  0.48035365  0.03551853  0.16061117  1  0  0.117383  0  0.983208  0  0  0.122665  0  1.053131  0  0  0.126103  0  1.051662  0  0  0.107147  0.120098  0  1.054502  0
H  H20  1  0.20665607  0.44706764  0.95965990  1  0  0.261155  0  0.932779  0  0  0.246703  0  1.000599  0  0  0.252831  0  0.996554  0  0  0.276607  0.242278  0  1.003597  0
H  H21  1  0.29334403  0.55293152  0.45966043  1  0  0.261154  0  0.932841  0  0  0.246701  0  1.000658  0  0  0.252827  0  0.996619  0  0  0.276618  0.242276  0  1.003655  0
H  H22  1  0.79333979  0.94707161  0.54034010  1  0  0.261139  0  0.932777  0  0  0.246693  0  1.000595  0  0  0.252822  0  0.996552  0  0  0.27661  0.242268  0  1.003593  0
H  H23  1  0.70665733  0.05292848  0.04033979  1  0  0.26117  0  0.932789  0  0  0.246712  0  1.000623  0  0  0.252845  0  0.996579  0  0  0.276605  0.242286  0  1.003619  0
H  H24  1  0.59366004  0.53636010  0.87973206  1  0  0.074767  0  0.934008  0  0  0.088042  0  1.002782  0  0  0.088644  0  1.002656  0  0  0.103915  0.087558  0  1.002956  0
H  H25  1  0.90633936  0.46364235  0.37972895  1  0  0.074781  0  0.933998  0  0  0.088034  0  1.002758  0  0  0.088633  0  1.002631  0  0  0.103915  0.087557  0  1.002936  0
H  H26  1  0.40633271  0.03636166  0.62026944  1  0  0.074727  0  0.933958  0  0  0.088008  0  1.002741  0  0  0.088613  0  1.002617  0  0  0.103895  0.08752  0  1.002919  0
H  H27  1  0.09366510  0.96363910  0.12027037  1  0  0.074731  0  0.933997  0  0  0.088007  0  1.002756  0  0  0.088612  0  1.002628  0  0  0.103877  0.087524  0  1.002937  0
H  H28  1  0.35149512  0.57937943  0.93040585  1  0  0.101993  0  0.893702  0  0  0.123261  0  0.943085  0  0  0.124039  0  0.942806  0  0  0.120443  0.122669  0  0.943351  0
H  H29  1  0.14850163  0.42062041  0.43040349  1  0  0.102033  0  0.89371  0  0  0.123286  0  0.943076  0  0  0.124061  0  0.942796  0  0  0.120485  0.1227  0  0.943337  0
H  H30  1  0.64849587  0.07938297  0.56959501  1  0  0.102028  0  0.893629  0  0  0.123322  0  0.942984  0  0  0.124101  0  0.942704  0  0  0.120484  0.122728  0  0.943251  0
H  H31  1  0.85150287  0.92061710  0.06959586  1  0  0.101996  0  0.89369  0  0  0.123255  0  0.943064  0  0  0.124031  0  0.942786  0  0  0.120464  0.122669  0  0.943333  0
H  H32  1  0.25372290  0.36098020  0.83007007  1  0  0.077154  0  0.928105  0  0  0.088675  0  0.985698  0  0  0.090871  0  0.984439  0  0  0.111842  0.087116  0  0.986708  0
H  H33  1  0.24628282  0.63901972  0.33007116  1  0  0.077132  0  0.92813  0  0  0.088659  0  0.985727  0  0  0.090854  0  0.984469  0  0  0.111828  0.087101  0  0.986733  0
H  H34  1  0.74626613  0.86098474  0.66993060  1  0  0.077125  0  0.92818  0  0  0.088722  0  0.985695  0  0  0.090918  0  0.984438  0  0  0.111867  0.087168  0  0.986704  0
H  H35  1  0.75372364  0.13901591  0.16992960  1  0  0.077189  0  0.928074  0  0  0.088737  0  0.985659  0  0  0.090934  0  0.9844  0  0  0.111877  0.08718  0  0.986669  0
H  H36  1  0.62252838  0.28616058  0.81222709  1  0  0.062053  0  0.924622  0  0  0.077749  0  0.985809  0  0  0.078349  0  0.985162  0  0  0.105389  0.077231  0  0.986385  0
H  H37  1  0.87747815  0.71384061  0.31222686  1  0  0.062078  0  0.924481  0  0  0.077741  0  0.985747  0  0  0.07834  0  0.985099  0  0  0.105385  0.077226  0  0.986316  0
H  H38  1  0.37746417  0.78616383  0.68777060  1  0  0.062142  0  0.924635  0  0  0.077831  0  0.985828  0  0  0.07843  0  0.985181  0  0  0.105412  0.077317  0  0.986405  0
H  H39  1  0.12252652  0.21383687  0.18777143  1  0  0.062053  0  0.924656  0  0  0.077773  0  0.985814  0  0  0.078373  0  0.985165  0  0  0.105403  0.077258  0  0.986394  0
H  H40  1  0.65461151  0.40212351  0.80250448  1  0  0.0532  0  0.94049  0  0  0.06982  0  1.00472  0  0  0.069659  0  1.00509  0  0  0.101804  0.069875  0  1.004559  0
H  H41  1  0.84539506  0.59787768  0.30250312  1  0  0.053135  0  0.94052  0  0  0.069779  0  1.004756  0  0  0.069617  0  1.005126  0  0  0.101778  0.069833  0  1.004597  0
H  H42  1  0.34537749  0.90212676  0.69749556  1  0  0.053198  0  0.940554  0  0  0.06984  0  1.004765  0  0  0.069678  0  1.005133  0  0  0.101802  0.069893  0  1.004604  0
H  H43  1  0.15461489  0.09787459  0.19749706  1  0  0.053125  0  0.940526  0  0  0.069753  0  1.004757  0  0  0.069591  0  1.005126  0  0  0.101767  0.069804  0  1.004599  0
H  H44  1  0.80648760  0.29120915  0.93441774  1  0  0.369087  0  0.933322  0  0  0.343216  0  1.00308  0  0  0.354579  0  0.991513  0  0  0.288214  0.335196  0  1.011221  0
H  H45  1  0.69351679  0.70879062  0.43441698  1  0  0.369089  0  0.933285  0  0  0.343235  0  1.003006  0  0  0.354592  0  0.991455  0  0  0.288238  0.335213  0  1.011152  0
H  H46  1  0.19350667  0.79121187  0.56558177  1  0  0.369115  0  0.933302  0  0  0.343233  0  1.003085  0  0  0.354596  0  0.991515  0  0  0.288191  0.335206  0  1.011245  0
H  H47  1  0.30648961  0.20878761  0.06558252  1  0  0.369161  0  0.933272  0  0  0.343239  0  1.003115  0  0  0.354624  0  0.991513  0  0  0.288211  0.335202  0  1.011291  0
C  C48  1  0.38705581  0.58933358  0.74573907  1  0  -0.177116  0  3.709228  0  0  -0.193551  0  3.95407  0  0  -0.202849  0  3.975858  0  0  -0.085168  -0.187587  0  3.939471  0
C  C49  1  0.11295020  0.41066575  0.24573795  1  0  -0.177056  0  3.709147  0  0  -0.193466  0  3.954016  0  0  -0.202761  0  3.975804  0  0  -0.085117  -0.187502  0  3.939411  0
C  C50  1  0.61294208  0.08933434  0.75426239  1  0  -0.177084  0  3.709205  0  0  -0.193424  0  3.954077  0  0  -0.202722  0  3.975869  0  0  -0.08512  -0.187461  0  3.939479  0
C  C51  1  0.88705258  0.91066360  0.25426141  1  0  -0.177059  0  3.709281  0  0  -0.193466  0  3.954122  0  0  -0.202761  0  3.975916  0  0  -0.085146  -0.187505  0  3.939524  0
C  C52  1  0.28490740  0.54007388  0.80789257  1  0  0.133742  0  3.709162  0  0  0.151627  0  3.943187  0  0  0.156178  0  3.966209  0  0  0.012065  0.148823  0  3.927471  0
C  C53  1  0.21509495  0.45992738  0.30789076  1  0  0.133871  0  3.70911  0  0  0.151614  0  3.943272  0  0  0.156163  0  3.966291  0  0  0.012084  0.148816  0  3.927562  0
C  C54  1  0.71508535  0.04007467  0.69210833  1  0  0.13377  0  3.709167  0  0  0.151474  0  3.9434  0  0  0.156026  0  3.966424  0  0  0.012062  0.148669  0  3.927687  0
C  C55  1  0.78490606  0.95992331  0.19210797  1  0  0.133738  0  3.709264  0  0  0.151558  0  3.943335  0  0  0.156105  0  3.966363  0  0  0.012058  0.148762  0  3.927623  0
C  C56  1  0.27368083  0.59868525  0.67173167  1  0  0.144876  0  3.705214  0  0  0.110629  0  3.962086  0  0  0.11943  0  3.979177  0  0  0.044716  0.104922  0  3.950516  0
C  C57  1  0.22632371  0.40131480  0.17173050  1  0  0.144843  0  3.705312  0  0  0.110614  0  3.962146  0  0  0.119409  0  3.979239  0  0  0.044686  0.10491  0  3.950567  0
C  C58  1  0.72632049  0.09868395  0.82826918  1  0  0.144895  0  3.705016  0  0  0.110634  0  3.961876  0  0  0.119431  0  3.978967  0  0  0.04472  0.104923  0  3.950308  0
C  C59  1  0.77367735  0.90131459  0.32826947  1  0  0.144772  0  3.705278  0  0  0.110554  0  3.962091  0  0  0.119345  0  3.97919  0  0  0.044667  0.104839  0  3.950529  0
C  C60  1  0.96736247  0.51400321  0.71659498  1  0  0.122867  0  3.738976  0  0  0.094029  0  3.986947  0  0  0.101132  0  4.006563  0  0  0.043253  0.089492  0  3.973538  0
C  C61  1  0.53263748  0.48599872  0.21659262  1  0  0.122817  0  3.739039  0  0  0.094003  0  3.987014  0  0  0.101108  0  4.006627  0  0  0.043243  0.089465  0  3.973604  0
C  C62  1  0.03263547  0.01400204  0.78340411  1  0  0.122877  0  3.738979  0  0  0.09405  0  3.986978  0  0  0.101158  0  4.006587  0  0  0.043278  0.089512  0  3.973575  0
C  C63  1  0.46736351  0.98599726  0.28340487  1  0  0.12285  0  3.739012  0  0  0.094027  0  3.987014  0  0  0.101132  0  4.006625  0  0  0.043257  0.089487  0  3.973609  0
C  C64  1  0.06773338  0.50298677  0.79262585  1  0  -0.177814  0  3.708432  0  0  -0.195121  0  3.95317  0  0  -0.203623  0  3.97488  0  0  -0.091115  -0.189716  0  3.938763  0
C  C65  1  0.43226903  0.49701582  0.29262453  1  0  -0.177817  0  3.708466  0  0  -0.195093  0  3.95322  0  0  -0.203596  0  3.97493  0  0  -0.091115  -0.18969  0  3.938814  0
C  C66  1  0.93226286  0.00298687  0.70737324  1  0  -0.177868  0  3.708306  0  0  -0.195108  0  3.953104  0  0  -0.203611  0  3.974811  0  0  -0.091135  -0.189708  0  3.938707  0
C  C67  1  0.56773368  0.99701243  0.20737356  1  0  -0.17781  0  3.708441  0  0  -0.195102  0  3.953196  0  0  -0.203603  0  3.974904  0  0  -0.091119  -0.189701  0  3.93879  0
C  C68  1  0.40694435  0.52723548  0.88805237  1  0  -0.025057  0  3.673791  0  0  -0.087952  0  3.929902  0  0  -0.084283  0  3.940684  0  0  -0.064098  -0.090386  0  3.922302  0
C  C69  1  0.09305599  0.47276505  0.38804999  1  0  -0.025173  0  3.673842  0  0  -0.087952  0  3.929881  0  0  -0.08427  0  3.940641  0  0  -0.064146  -0.090412  0  3.922316  0
C  C70  1  0.59305013  0.02723965  0.61194914  1  0  -0.025101  0  3.673583  0  0  -0.08794  0  3.9297  0  0  -0.084278  0  3.94049  0  0  -0.064163  -0.090375  0  3.922103  0
C  C71  1  0.90695018  0.97276104  0.11194872  1  0  -0.025047  0  3.673619  0  0  -0.087859  0  3.929642  0  0  -0.08419  0  3.940418  0  0  -0.064104  -0.090327  0  3.922089  0
C  C72  1  0.37564261  0.36158527  0.88136718  1  0  -0.042294  0  3.65011  0  0  -0.064752  0  3.89894  0  0  -0.066977  0  3.911185  0  0  -0.013186  -0.063327  0  3.890526  0
C  C73  1  0.12436293  0.63841527  0.38136772  1  0  -0.042259  0  3.650003  0  0  -0.064745  0  3.898892  0  0  -0.066972  0  3.91114  0  0  -0.013179  -0.06332  0  3.890473  0
C  C74  1  0.62435159  0.86158722  0.61863106  1  0  -0.042371  0  3.65013  0  0  -0.064888  0  3.899042  0  0  -0.067115  0  3.911288  0  0  -0.013233  -0.063461  0  3.890628  0
C  C75  1  0.87564180  0.13841214  0.11863183  1  0  -0.042438  0  3.650058  0  0  -0.064974  0  3.899019  0  0  -0.067202  0  3.911268  0  0  -0.01326  -0.063541  0  3.890592  0
C  C76  1  0.61858193  0.34880960  0.84596380  1  0  0.113366  0  3.631927  0  0  0.051109  0  3.900182  0  0  0.059118  0  3.906054  0  0  -0.073309  0.045701  0  3.895995  0
C  C77  1  0.88142103  0.65119091  0.34596361  1  0  0.113475  0  3.631679  0  0  0.051151  0  3.900105  0  0  0.059162  0  3.905975  0  0  -0.073283  0.045741  0  3.895917  0
C  C78  1  0.38141056  0.84881353  0.65403506  1  0  0.113289  0  3.632088  0  0  0.051001  0  3.900412  0  0  0.059012  0  3.906285  0  0  -0.07334  0.045595  0  3.896222  0
C  C79  1  0.11858369  0.15118719  0.15403593  1  0  0.113509  0  3.631875  0  0  0.051258  0  3.900136  0  0  0.05927  0  3.90601  0  0  -0.073259  0.045848  0  3.895946  0
C  C80  1  0.31685591  0.28187603  0.93499930  1  0  0.660244  0  3.839214  0  0  0.604532  0  4.147092  0  0  0.638982  0  4.139356  0  0  0.208941  0.581079  0  4.151722  0
C  C81  1  0.18314255  0.71812314  0.43500037  1  0  0.660182  0  3.839345  0  0  0.604519  0  4.147154  0  0  0.638968  0  4.139419  0  0  0.208944  0.581066  0  4.151783  0
C  C82  1  0.68314871  0.78187737  0.56500264  1  0  0.660411  0  3.839181  0  0  0.604673  0  4.147119  0  0  0.639122  0  4.139384  0  0  0.208985  0.58122  0  4.151755  0
C  C83  1  0.81685349  0.21812271  0.06500156  1  0  0.66037  0  3.839252  0  0  0.604649  0  4.147167  0  0  0.639099  0  4.139423  0  0  0.208921  0.581194  0  4.151804  0
N  N84  1  0.06775601  0.56120288  0.65710474  1  0  -0.324768  0  3.272638  0  0  -0.244042  0  3.534049  0  0  -0.264707  0  3.552472  0  0  -0.33419  -0.230036  0  3.521207  0
N  N85  1  0.43225031  0.43879719  0.15710468  1  0  -0.324765  0  3.272828  0  0  -0.244068  0  3.534246  0  0  -0.26473  0  3.55267  0  0  -0.334218  -0.23006  0  3.5214  0
N  N86  1  0.93224708  0.06120022  0.84289492  1  0  -0.324774  0  3.272556  0  0  -0.244072  0  3.53401  0  0  -0.264734  0  3.552427  0  0  -0.334219  -0.230068  0  3.521172  0
N  N87  1  0.56775072  0.93879765  0.34289406  1  0  -0.324685  0  3.272751  0  0  -0.243983  0  3.534163  0  0  -0.264644  0  3.552588  0  0  -0.334162  -0.229981  0  3.521328  0
N  N88  1  0.36270126  0.44305037  0.92994839  1  0  -0.421505  0  3.264488  0  0  -0.347806  0  3.509337  0  0  -0.366738  0  3.521312  0  0  -0.481854  -0.334482  0  3.500674  0
N  N89  1  0.13730239  0.55694881  0.42994837  1  0  -0.421505  0  3.264557  0  0  -0.347794  0  3.509355  0  0  -0.36673  0  3.521329  0  0  -0.481849  -0.334462  0  3.500698  0
N  N90  1  0.63729288  0.94305567  0.57005040  1  0  -0.421421  0  3.264287  0  0  -0.347745  0  3.509181  0  0  -0.366677  0  3.521154  0  0  -0.481797  -0.334422  0  3.500519  0
N  N91  1  0.86270413  0.05694440  0.07005063  1  0  -0.421487  0  3.264411  0  0  -0.347805  0  3.509276  0  0  -0.366742  0  3.521249  0  0  -0.481822  -0.334472  0  3.500624  0
Cl  Cl92  1  0.92758438  0.53161071  0.03491203  1  0  -0.623448  0  0.758801  0  0  -0.566519  0  0.976258  0  0  -0.583324  0  0.956298  0  0  -0.373311  -0.554428  0  0.989921  0
Cl  Cl93  1  0.57241620  0.46838807  0.53491155  1  0  -0.623449  0  0.758763  0  0  -0.566526  0  0.976219  0  0  -0.583331  0  0.956259  0  0  -0.373314  -0.554435  0  0.989882  0
Cl  Cl94  1  0.07240837  0.03161268  0.46508820  1  0  -0.623448  0  0.758804  0  0  -0.56652  0  0.976256  0  0  -0.583324  0  0.956296  0  0  -0.373315  -0.554434  0  0.98992  0
Cl  Cl95  1  0.42758482  0.96838647  0.96508905  1  0  -0.623444  0  0.75882  0  0  -0.56651  0  0.976278  0  0  -0.583316  0  0.956316  0  0  -0.373297  -0.554425  0  0.989941  0
O  O96  1  0.31946713  0.29395658  0.01169158  1  0  -0.627818  0  2.062365  0  0  -0.557185  0  2.293619  0  0  -0.585323  0  2.285876  0  0  -0.309896  -0.53764  0  2.298508  0
O  O97  1  0.18053796  0.70604228  0.51169149  1  0  -0.627777  0  2.062512  0  0  -0.557172  0  2.293731  0  0  -0.585299  0  2.285994  0  0  -0.309883  -0.537631  0  2.298613  0
O  O98  1  0.68053747  0.79396021  0.48830908  1  0  -0.627802  0  2.062331  0  0  -0.557228  0  2.293635  0  0  -0.585353  0  2.285903  0  0  -0.309907  -0.53768  0  2.298512  0
O  O99  1  0.81946500  0.20603886  0.98830989  1  0  -0.627819  0  2.062399  0  0  -0.55722  0  2.293662  0  0  -0.585344  0  2.285924  0  0  -0.309862  -0.537678  0  2.298541  0
O  O100  1  0.79319280  0.35131903  0.90696098  1  0  -0.564312  0  2.115489  0  0  -0.499056  0  2.35632  0  0  -0.519364  0  2.344459  0  0  -0.408706  -0.484452  0  2.363932  0
O  O101  1  0.70680996  0.64868076  0.40696026  1  0  -0.564356  0  2.115444  0  0  -0.499069  0  2.356301  0  0  -0.519378  0  2.344439  0  0  -0.408731  -0.484476  0  2.363938  0
O  O102  1  0.20679969  0.85132502  0.59303727  1  0  -0.564351  0  2.115528  0  0  -0.499081  0  2.356363  0  0  -0.519391  0  2.344503  0  0  -0.408675  -0.484481  0  2.363994  0
O  O103  1  0.29319649  0.14867575  0.09303868  1  0  -0.564404  0  2.115494  0  0  -0.499134  0  2.356364  0  0  -0.519463  0  2.344465  0  0  -0.408713  -0.484527  0  2.364016  0
O  O104  1  0.27897922  0.20974870  0.89872837  1  0  -0.619583  0  1.99937  0  0  -0.560398  0  2.2581  0  0  -0.587897  0  2.246814  0  0  -0.32633  -0.541138  0  2.265129  0
O  O105  1  0.22102110  0.79025117  0.39872937  1  0  -0.619592  0  1.999382  0  0  -0.560388  0  2.258053  0  0  -0.587882  0  2.246756  0  0  -0.326336  -0.541124  0  2.265078  0
O  O106  1  0.72101857  0.70975065  0.60127301  1  0  -0.619665  0  1.999453  0  0  -0.560424  0  2.258168  0  0  -0.587917  0  2.246866  0  0  -0.326307  -0.541166  0  2.265211  0
O  O107  1  0.77898868  0.29024939  0.10127251  1  0  -0.619607  0  1.999456  0  0  -0.560369  0  2.258137  0  0  -0.587875  0  2.246864  0  0  -0.326288  -0.541124  0  2.265205  0
