# generated using pymatgen
data_KSrSmH6C16N2O13
_symmetry_space_group_name_H-M   'P 1'
_cell_length_a   8.08849949
_cell_length_b   10.86649657
_cell_length_c   12.11920787
_cell_angle_alpha   75.66984646
_cell_angle_beta   71.12261575
_cell_angle_gamma   74.72696603
_symmetry_Int_Tables_number   1
_chemical_formula_structural   KSrSmH6C16N2O13
_chemical_formula_sum   'K2 Sr2 Sm2 H12 C32 N4 O26'
_cell_volume   956.82026162
_cell_formula_units_Z   2
loop_
 _symmetry_equiv_pos_site_id
 _symmetry_equiv_pos_as_xyz
  1  'x, y, z'
loop_
 _atom_site_type_symbol
 _atom_site_label
 _atom_site_symmetry_multiplicity
 _atom_site_fract_x
 _atom_site_fract_y
 _atom_site_fract_z
 _atom_site_occupancy
 _atom_site_hle17_bader_spin_density
 _atom_site_hle17_ddec_charge
 _atom_site_hle17_ddec_spin_density
 _atom_site_hle17_ddec_sum_bond_order
 _atom_site_hle17_magmom
 _atom_site_hse06_10hf_bader_spin_density
 _atom_site_hse06_10hf_ddec_charge
 _atom_site_hse06_10hf_ddec_spin_density
 _atom_site_hse06_10hf_ddec_sum_bond_order
 _atom_site_hse06_10hf_magmom
 _atom_site_hse06_bader_spin_density
 _atom_site_hse06_ddec_charge
 _atom_site_hse06_ddec_spin_density
 _atom_site_hse06_ddec_sum_bond_order
 _atom_site_hse06_magmom
 _atom_site_pbe_bader_spin_density
 _atom_site_pbe_cm5_charge
 _atom_site_pbe_ddec_charge
 _atom_site_pbe_ddec_spin_density
 _atom_site_pbe_ddec_sum_bond_order
 _atom_site_pbe_magmom
K  K0  1  0.27184203  0.08782724  0.40458376  1  0  0.938243  0  0.416227  0  0  0.891035  0  0.586156  0  0  0.906933  0  0.563929  0  0  0.755757  0.878827  0  0.602387  0
K  K1  1  0.72815600  0.91217420  0.59541503  1  0  0.938242  0  0.416227  0  0  0.89104  0  0.586151  0  0  0.906938  0  0.563924  0  0  0.755757  0.878829  0  0.602383  0
Sr  Sr2  1  0.91946165  0.60277366  0.84889705  1  0  1.676297  0  1.054861  0  0  1.538668  0  1.431301  0  0  1.576996  0  1.382479  0  0  0.959714  1.51034  0  1.46582  0
Sr  Sr3  1  0.08053692  0.39722583  0.15110287  1  0  1.676292  0  1.054866  0  0  1.538668  0  1.431302  0  0  1.576982  0  1.382504  0  0  0.959705  1.510348  0  1.46581  0
Sm  Sm4  1  0.18302046  0.75736729  0.28259206  1  0  2.216148  0  1.746363  0  0  2.033501  0  2.249247  0  0  2.082003  0  2.203517  0  0  1.532048  1.99708  0  2.283827  0
Sm  Sm5  1  0.81698045  0.24263317  0.71740797  1  0  2.216124  0  1.746382  0  0  2.03347  0  2.249276  0  0  2.081977  0  2.203543  0  0  1.532039  1.997053  0  2.283855  0
H  H6  1  0.55021077  0.62917713  0.04623523  1  0  0.436296  0  0.864044  0  0  0.404564  0  0.928628  0  0  0.416145  0  0.911621  0  0  0.298365  0.396312  0  0.940738  0
H  H7  1  0.44979014  0.37082334  0.95376398  1  0  0.436275  0  0.864074  0  0  0.404539  0  0.928665  0  0  0.41612  0  0.911657  0  0  0.298357  0.396287  0  0.940776  0
H  H8  1  0.49463080  0.58460461  0.95015191  1  0  0.422435  0  0.845959  0  0  0.401993  0  0.906457  0  0  0.410458  0  0.894393  0  0  0.318301  0.395902  0  0.913687  0
H  H9  1  0.50537095  0.41538809  0.04985046  1  0  0.422442  0  0.845952  0  0  0.402001  0  0.906447  0  0  0.410466  0  0.894383  0  0  0.318261  0.395911  0  0.913674  0
H  H10  1  0.16627111  0.45398457  0.61256131  1  0  0.128846  0  0.940529  0  0  0.134002  0  1.007847  0  0  0.139165  0  1.003476  0  0  0.131273  0.130153  0  1.01123  0
H  H11  1  0.83372746  0.54601493  0.38743862  1  0  0.128835  0  0.940567  0  0  0.134002  0  1.007868  0  0  0.139164  0  1.003498  0  0  0.131276  0.130153  0  1.011253  0
H  H12  1  0.58057956  0.30910369  0.31858058  1  0  0.12357  0  0.932354  0  0  0.132701  0  0.994295  0  0  0.137027  0  0.99118  0  0  0.126142  0.129516  0  0.996759  0
H  H13  1  0.41942158  0.69090065  0.68141856  1  0  0.123631  0  0.932263  0  0  0.132754  0  0.994213  0  0  0.13708  0  0.991096  0  0  0.126163  0.129569  0  0.996675  0
H  H14  1  0.71364478  0.84356345  0.10271205  1  0  0.129871  0  0.933495  0  0  0.138115  0  0.995446  0  0  0.142312  0  0.993122  0  0  0.122981  0.134987  0  0.997393  0
H  H15  1  0.28635771  0.15643604  0.89728786  1  0  0.129881  0  0.933491  0  0  0.138118  0  0.995446  0  0  0.142313  0  0.993126  0  0  0.122988  0.13499  0  0.997393  0
H  H16  1  0.81804790  0.17568602  0.18833765  1  0  0.128198  0  0.957465  0  0  0.133744  0  1.025743  0  0  0.13869  0  1.022179  0  0  0.12355  0.130127  0  1.028492  0
H  H17  1  0.18195197  0.82431347  0.81166282  1  0  0.128197  0  0.957479  0  0  0.133743  0  1.025754  0  0  0.138689  0  1.022189  0  0  0.123555  0.130125  0  1.028502  0
C  C18  1  0.22744220  0.43480359  0.38310392  1  0  0.706348  0  3.893762  0  0  0.656047  0  4.189212  0  0  0.691008  0  4.1773  0  0  0.238445  0.632225  0  4.196491  0
C  C19  1  0.77255637  0.56519591  0.61689601  1  0  0.706409  0  3.893608  0  0  0.656022  0  4.189204  0  0  0.690982  0  4.177292  0  0  0.238446  0.632208  0  4.196467  0
C  C20  1  0.35600826  0.38479144  0.45754918  1  0  -0.005114  0  3.692848  0  0  0.012373  0  3.936625  0  0  0.010482  0  3.952596  0  0  0.017526  0.013367  0  3.926031  0
C  C21  1  0.64399108  0.61520999  0.54245016  1  0  -0.005126  0  3.692776  0  0  0.012403  0  3.936561  0  0  0.010512  0  3.952532  0  0  0.017544  0.013394  0  3.925963  0
C  C22  1  0.30160888  0.40472561  0.57459098  1  0  -0.075736  0  3.619934  0  0  -0.111989  0  3.874297  0  0  -0.112178  0  3.889342  0  0  -0.044823  -0.111715  0  3.864446  0
C  C23  1  0.69839099  0.59527389  0.42540867  1  0  -0.07573  0  3.619954  0  0  -0.111996  0  3.87431  0  0  -0.11218  0  3.889345  0  0  -0.044837  -0.111723  0  3.864459  0
C  C24  1  0.42371206  0.35993950  0.64125781  1  0  0.109037  0  3.755962  0  0  0.112949  0  4.004939  0  0  0.112792  0  4.023342  0  0  0.122279  0.11267  0  3.992853  0
C  C25  1  0.57628886  0.64006097  0.35874140  1  0  0.108972  0  3.755983  0  0  0.112899  0  4.004954  0  0  0.112741  0  4.023357  0  0  0.12225  0.112618  0  3.992867  0
C  C26  1  0.64670038  0.28483103  0.48231155  1  0  0.114072  0  3.754352  0  0  0.118806  0  4.002435  0  0  0.119564  0  4.019306  0  0  0.126836  0.117923  0  3.991337  0
C  C27  1  0.35329792  0.71516944  0.51768739  1  0  0.114117  0  3.754351  0  0  0.118796  0  4.002528  0  0  0.119556  0  4.019397  0  0  0.126841  0.117912  0  3.991429  0
C  C28  1  0.53156185  0.32338852  0.41033825  1  0  -0.108446  0  3.655101  0  0  -0.144926  0  3.908294  0  0  -0.145899  0  3.924139  0  0  -0.053324  -0.144185  0  3.897956  0
C  C29  1  0.46843695  0.67661486  0.58965995  1  0  -0.108505  0  3.655022  0  0  -0.144984  0  3.908272  0  0  -0.145958  0  3.924113  0  0  -0.053347  -0.144244  0  3.897932  0
C  C30  1  0.84333987  0.22938699  0.43787564  1  0  0.646538  0  3.937837  0  0  0.599029  0  4.235216  0  0  0.632692  0  4.224949  0  0  0.220161  0.576179  0  4.241653  0
C  C31  1  0.15665919  0.77061542  0.56212272  1  0  0.646586  0  3.937801  0  0  0.599073  0  4.235225  0  0  0.632735  0  4.224957  0  0  0.220175  0.576224  0  4.241659  0
C  C32  1  0.37967621  0.38291529  0.76629385  1  0  0.647691  0  3.906104  0  0  0.598583  0  4.20336  0  0  0.631312  0  4.194885  0  0  0.231425  0.576374  0  4.208447  0
C  C33  1  0.62032235  0.61708420  0.23370690  1  0  0.647775  0  3.906106  0  0  0.598652  0  4.203384  0  0  0.631382  0  4.194908  0  0  0.231467  0.576445  0  4.20847  0
C  C34  1  0.75047209  0.93512047  0.28963506  1  0  0.703698  0  3.91061  0  0  0.659083  0  4.203045  0  0  0.692534  0  4.192491  0  0  0.227515  0.636214  0  4.209472  0
C  C35  1  0.24952832  0.06487709  0.71036572  1  0  0.703681  0  3.910698  0  0  0.659048  0  4.203155  0  0  0.692505  0  4.19259  0  0  0.227496  0.636187  0  4.209571  0
C  C36  1  0.75758267  0.00243175  0.16376203  1  0  0.016723  0  3.663674  0  0  0.033972  0  3.905393  0  0  0.034456  0  3.920584  0  0  0.023996  0.033291  0  3.895414  0
C  C37  1  0.24241720  0.99756774  0.83623844  1  0  0.016717  0  3.663762  0  0  0.033991  0  3.905441  0  0  0.034474  0  3.920631  0  0  0.024009  0.033308  0  3.89546  0
C  C38  1  0.73757663  0.94194871  0.08053420  1  0  -0.095497  0  3.603265  0  0  -0.130585  0  3.853088  0  0  -0.132901  0  3.869213  0  0  -0.055469  -0.129014  0  3.842711  0
C  C39  1  0.26242481  0.05804982  0.91946614  1  0  -0.095516  0  3.603287  0  0  -0.130581  0  3.853099  0  0  -0.132898  0  3.869225  0  0  -0.055452  -0.129005  0  3.84273  0
C  C40  1  0.75255971  0.00952187  0.96481226  1  0  0.117513  0  3.739929  0  0  0.123821  0  3.985274  0  0  0.125129  0  4.002816  0  0  0.123396  0.12265  0  3.973742  0
C  C41  1  0.24744120  0.99047859  0.03518861  1  0  0.117556  0  3.739874  0  0  0.123821  0  3.985291  0  0  0.125128  0  4.002837  0  0  0.123364  0.122627  0  3.973791  0
C  C42  1  0.81149382  0.18641813  0.00941669  1  0  0.119881  0  3.760255  0  0  0.125314  0  4.006613  0  0  0.126801  0  4.023287  0  0  0.124244  0.124012  0  3.995568  0
C  C43  1  0.18850578  0.81358232  0.99058445  1  0  0.119897  0  3.760219  0  0  0.125288  0  4.006625  0  0  0.126777  0  4.023301  0  0  0.124209  0.123988  0  3.995577  0
C  C44  1  0.79551270  0.12722796  0.12721529  1  0  -0.11578  0  3.629008  0  0  -0.148899  0  3.876174  0  0  -0.151408  0  3.891675  0  0  -0.056731  -0.147187  0  3.866105  0
C  C45  1  0.20448559  0.87277250  0.87278448  1  0  -0.11578  0  3.628977  0  0  -0.14889  0  3.876149  0  0  -0.1514  0  3.891651  0  0  -0.056734  -0.147177  0  3.866079  0
C  C46  1  0.74576019  0.95189047  0.86482457  1  0  0.65908  0  3.927052  0  0  0.609675  0  4.227306  0  0  0.642232  0  4.218641  0  0  0.223312  0.587674  0  4.232383  0
C  C47  1  0.25424072  0.04811000  0.13517464  1  0  0.659207  0  3.927088  0  0  0.609786  0  4.227396  0  0  0.642341  0  4.218735  0  0  0.223366  0.587793  0  4.232475  0
C  C48  1  0.86422800  0.31623674  0.95780733  1  0  0.647915  0  3.932776  0  0  0.597629  0  4.227731  0  0  0.631124  0  4.21808  0  0  0.227434  0.574902  0  4.233648  0
C  C49  1  0.13577187  0.68376276  0.04219314  1  0  0.647889  0  3.932852  0  0  0.597618  0  4.227798  0  0  0.631113  0  4.21815  0  0  0.227433  0.574891  0  4.233714  0
N  N50  1  0.59191829  0.30028865  0.59591192  1  0  -0.439038  0  3.319545  0  0  -0.393606  0  3.574433  0  0  -0.40418  0  3.59291  0  0  -0.383482  -0.386196  0  3.562262  0
N  N51  1  0.40808131  0.69971182  0.40408675  1  0  -0.439075  0  3.319518  0  0  -0.393627  0  3.574428  0  0  -0.404202  0  3.592906  0  0  -0.383496  -0.386217  0  3.562256  0
N  N52  1  0.78656782  0.12958690  0.93118789  1  0  -0.437393  0  3.323128  0  0  -0.391741  0  3.576112  0  0  -0.402649  0  3.593822  0  0  -0.391576  -0.384234  0  3.564447  0
N  N53  1  0.21343179  0.87041356  0.06881242  1  0  -0.437465  0  3.323178  0  0  -0.391782  0  3.576188  0  0  -0.402692  0  3.5939  0  0  -0.391566  -0.384268  0  3.56453  0
O  O54  1  0.13979492  0.55043185  0.38860879  1  0  -0.727039  0  2.021757  0  0  -0.672272  0  2.283424  0  0  -0.698468  0  2.272005  0  0  -0.400472  -0.653346  0  2.290547  0
O  O55  1  0.86020261  0.44956666  0.61139322  1  0  -0.727094  0  2.021721  0  0  -0.672306  0  2.283447  0  0  -0.698502  0  2.272027  0  0  -0.400507  -0.653385  0  2.290566  0
O  O56  1  0.21658072  0.36019285  0.32222119  1  0  -0.698392  0  1.963646  0  0  -0.644348  0  2.204009  0  0  -0.669656  0  2.192287  0  0  -0.389655  -0.626277  0  2.211623  0
O  O57  1  0.78341784  0.63980664  0.67777873  1  0  -0.698374  0  1.963596  0  0  -0.644294  0  2.203994  0  0  -0.669607  0  2.192282  0  0  -0.389627  -0.626224  0  2.211602  0
O  O58  1  0.91312010  0.23844162  0.32774801  1  0  -0.669004  0  1.951637  0  0  -0.619448  0  2.192017  0  0  -0.643767  0  2.181492  0  0  -0.348173  -0.602405  0  2.198938  0
O  O59  1  0.08687766  0.76156079  0.67225063  1  0  -0.66902  0  1.951661  0  0  -0.619443  0  2.192017  0  0  -0.643763  0  2.181493  0  0  -0.348164  -0.602399  0  2.198936  0
O  O60  1  0.92418768  0.17869353  0.51856864  1  0  -0.76052  0  2.018997  0  0  -0.710722  0  2.269884  0  0  -0.733792  0  2.257385  0  0  -0.439985  -0.694356  0  2.278073  0
O  O61  1  0.07581139  0.82130887  0.48143054  1  0  -0.760547  0  2.018961  0  0  -0.710748  0  2.269864  0  0  -0.733814  0  2.257362  0  0  -0.439992  -0.694382  0  2.27805  0
O  O62  1  0.50830144  0.33771584  0.81601207  1  0  -0.728125  0  2.035507  0  0  -0.668749  0  2.27932  0  0  -0.694717  0  2.268494  0  0  -0.372947  -0.650309  0  2.286277  0
O  O63  1  0.49169740  0.66228268  0.18398801  1  0  -0.728143  0  2.03546  0  0  -0.668771  0  2.279292  0  0  -0.694739  0  2.268466  0  0  -0.372964  -0.650332  0  2.286248  0
O  O64  1  0.22845437  0.44365805  0.81228940  1  0  -0.631825  0  1.96733  0  0  -0.581554  0  2.208559  0  0  -0.604932  0  2.199368  0  0  -0.321026  -0.565234  0  2.214579  0
O  O65  1  0.77154550  0.55634145  0.18771107  1  0  -0.631864  0  1.967379  0  0  -0.581595  0  2.208627  0  0  -0.604972  0  2.199437  0  0  -0.321041  -0.565275  0  2.214646  0
O  O66  1  0.59553484  0.60101833  0.96723095  1  0  -0.883192  0  1.818324  0  0  -0.829982  0  2.003859  0  0  -0.849072  0  1.973172  0  0  -0.627275  -0.816198  0  2.023942  0
O  O67  1  0.40446423  0.39898408  0.03276658  1  0  -0.883171  0  1.818345  0  0  -0.82996  0  2.003875  0  0  -0.84905  0  1.973188  0  0  -0.627218  -0.816175  0  2.02396  0
O  O68  1  0.62272284  0.97470238  0.37217540  1  0  -0.665641  0  1.890837  0  0  -0.625564  0  2.113423  0  0  -0.649892  0  2.10555  0  0  -0.403539  -0.607932  0  2.118289  0
O  O69  1  0.37727573  0.02529711  0.62782453  1  0  -0.665642  0  1.890908  0  0  -0.625561  0  2.1135  0  0  -0.649889  0  2.105623  0  0  -0.403539  -0.607931  0  2.118364  0
O  O70  1  0.88265401  0.84228453  0.30135191  1  0  -0.762016  0  2.019593  0  0  -0.706691  0  2.282513  0  0  -0.734479  0  2.271997  0  0  -0.423772  -0.686381  0  2.288713  0
O  O71  1  0.11734586  0.15771496  0.69864856  1  0  -0.76199  0  2.019583  0  0  -0.706662  0  2.282513  0  0  -0.734453  0  2.271993  0  0  -0.423747  -0.686356  0  2.288711  0
O  O72  1  0.74925155  0.83306308  0.88158772  1  0  -0.652228  0  1.960736  0  0  -0.60237  0  2.201892  0  0  -0.625651  0  2.191458  0  0  -0.345943  -0.586247  0  2.208889  0
O  O73  1  0.25074963  0.16693642  0.11841164  1  0  -0.652275  0  1.960702  0  0  -0.602404  0  2.201863  0  0  -0.625682  0  2.191431  0  0  -0.345936  -0.586282  0  2.208859  0
O  O74  1  0.74136233  0.03223383  0.76731428  1  0  -0.778715  0  2.024189  0  0  -0.73037  0  2.286452  0  0  -0.754868  0  2.275234  0  0  -0.459527  -0.712908  0  2.293519  0
O  O75  1  0.25863727  0.96776664  0.23268521  1  0  -0.778783  0  2.0243  0  0  -0.730415  0  2.286555  0  0  -0.754911  0  2.275339  0  0  -0.459562  -0.712952  0  2.29362  0
O  O76  1  0.85752650  0.36440051  0.85138609  1  0  -0.74485  0  2.066423  0  0  -0.689757  0  2.324796  0  0  -0.714236  0  2.31394  0  0  -0.387163  -0.672338  0  2.331346  0
O  O77  1  0.14247206  0.63559898  0.14861384  1  0  -0.744849  0  2.066474  0  0  -0.689767  0  2.324854  0  0  -0.714238  0  2.313984  0  0  -0.387175  -0.672348  0  2.331403  0
O  O78  1  0.91068417  0.37121738  0.01990016  1  0  -0.709821  0  2.029489  0  0  -0.651999  0  2.282534  0  0  -0.677078  0  2.270836  0  0  -0.369812  -0.634236  0  2.29011  0
O  O79  1  0.08931544  0.62878308  0.98010016  1  0  -0.709803  0  2.029495  0  0  -0.651977  0  2.282522  0  0  -0.677057  0  2.270824  0  0  -0.369802  -0.634214  0  2.290098  0
