# generated using pymatgen
data_CdH20C32(NO)4
_symmetry_space_group_name_H-M   'P 1'
_cell_length_a   10.92862437
_cell_length_b   10.92864614
_cell_length_c   23.78121997
_cell_angle_alpha   83.47078492
_cell_angle_beta   83.47047030
_cell_angle_gamma   82.59444862
_symmetry_Int_Tables_number   1
_chemical_formula_structural   CdH20C32(NO)4
_chemical_formula_sum   'Cd4 H80 C128 N16 O16'
_cell_volume   2784.17066376
_cell_formula_units_Z   4
loop_
 _symmetry_equiv_pos_site_id
 _symmetry_equiv_pos_as_xyz
  1  'x, y, z'
loop_
 _atom_site_type_symbol
 _atom_site_label
 _atom_site_symmetry_multiplicity
 _atom_site_fract_x
 _atom_site_fract_y
 _atom_site_fract_z
 _atom_site_occupancy
 _atom_site_pbe_bader_charge
 _atom_site_pbe_bader_spin_density
 _atom_site_pbe_cm5_charge
 _atom_site_pbe_ddec_charge
 _atom_site_pbe_ddec_spin_density
 _atom_site_pbe_ddec_sum_bond_order
 _atom_site_pbe_magmom
Cd  Cd0  1  0.87601973  0.41583575  0.97516623  1  1.272887  0  0.778136  0.879023  0  2.192934  0
Cd  Cd1  1  0.58416464  0.12397990  0.52483623  1  1.272993  0  0.778118  0.879067  0  2.192863  0
Cd  Cd2  1  0.12397625  0.58416459  0.02483473  1  1.27296  0  0.778108  0.879041  0  2.192917  0
Cd  Cd3  1  0.41583878  0.87602049  0.47516601  1  1.272946  0  0.778121  0.879075  0  2.192854  0
H  H4  1  0.83384243  0.31782462  0.10805408  1  0.095899  0  0.118991  0.090918  0  0.98458  0
H  H5  1  0.68218507  0.16615145  0.39194572  1  0.096019  0  0.118982  0.090848  0  0.984571  0
H  H6  1  0.16615075  0.68217512  0.89194539  1  0.095849  0  0.11901  0.090958  0  0.984494  0
H  H7  1  0.31782110  0.83384673  0.60805396  1  0.096055  0  0.11902  0.090939  0  0.984512  0
H  H8  1  0.66405824  0.31127345  0.18852578  1  0.121207  0  0.112214  0.120728  0  1.000582  0
H  H9  1  0.68874325  0.33593649  0.31147505  1  0.121035  0  0.112239  0.120746  0  1.000541  0
H  H10  1  0.33593587  0.68872802  0.81147396  1  0.12114  0  0.112201  0.120737  0  1.000555  0
H  H11  1  0.31126108  0.66406377  0.68852588  1  0.121032  0  0.112206  0.120706  0  1.00059  0
H  H12  1  0.43539326  0.57188307  0.08226317  1  0.138166  0  0.111177  0.136457  0  1.043826  0
H  H13  1  0.42812802  0.56460128  0.41773477  1  0.139301  0  0.111201  0.136512  0  1.043862  0
H  H14  1  0.56460366  0.42812544  0.91773687  1  0.138317  0  0.111199  0.136526  0  1.043888  0
H  H15  1  0.57187445  0.43539552  0.58226645  1  0.139247  0  0.111185  0.13651  0  1.04392  0
H  H16  1  0.61369541  0.56844207  0.00765321  1  0.11821  0  0.115014  0.086323  0  1.023442  0
H  H17  1  0.43156087  0.38630000  0.49234534  1  0.118228  0  0.114953  0.086231  0  1.023516  0
H  H18  1  0.38630244  0.43156542  0.99234768  1  0.118324  0  0.115001  0.086285  0  1.023479  0
H  H19  1  0.56844439  0.61369556  0.50765664  1  0.118045  0  0.114956  0.086278  0  1.023526  0
H  H20  1  0.33557561  0.61457689  0.15748601  1  0.113698  0  0.111256  0.130787  0  1.041307  0
H  H21  1  0.38542654  0.66441142  0.34251588  1  0.113695  0  0.111234  0.130818  0  1.041201  0
H  H22  1  0.66442227  0.38542971  0.84251829  1  0.113733  0  0.111244  0.130687  0  1.041323  0
H  H23  1  0.61457217  0.33558395  0.65748226  1  0.113655  0  0.111228  0.130751  0  1.041278  0
H  H24  1  0.17810801  0.42764781  0.31280092  1  0.04992  0  0.105938  0.111683  0  1.040358  0
H  H25  1  0.57235029  0.82189079  0.18720226  1  0.050038  0  0.105944  0.111665  0  1.040468  0
H  H26  1  0.82188515  0.57234457  0.68719937  1  0.049964  0  0.105946  0.111676  0  1.040457  0
H  H27  1  0.42765405  0.17811224  0.81279894  1  0.050032  0  0.105922  0.111659  0  1.040486  0
H  H28  1  0.51373005  0.13064575  0.26996001  1  0.105026  0  0.111564  0.118926  0  1.004232  0
H  H29  1  0.86935024  0.48627626  0.23003959  1  0.105103  0  0.111567  0.11895  0  1.004254  0
H  H30  1  0.48626402  0.86934373  0.73003912  1  0.104999  0  0.111581  0.118935  0  1.004252  0
H  H31  1  0.13065039  0.51372537  0.76996230  1  0.105107  0  0.111573  0.11895  0  1.004239  0
H  H32  1  0.52840797  0.95135455  0.34615425  1  0.112024  0  0.119332  0.094328  0  0.98421  0
H  H33  1  0.04864526  0.47159569  0.15384499  1  0.112063  0  0.119294  0.094262  0  0.984273  0
H  H34  1  0.47158519  0.04863874  0.65384598  1  0.112137  0  0.119329  0.094265  0  0.984245  0
H  H35  1  0.95135254  0.52839797  0.84615455  1  0.112078  0  0.119301  0.094269  0  0.984267  0
H  H36  1  0.23922309  0.12099593  0.44844166  1  0.112495  0  0.114612  0.08508  0  1.018011  0
H  H37  1  0.87900576  0.76077656  0.05155706  1  0.112431  0  0.11462  0.085087  0  1.018206  0
H  H38  1  0.76078220  0.87901069  0.55156056  1  0.112521  0  0.114613  0.08508  0  1.018064  0
H  H39  1  0.12099577  0.23922127  0.94844331  1  0.112402  0  0.114596  0.085074  0  1.018215  0
H  H40  1  0.21408101  0.30566571  0.37826743  1  0.056166  0  0.104095  0.104474  0  1.04431  0
H  H41  1  0.69433286  0.78592271  0.12173064  1  0.056106  0  0.104087  0.104448  0  1.044293  0
H  H42  1  0.78592519  0.69433802  0.62173405  1  0.056165  0  0.104098  0.10447  0  1.044319  0
H  H43  1  0.30567055  0.21407950  0.87826981  1  0.055648  0  0.104091  0.104458  0  1.044265  0
H  H44  1  0.04186348  0.56500966  0.31989248  1  0.067096  0  0.096511  0.097942  0  1.060731  0
H  H45  1  0.43499231  0.95811875  0.18010962  1  0.067343  0  0.096504  0.097907  0  1.060808  0
H  H46  1  0.95812137  0.43499201  0.68010902  1  0.067316  0  0.096495  0.097884  0  1.060784  0
H  H47  1  0.56501107  0.04187701  0.81989034  1  0.067355  0  0.096511  0.097898  0  1.06087  0
H  H48  1  0.86995785  0.73241651  0.31969750  1  0.083974  0  0.104967  0.075414  0  1.008948  0
H  H49  1  0.26758976  0.13003305  0.18030394  1  0.08411  0  0.105007  0.075465  0  1.008962  0
H  H50  1  0.13003535  0.26759244  0.68030230  1  0.084031  0  0.104979  0.075452  0  1.008986  0
H  H51  1  0.73241829  0.86996770  0.81969760  1  0.083108  0  0.105021  0.075478  0  1.008907  0
H  H52  1  0.02088823  0.91109236  0.17010498  1  0.084801  0  0.104132  0.071634  0  1.000811  0
H  H53  1  0.08890311  0.97911146  0.32989697  1  0.084711  0  0.104117  0.071597  0  1.000865  0
H  H54  1  0.97911236  0.08890373  0.82989428  1  0.08475  0  0.104116  0.071601  0  1.00082  0
H  H55  1  0.91109843  0.02089282  0.67010305  1  0.084703  0  0.104098  0.071608  0  1.000803  0
H  H56  1  0.19802834  0.74862337  0.16160507  1  0.112408  0  0.101495  0.112379  0  1.058911  0
H  H57  1  0.25136847  0.80196732  0.33839772  1  0.11237  0  0.101546  0.112504  0  1.058876  0
H  H58  1  0.80196200  0.25136471  0.83839308  1  0.112536  0  0.101571  0.112548  0  1.058821  0
H  H59  1  0.74862938  0.19803557  0.66160384  1  0.112347  0  0.101566  0.112542  0  1.058853  0
H  H60  1  0.98053988  0.04427671  0.94818450  1  0.082728  0  0.105236  0.109315  0  1.009085  0
H  H61  1  0.95571942  0.01946309  0.55181785  1  0.08276  0  0.105262  0.109347  0  1.009153  0
H  H62  1  0.01945797  0.95572527  0.05181795  1  0.082769  0  0.105235  0.109347  0  1.009166  0
H  H63  1  0.04428119  0.98053945  0.44818147  1  0.08274  0  0.10524  0.109297  0  1.009179  0
H  H64  1  0.00851137  0.81887601  0.94253438  1  0.12136  0  0.102617  0.114425  0  1.042638  0
H  H65  1  0.18112060  0.99148590  0.55746951  1  0.121356  0  0.10259  0.114398  0  1.042668  0
H  H66  1  0.99148464  0.18112620  0.05746942  1  0.121314  0  0.10257  0.114399  0  1.042712  0
H  H67  1  0.81888092  0.00851283  0.44252913  1  0.121459  0  0.102566  0.114405  0  1.042671  0
H  H68  1  0.54894650  0.17107128  0.93700395  1  0.064963  0  0.099251  0.10621  0  1.034914  0
H  H69  1  0.82893581  0.45106042  0.56299069  1  0.065023  0  0.099227  0.106225  0  1.034925  0
H  H70  1  0.45105317  0.82892859  0.06299515  1  0.064936  0  0.099273  0.10625  0  1.03488  0
H  H71  1  0.17107030  0.54894139  0.43700291  1  0.06494  0  0.09927  0.106209  0  1.034878  0
H  H72  1  0.36514313  0.06204514  0.93086937  1  0.056383  0  0.096953  0.092894  0  1.015763  0
H  H73  1  0.93796940  0.63486030  0.56912430  1  0.056564  0  0.096992  0.092937  0  1.015823  0
H  H74  1  0.63485653  0.93795840  0.06912743  1  0.056522  0  0.096968  0.092938  0  1.015777  0
H  H75  1  0.06203951  0.36514210  0.43086995  1  0.056413  0  0.096947  0.092903  0  1.015831  0
H  H76  1  0.39169995  0.83482325  0.92313675  1  0.072699  0  0.097242  0.098592  0  1.009932  0
H  H77  1  0.16518714  0.60829670  0.57686388  1  0.072577  0  0.097274  0.098617  0  1.009881  0
H  H78  1  0.60829695  0.16517882  0.07686364  1  0.072737  0  0.097265  0.098633  0  1.009923  0
H  H79  1  0.83481901  0.39170238  0.42313365  1  0.072675  0  0.09725  0.098594  0  1.009941  0
H  H80  1  0.59961324  0.71490662  0.92496365  1  0.134544  0  0.096649  0.107748  0  1.066154  0
H  H81  1  0.28509929  0.40038094  0.57503949  1  0.134421  0  0.096606  0.10766  0  1.066179  0
H  H82  1  0.40038089  0.28509395  0.07503824  1  0.134524  0  0.096613  0.107722  0  1.066166  0
H  H83  1  0.71490688  0.59962001  0.42495962  1  0.13452  0  0.096616  0.107768  0  1.066137  0
C  C84  1  0.74395394  0.37302321  0.10448601  1  0.497022  0  0.046547  0.092878  0  3.967679  0
C  C85  1  0.62698537  0.25603960  0.39551278  1  0.497289  0  0.046596  0.093092  0  3.967422  0
C  C86  1  0.25603830  0.62697756  0.89551303  1  0.497532  0  0.046538  0.092899  0  3.96751  0
C  C87  1  0.37302079  0.74395859  0.60448690  1  0.497267  0  0.046482  0.092842  0  3.967578  0
C  C88  1  0.64974755  0.36921637  0.14891630  1  -0.097845  0  -0.076537  -0.160045  0  3.941213  0
C  C89  1  0.63079952  0.35024802  0.35108419  1  -0.098049  0  -0.076564  -0.160088  0  3.941113  0
C  C90  1  0.35024842  0.63078580  0.85108330  1  -0.098039  0  -0.076506  -0.160072  0  3.941249  0
C  C91  1  0.36920480  0.64975132  0.64891679  1  -0.098011  0  -0.076495  -0.159967  0  3.941174  0
C  C92  1  0.53556555  0.44192846  0.14274538  1  0.016328  0  0.018253  0.090424  0  3.939937  0
C  C93  1  0.55808526  0.46443006  0.35725377  1  0.017004  0  0.018305  0.090439  0  3.940113  0
C  C94  1  0.46443043  0.55807647  0.85725449  1  0.016931  0  0.018298  0.090492  0  3.940026  0
C  C95  1  0.44191906  0.53557020  0.64274674  1  0.016986  0  0.018225  0.090345  0  3.940002  0
C  C96  1  0.52210600  0.51500850  0.09079856  1  -0.016931  0  -0.080827  -0.16925  0  3.903389  0
C  C97  1  0.48500147  0.47788806  0.40920225  1  -0.018185  0  -0.080909  -0.169436  0  3.903597  0
C  C98  1  0.47788998  0.48499551  0.90920094  1  -0.017439  0  -0.080877  -0.16942  0  3.903562  0
C  C99  1  0.51500379  0.52210751  0.59080057  1  -0.018332  0  -0.080832  -0.169378  0  3.903376  0
C  C100  1  0.62121190  0.51339717  0.04861522  1  0.457127  0  0.042415  0.089974  0  3.954097  0
C  C101  1  0.48660935  0.37878316  0.45138350  1  0.457004  0  0.042474  0.090224  0  3.954148  0
C  C102  1  0.37878501  0.48660674  0.95138550  1  0.457016  0  0.042471  0.090127  0  3.954101  0
C  C103  1  0.51339589  0.62121423  0.54861670  1  0.457345  0  0.042483  0.090158  0  3.953982  0
C  C104  1  0.43382420  0.44137219  0.18977605  1  0.550618  0  0.123986  0.209329  0  3.997698  0
C  C105  1  0.55863618  0.56617136  0.31022393  1  0.550643  0  0.124097  0.209375  0  3.998009  0
C  C106  1  0.56617179  0.55863091  0.81022476  1  0.551021  0  0.123943  0.209237  0  3.99764  0
C  C107  1  0.44136629  0.43382820  0.68977714  1  0.550711  0  0.124096  0.209393  0  3.997713  0
C  C108  1  0.33672031  0.53867300  0.19132214  1  -0.064085  0  -0.070827  -0.187039  0  3.841941  0
C  C109  1  0.46133194  0.66327149  0.30867848  1  -0.064061  0  -0.070848  -0.187125  0  3.842101  0
C  C110  1  0.66327662  0.46132818  0.80868083  1  -0.064537  0  -0.070755  -0.186746  0  3.841631  0
C  C111  1  0.53867236  0.33672507  0.69132056  1  -0.064164  0  -0.070832  -0.186982  0  3.841823  0
C  C112  1  0.24201018  0.53748530  0.23637607  1  0.002662  0  0.012308  0.114984  0  3.97088  0
C  C113  1  0.46251718  0.75798365  0.26362762  1  0.002562  0  0.012177  0.114914  0  3.970792  0
C  C114  1  0.75798303  0.46251447  0.76362633  1  0.002619  0  0.012215  0.114853  0  3.970818  0
C  C115  1  0.53748435  0.24201417  0.73637234  1  0.002551  0  0.012198  0.114868  0  3.9708  0
C  C116  1  0.25025062  0.43509767  0.27757443  1  0.004153  0  -0.076589  -0.194856  0  3.872204  0
C  C117  1  0.56489929  0.74974355  0.22242689  1  0.004081  0  -0.076508  -0.194754  0  3.872231  0
C  C118  1  0.74974441  0.56489633  0.72242651  1  0.004162  0  -0.076535  -0.194758  0  3.872276  0
C  C119  1  0.43510317  0.25025509  0.77757339  1  0.004051  0  -0.076511  -0.194754  0  3.872297  0
C  C120  1  0.35088738  0.34185918  0.27351026  1  0.532062  0  0.121075  0.202748  0  4.016618  0
C  C121  1  0.65813943  0.64910987  0.22648846  1  0.532072  0  0.121029  0.202669  0  4.016555  0
C  C122  1  0.64910952  0.65813920  0.72648992  1  0.532197  0  0.121015  0.202639  0  4.01663  0
C  C123  1  0.34186304  0.35088969  0.77351218  1  0.532143  0  0.121036  0.202656  0  4.016647  0
C  C124  1  0.36199885  0.23382156  0.31725824  1  -0.027349  0  0.017901  0.088813  0  3.949819  0
C  C125  1  0.76617859  0.63800610  0.18273984  1  -0.027255  0  0.01784  0.088774  0  3.94981  0
C  C126  1  0.63800268  0.76617718  0.68274166  1  -0.027335  0  0.017954  0.088955  0  3.949663  0
C  C127  1  0.23382203  0.36199552  0.81726038  1  -0.027158  0  0.017835  0.088872  0  3.949848  0
C  C128  1  0.45158114  0.13153122  0.30907612  1  0.036011  0  -0.07477  -0.153031  0  3.939642  0
C  C129  1  0.86846775  0.54842290  0.19092310  1  0.035917  0  -0.074712  -0.153044  0  3.939628  0
C  C130  1  0.54841573  0.86846163  0.69092352  1  0.035788  0  -0.074862  -0.153144  0  3.939713  0
C  C131  1  0.13153286  0.45157689  0.80907806  1  0.035867  0  -0.074763  -0.153106  0  3.939718  0
C  C132  1  0.45953954  0.03217009  0.35103741  1  0.460937  0  0.047119  0.092366  0  3.957916  0
C  C133  1  0.96782902  0.54046261  0.14896178  1  0.460938  0  0.047142  0.092465  0  3.957972  0
C  C134  1  0.54045365  0.96782781  0.64896342  1  0.461158  0  0.04711  0.092384  0  3.957823  0
C  C135  1  0.03216972  0.45953463  0.85103878  1  0.460954  0  0.047143  0.092412  0  3.9579  0
C  C136  1  0.29783437  0.12633852  0.40812975  1  0.466969  0  0.043818  0.096142  0  3.964156  0
C  C137  1  0.87366332  0.70216872  0.09186786  1  0.467022  0  0.043801  0.096102  0  3.964237  0
C  C138  1  0.70216719  0.87366668  0.59187106  1  0.466979  0  0.043827  0.09605  0  3.964337  0
C  C139  1  0.12633543  0.29783036  0.90813218  1  0.467049  0  0.043834  0.096111  0  3.964168  0
C  C140  1  0.28441021  0.22919542  0.36845018  1  -0.014486  0  -0.083147  -0.165635  0  3.944239  0
C  C141  1  0.77080206  0.71559267  0.13154908  1  -0.014447  0  -0.083107  -0.165554  0  3.944156  0
C  C142  1  0.71559318  0.77080587  0.63154990  1  -0.014481  0  -0.08315  -0.165625  0  3.94416  0
C  C143  1  0.22919948  0.28440700  0.86845119  1  -0.014009  0  -0.083112  -0.165627  0  3.944011  0
C  C144  1  0.13808517  0.63917607  0.24010755  1  -0.012756  0  0.001424  0.08299  0  3.976643  0
C  C145  1  0.36082223  0.86190629  0.25989549  1  -0.012618  0  0.00135  0.082955  0  3.976622  0
C  C146  1  0.86190709  0.36082103  0.75989379  1  -0.012841  0  0.001321  0.082882  0  3.976667  0
C  C147  1  0.63917559  0.13809198  0.74010507  1  -0.012665  0  0.00136  0.082967  0  3.97644  0
C  C148  1  0.04281534  0.63858768  0.28498901  1  -0.066429  0  -0.089467  -0.175223  0  3.944297  0
C  C149  1  0.36141586  0.95716837  0.21501385  1  -0.066963  0  -0.08938  -0.175074  0  3.94445  0
C  C150  1  0.95717322  0.36141540  0.71501262  1  -0.066817  0  -0.089378  -0.175015  0  3.94424  0
C  C151  1  0.63858475  0.04282682  0.78498798  1  -0.06687  0  -0.089379  -0.175028  0  3.944254  0
C  C152  1  0.94499117  0.73413837  0.28525389  1  0.524359  0  0.035189  0.092211  0  4.007713  0
C  C153  1  0.26586680  0.05500179  0.21474741  1  0.524356  0  0.035155  0.092137  0  4.00785  0
C  C154  1  0.05500572  0.26586461  0.71474520  1  0.524404  0  0.035138  0.092063  0  4.007678  0
C  C155  1  0.73413753  0.94499754  0.78525315  1  0.525336  0  0.035085  0.092046  0  4.007693  0
C  C156  1  0.02785572  0.83205729  0.20260689  1  0.462822  0  0.036891  0.097291  0  4.002876  0
C  C157  1  0.16793943  0.97214381  0.29739489  1  0.463021  0  0.036815  0.097277  0  4.002775  0
C  C158  1  0.97214207  0.16794004  0.79739119  1  0.462891  0  0.036844  0.097288  0  4.003153  0
C  C159  1  0.83206119  0.02785966  0.70260606  1  0.463065  0  0.036847  0.097276  0  4.002735  0
C  C160  1  0.12891444  0.74056043  0.19818268  1  -0.024005  0  -0.088009  -0.17194  0  3.928421  0
C  C161  1  0.25943979  0.87107959  0.30182024  1  -0.023934  0  -0.087996  -0.172094  0  3.928247  0
C  C162  1  0.87107780  0.25943298  0.80181802  1  -0.024105  0  -0.088006  -0.172143  0  3.928367  0
C  C163  1  0.74056174  0.12892007  0.69817920  1  -0.023866  0  -0.088005  -0.172142  0  3.928212  0
C  C164  1  0.77929298  0.19761101  0.95449122  1  1.54756  0  0.198649  0.567014  0  4.231705  0
C  C165  1  0.80238984  0.22071138  0.54550786  1  1.547582  0  0.19871  0.567153  0  4.231673  0
C  C166  1  0.22070207  0.80238944  0.04551020  1  1.54762  0  0.198696  0.567091  0  4.231643  0
C  C167  1  0.19761447  0.77929255  0.45449035  1  1.547748  0  0.198761  0.567185  0  4.231626  0
C  C168  1  0.78462399  0.06453366  0.94334820  1  -0.029837  0  -0.005762  -0.054865  0  3.917761  0
C  C169  1  0.93546619  0.21537790  0.55665259  1  -0.029817  0  -0.00579  -0.054896  0  3.917756  0
C  C170  1  0.21537108  0.93546590  0.05665496  1  -0.029439  0  -0.005819  -0.054827  0  3.917815  0
C  C171  1  0.06453902  0.78462405  0.44334357  1  -0.029375  0  -0.005797  -0.05488  0  3.917692  0
C  C172  1  0.90119300  0.99736539  0.94286168  1  -0.068458  0  -0.087599  -0.099638  0  4.008777  0
C  C173  1  0.00263281  0.09880711  0.55714028  1  -0.068457  0  -0.087631  -0.099753  0  4.008794  0
C  C174  1  0.09880207  0.00263508  0.05714143  1  -0.068153  0  -0.08759  -0.099815  0  4.008967  0
C  C175  1  0.99737056  0.90119415  0.44285687  1  -0.068204  0  -0.087581  -0.099622  0  4.008815  0
C  C176  1  0.91687336  0.86960180  0.93939012  1  -0.033726  0  -0.087641  -0.09603  0  4.007521  0
C  C177  1  0.13039888  0.08312672  0.56061237  1  -0.033734  0  -0.087556  -0.095862  0  4.007683  0
C  C178  1  0.08312451  0.13040019  0.06061401  1  -0.033818  0  -0.087529  -0.095883  0  4.007711  0
C  C179  1  0.86960542  0.91687443  0.43938515  1  -0.034101  0  -0.08757  -0.095991  0  4.007755  0
C  C180  1  0.81644495  0.80538285  0.93684667  1  -0.02906  0  -0.018504  -0.089423  0  3.947482  0
C  C181  1  0.19461723  0.18355097  0.56315444  1  -0.029022  0  -0.018595  -0.089459  0  3.947768  0
C  C182  1  0.18355104  0.19461567  0.06315607  1  -0.029278  0  -0.018577  -0.089431  0  3.94779  0
C  C183  1  0.80538706  0.81644833  0.43684234  1  -0.029019  0  -0.018559  -0.089439  0  3.94764  0
C  C184  1  0.69485318  0.87225688  0.93336569  1  -0.042445  0  1.9e-05  0.056099  0  3.940969  0
C  C185  1  0.12774692  0.30514488  0.56663575  1  -0.042471  0  4e-06  0.055987  0  3.941042  0
C  C186  1  0.30514374  0.12774244  0.06663696  1  -0.042429  0  1.9e-05  0.056088  0  3.940956  0
C  C187  1  0.87226016  0.69485593  0.43336122  1  -0.04247  0  7.5e-05  0.056164  0  3.94094  0
C  C188  1  0.67947485  0.00486910  0.93615206  1  -0.018605  0  -0.002266  0.047801  0  3.947954  0
C  C189  1  0.99513228  0.32052307  0.56384765  1  -0.01866  0  -0.002311  0.047779  0  3.947891  0
C  C190  1  0.32051834  0.99512881  0.06384918  1  -0.018478  0  -0.002306  0.047784  0  3.947939  0
C  C191  1  0.00487201  0.67947900  0.43614897  1  -0.018449  0  -0.002314  0.047657  0  3.947982  0
C  C192  1  0.55894864  0.07144956  0.93438116  1  -0.058948  0  -0.091392  -0.128604  0  3.987884  0
C  C193  1  0.92855588  0.44105303  0.56561667  1  -0.059401  0  -0.091355  -0.128541  0  3.987894  0
C  C194  1  0.44104733  0.92854801  0.06561911  1  -0.059394  0  -0.091456  -0.128735  0  3.987949  0
C  C195  1  0.07145396  0.55895019  0.43437791  1  -0.059434  0  -0.091375  -0.128448  0  3.98777  0
C  C196  1  0.45779724  0.01105403  0.93001607  1  -0.045925  0  -0.097524  -0.094685  0  4.053467  0
C  C197  1  0.98895421  0.54220296  0.56998132  1  -0.045525  0  -0.097547  -0.094737  0  4.05369  0
C  C198  1  0.54219871  0.98894445  0.06998289  1  -0.04626  0  -0.097433  -0.094582  0  4.053409  0
C  C199  1  0.01105286  0.45779968  0.43001471  1  -0.046197  0  -0.097566  -0.094809  0  4.053733  0
C  C200  1  0.47236591  0.88177600  0.92659930  1  -0.03133  0  -0.092229  -0.071289  0  4.01669  0
C  C201  1  0.11823156  0.52763209  0.57340011  1  -0.031404  0  -0.092271  -0.071366  0  4.016867  0
C  C202  1  0.52763191  0.11822227  0.07340083  1  -0.031282  0  -0.092293  -0.071378  0  4.016642  0
C  C203  1  0.88177830  0.47236748  0.42659719  1  -0.031305  0  -0.092194  -0.071237  0  4.016832  0
C  C204  1  0.58776488  0.81417740  0.92831669  1  -0.06702  0  -0.097346  -0.142238  0  3.969442  0
C  C205  1  0.18582714  0.41223222  0.57168356  1  -0.066935  0  -0.097266  -0.142066  0  3.969489  0
C  C206  1  0.41223294  0.18582086  0.07168302  1  -0.066993  0  -0.097336  -0.142284  0  3.969409  0
C  C207  1  0.81417901  0.58776687  0.42831440  1  -0.066972  0  -0.097347  -0.142313  0  3.969373  0
C  C208  1  0.84264766  0.66710902  0.94286031  1  1.550774  0  0.196841  0.565537  0  4.193646  0
C  C209  1  0.33289175  0.15735414  0.55713815  1  1.55116  0  0.196788  0.565396  0  4.193933  0
C  C210  1  0.15735388  0.33289157  0.05714034  1  1.550769  0  0.196849  0.565475  0  4.193893  0
C  C211  1  0.66711162  0.84264620  0.44285947  1  1.550806  0  0.196841  0.565468  0  4.193797  0
N  N212  1  0.73087773  0.44419745  0.05498818  1  -1.241674  0  -0.330231  -0.246294  0  3.506964  0
N  N213  1  0.55580873  0.26911735  0.44501118  1  -1.242268  0  -0.330211  -0.246466  0  3.507009  0
N  N214  1  0.26911824  0.55580472  0.94501184  1  -1.242198  0  -0.330284  -0.246418  0  3.506927  0
N  N215  1  0.44419652  0.73087912  0.55498991  1  -1.24216  0  -0.33024  -0.246404  0  3.507087  0
N  N216  1  0.38417492  0.02911857  0.39988092  1  -1.239481  0  -0.332183  -0.2431  0  3.523068  0
N  N217  1  0.97088185  0.61582614  0.10011961  1  -1.239572  0  -0.33217  -0.243098  0  3.523139  0
N  N218  1  0.61582570  0.97088123  0.60012108  1  -1.239607  0  -0.332125  -0.242939  0  3.523081  0
N  N219  1  0.02911688  0.38416926  0.89988063  1  -1.239623  0  -0.332163  -0.243006  0  3.523086  0
N  N220  1  0.93538684  0.83028554  0.24492361  1  -1.189888  0  -0.339552  -0.293802  0  3.303999  0
N  N221  1  0.16971916  0.06460844  0.25507687  1  -1.189662  0  -0.339496  -0.293758  0  3.304161  0
N  N222  1  0.06461007  0.16971745  0.75507757  1  -1.189782  0  -0.339486  -0.293684  0  3.304267  0
N  N223  1  0.83028610  0.93539447  0.74492302  1  -1.189699  0  -0.3395  -0.293737  0  3.304094  0
N  N224  1  0.44168527  0.34521766  0.23037063  1  -1.178595  0  -0.303623  -0.33185  0  3.280239  0
N  N225  1  0.65478907  0.55831110  0.26962927  1  -1.178518  0  -0.303684  -0.331842  0  3.2803  0
N  N226  1  0.55831348  0.65478234  0.76962977  1  -1.178488  0  -0.303622  -0.33187  0  3.280254  0
N  N227  1  0.34521432  0.44168744  0.73037180  1  -1.178712  0  -0.303624  -0.331834  0  3.280371  0
O  O228  1  0.85016899  0.21411724  0.99196151  1  -1.14942  0  -0.338275  -0.565032  0  2.274461  0
O  O229  1  0.78588487  0.14983429  0.50803749  1  -1.149392  0  -0.338298  -0.565058  0  2.274375  0
O  O230  1  0.14982144  0.78588563  0.00804171  1  -1.149553  0  -0.338299  -0.565074  0  2.274517  0
O  O231  1  0.21411572  0.85017558  0.49195849  1  -1.149488  0  -0.338332  -0.565108  0  2.274448  0
O  O232  1  0.71592584  0.28432668  0.92714526  1  -1.187093  0  -0.322874  -0.566188  0  2.192833  0
O  O233  1  0.71567417  0.28407803  0.57285445  1  -1.187083  0  -0.322868  -0.566258  0  2.192846  0
O  O234  1  0.28407198  0.71567435  0.07285472  1  -1.187059  0  -0.322857  -0.566188  0  2.192788  0
O  O235  1  0.28433574  0.71592158  0.42714789  1  -1.187264  0  -0.322916  -0.566271  0  2.192833  0
O  O236  1  0.77077605  0.59863932  0.92634366  1  -1.168811  0  -0.322521  -0.541028  0  2.191971  0
O  O237  1  0.40136140  0.22922029  0.57365510  1  -1.169157  0  -0.32246  -0.540911  0  2.192116  0
O  O238  1  0.22922364  0.40135966  0.07365759  1  -1.168822  0  -0.32252  -0.540971  0  2.192049  0
O  O239  1  0.59864289  0.77077809  0.42634215  1  -1.168784  0  -0.322489  -0.540938  0  2.192074  0
O  O240  1  0.93959107  0.61902572  0.96738126  1  -1.18208  0  -0.34011  -0.590782  0  2.326893  0
O  O241  1  0.38097449  0.06041061  0.53261622  1  -1.182106  0  -0.340096  -0.590777  0  2.326982  0
O  O242  1  0.06041323  0.38097267  0.03261683  1  -1.182012  0  -0.340071  -0.590766  0  2.326955  0
O  O243  1  0.61902982  0.93958596  0.46738407  1  -1.182022  0  -0.340093  -0.590772  0  2.326816  0
