# generated using pymatgen
data_NdH9C10O9
_symmetry_space_group_name_H-M   'P 1'
_cell_length_a   6.86455163
_cell_length_b   9.96294213
_cell_length_c   10.93212419
_cell_angle_alpha   117.10498582
_cell_angle_beta   101.92234947
_cell_angle_gamma   90.01491115
_symmetry_Int_Tables_number   1
_chemical_formula_structural   NdH9C10O9
_chemical_formula_sum   'Nd2 H18 C20 O18'
_cell_volume   647.35533447
_cell_formula_units_Z   2
loop_
 _symmetry_equiv_pos_site_id
 _symmetry_equiv_pos_as_xyz
  1  'x, y, z'
loop_
 _atom_site_type_symbol
 _atom_site_label
 _atom_site_symmetry_multiplicity
 _atom_site_fract_x
 _atom_site_fract_y
 _atom_site_fract_z
 _atom_site_occupancy
 _atom_site_hle17_bader_spin_density
 _atom_site_hle17_ddec_charge
 _atom_site_hle17_ddec_spin_density
 _atom_site_hle17_ddec_sum_bond_order
 _atom_site_hle17_magmom
 _atom_site_hse06_10hf_bader_spin_density
 _atom_site_hse06_10hf_ddec_charge
 _atom_site_hse06_10hf_ddec_spin_density
 _atom_site_hse06_10hf_ddec_sum_bond_order
 _atom_site_hse06_10hf_magmom
 _atom_site_hse06_bader_spin_density
 _atom_site_hse06_ddec_charge
 _atom_site_hse06_ddec_spin_density
 _atom_site_hse06_ddec_sum_bond_order
 _atom_site_hse06_magmom
 _atom_site_pbe_bader_spin_density
 _atom_site_pbe_cm5_charge
 _atom_site_pbe_ddec_charge
 _atom_site_pbe_ddec_spin_density
 _atom_site_pbe_ddec_sum_bond_order
 _atom_site_pbe_magmom
Nd  Nd0  1  0.44663452  0.38547497  0.28881289  1  0  2.29122  0  1.596004  0  0  2.121303  0  2.067393  0  0  2.220809  0  1.913911  0  0  1.478569  2.090034  0  2.09963  0
Nd  Nd1  1  0.94679661  0.90330502  0.28879907  1  0  2.290848  0  1.596417  0  0  2.120535  0  2.068465  0  0  2.220402  0  1.914362  0  0  1.478506  2.089359  0  2.100518  0
H  H2  1  0.46096209  0.01976941  0.67903143  1  0  0.098702  0  0.940761  0  0  0.109583  0  0.999424  0  0  0.112971  0  0.996958  0  0  0.106205  0.107196  0  1.001129  0
H  H3  1  0.96123242  0.65932098  0.67925663  1  0  0.099146  0  0.941637  0  0  0.109875  0  1.000354  0  0  0.113333  0  0.9978  0  0  0.106359  0.107469  0  1.002104  0
H  H4  1  0.64541493  0.07288861  0.92222185  1  0  0.1096  0  0.942632  0  0  0.120763  0  1.001253  0  0  0.124362  0  0.999214  0  0  0.112251  0.118241  0  1.002702  0
H  H5  1  0.14550744  0.84962157  0.92240204  1  0  0.109619  0  0.94232  0  0  0.120948  0  1.000883  0  0  0.124508  0  0.998884  0  0  0.112304  0.118454  0  1.002293  0
H  H6  1  0.52063058  0.60386366  0.81062311  1  0  0.122183  0  0.945086  0  0  0.131465  0  1.005674  0  0  0.135847  0  1.00234  0  0  0.110838  0.128468  0  1.007848  0
H  H7  1  0.02011065  0.20675093  0.81049482  1  0  0.121889  0  0.944501  0  0  0.130998  0  1.005386  0  0  0.135377  0  1.002064  0  0  0.110865  0.128014  0  1.007547  0
H  H8  1  0.16181934  0.46722090  0.64926654  1  0  0.093939  0  0.906757  0  0  0.108345  0  0.963826  0  0  0.109767  0  0.961881  0  0  0.116346  0.107235  0  0.96534  0
H  H9  1  0.66188781  0.18186335  0.64918124  1  0  0.093849  0  0.907852  0  0  0.108594  0  0.964604  0  0  0.109988  0  0.962642  0  0  0.116164  0.107497  0  0.966121  0
H  H10  1  0.38800661  0.37651407  0.63327878  1  0  0.097896  0  0.919887  0  0  0.108501  0  0.980872  0  0  0.111054  0  0.977725  0  0  0.115835  0.106685  0  0.983184  0
H  H11  1  0.88802586  0.25642492  0.63294922  1  0  0.098295  0  0.920335  0  0  0.109267  0  0.981062  0  0  0.111815  0  0.977847  0  0  0.115932  0.107445  0  0.983391  0
H  H12  1  0.88069437  0.31282396  0.25227186  1  0  0.448792  0  0.832756  0  0  0.425162  0  0.882498  0  0  0.434668  0  0.868835  0  0  0.315991  0.418639  0  0.891965  0
H  H13  1  0.38091223  0.93966354  0.25216444  1  0  0.449036  0  0.832411  0  0  0.425173  0  0.882626  0  0  0.434693  0  0.86894  0  0  0.31591  0.418623  0  0.892142  0
H  H14  1  0.75093295  0.15967499  0.15864615  1  0  0.446898  0  0.850436  0  0  0.416088  0  0.914403  0  0  0.426777  0  0.898934  0  0  0.305164  0.40843  0  0.92563  0
H  H15  1  0.25079964  0.99922880  0.15871660  1  0  0.446108  0  0.85165  0  0  0.414723  0  0.916335  0  0  0.425421  0  0.900899  0  0  0.30473  0.407041  0  0.927582  0
H  H16  1  0.62962746  0.59500310  0.21136299  1  0  0.426471  0  0.881405  0  0  0.393533  0  0.948447  0  0  0.405192  0  0.931656  0  0  0.297461  0.385036  0  0.960941  0
H  H17  1  0.12962204  0.61637317  0.21128909  1  0  0.427618  0  0.879725  0  0  0.394577  0  0.94691  0  0  0.40623  0  0.930119  0  0  0.298157  0.386075  0  0.959421  0
H  H18  1  0.42495198  0.53763466  0.09465286  1  0  0.44444  0  0.80445  0  0  0.428682  0  0.853856  0  0  0.437281  0  0.841389  0  0  0.330766  0.422555  0  0.862906  0
H  H19  1  0.92515333  0.55716905  0.09437371  1  0  0.443874  0  0.805299  0  0  0.428331  0  0.854251  0  0  0.436891  0  0.841851  0  0  0.330803  0.422229  0  0.863262  0
C  C20  1  0.41755420  0.66400614  0.64256497  1  0  0.27705  0  3.773965  0  0  0.260441  0  4.039147  0  0  0.271619  0  4.056652  0  0  0.097719  0.252749  0  4.028266  0
C  C21  1  0.91748090  0.97843612  0.64253737  1  0  0.276016  0  3.775872  0  0  0.260206  0  4.040445  0  0  0.271301  0  4.058001  0  0  0.09757  0.25252  0  4.029564  0
C  C22  1  0.40197009  0.78160543  0.60388550  1  0  -0.169161  0  3.709407  0  0  -0.157131  0  3.953134  0  0  -0.166957  0  3.973763  0  0  -0.017007  -0.150301  0  3.938911  0
C  C23  1  0.90206064  0.82216298  0.60394429  1  0  -0.167922  0  3.710035  0  0  -0.157499  0  3.954726  0  0  -0.167229  0  3.975284  0  0  -0.016572  -0.150683  0  3.940477  0
C  C24  1  0.48030631  0.92884265  0.70832540  1  0  -0.041286  0  3.736741  0  0  -0.066115  0  3.996526  0  0  -0.065139  0  4.016771  0  0  -0.075997  -0.066524  0  3.982152  0
C  C25  1  0.98047535  0.77950779  0.70843793  1  0  -0.043189  0  3.739107  0  0  -0.067594  0  3.999196  0  0  -0.066711  0  4.019444  0  0  -0.077003  -0.067992  0  3.984808  0
C  C26  1  0.57951467  0.95871203  0.84400375  1  0  -0.077853  0  3.715582  0  0  -0.109073  0  3.977139  0  0  -0.111413  0  3.997679  0  0  -0.082585  -0.107352  0  3.962788  0
C  C27  1  0.07967065  0.88546415  0.84409043  1  0  -0.076843  0  3.714881  0  0  -0.108477  0  3.976461  0  0  -0.110828  0  3.997029  0  0  -0.082543  -0.106754  0  3.962074  0
C  C28  1  0.59392377  0.84020167  0.87972853  1  0  -0.009394  0  3.737331  0  0  0.012398  0  3.971992  0  0  0.009628  0  3.99115  0  0  -0.003068  0.014433  0  3.958601  0
C  C29  1  0.09374959  0.03968524  0.87976291  1  0  -0.012075  0  3.738741  0  0  0.010619  0  3.972611  0  0  0.007899  0  3.991705  0  0  -0.003295  0.012639  0  3.959225  0
C  C30  1  0.50876671  0.69356093  0.77963107  1  0  -0.193116  0  3.709145  0  0  -0.224446  0  3.960969  0  0  -0.229339  0  3.978897  0  0  -0.093452  -0.220911  0  3.948034  0
C  C31  1  0.00848599  0.08609498  0.77959185  1  0  -0.191164  0  3.708623  0  0  -0.222705  0  3.960011  0  0  -0.227631  0  3.977994  0  0  -0.093121  -0.219188  0  3.947109  0
C  C32  1  0.26505381  0.41523472  0.57962805  1  0  -0.058777  0  3.611409  0  0  -0.118391  0  3.875671  0  0  -0.114324  0  3.87612  0  0  -0.058363  -0.121344  0  3.876145  0
C  C33  1  0.76498462  0.16409582  0.57943608  1  0  -0.059917  0  3.612927  0  0  -0.120556  0  3.877561  0  0  -0.116369  0  3.877802  0  0  -0.058586  -0.123558  0  3.878122  0
C  C34  1  0.15490526  0.27965856  0.44241242  1  0  0.719921  0  3.860995  0  0  0.672085  0  4.162936  0  0  0.70556  0  4.157066  0  0  0.231883  0.649154  0  4.169597  0
C  C35  1  0.65474304  0.16233613  0.44219997  1  0  0.719135  0  3.861998  0  0  0.671963  0  4.162881  0  0  0.705413  0  4.156967  0  0  0.23203  0.649028  0  4.169592  0
C  C36  1  0.30007211  0.75612745  0.45883823  1  0  0.731597  0  3.816987  0  0  0.680992  0  4.112825  0  0  0.717262  0  4.103441  0  0  0.23694  0.656342  0  4.120864  0
C  C37  1  0.80024665  0.70259277  0.45885985  1  0  0.731113  0  3.817625  0  0  0.681788  0  4.112001  0  0  0.718051  0  4.102563  0  0  0.237277  0.657132  0  4.120076  0
C  C38  1  0.70657713  0.86437834  0.02177754  1  0  0.654547  0  3.890944  0  0  0.609042  0  4.176869  0  0  0.641867  0  4.174105  0  0  0.205006  0.586033  0  4.182012  0
C  C39  1  0.20635087  0.15768173  0.02182689  1  0  0.65572  0  3.890308  0  0  0.609761  0  4.176495  0  0  0.642582  0  4.173653  0  0  0.205243  0.586757  0  4.181652  0
O  O40  1  0.33749270  0.52083435  0.53994001  1  0  -0.338824  0  2.5166  0  0  -0.263293  0  2.758265  0  0  -0.285149  0  2.762927  0  0  -0.204235  -0.250965  0  2.755521  0
O  O41  1  0.83730217  0.01880706  0.53982435  1  0  -0.337347  0  2.516758  0  0  -0.261803  0  2.757937  0  0  -0.283683  0  2.762586  0  0  -0.203622  -0.249446  0  2.755193  0
O  O42  1  0.14297546  0.28700001  0.32817516  1  0  -0.721333  0  2.060301  0  0  -0.668576  0  2.304798  0  0  -0.698171  0  2.292635  0  0  -0.366034  -0.65279  0  2.312804  0
O  O43  1  0.64295637  0.04076198  0.32800439  1  0  -0.720482  0  2.061724  0  0  -0.667838  0  2.305741  0  0  -0.697475  0  2.293535  0  0  -0.365958  -0.652047  0  2.313776  0
O  O44  1  0.08397073  0.17006619  0.45373334  1  0  -0.708315  0  2.02449  0  0  -0.65926  0  2.279308  0  0  -0.691329  0  2.266479  0  0  -0.37677  -0.641686  0  2.28585  0
O  O45  1  0.58365654  0.28315576  0.45345508  1  0  -0.708117  0  2.023328  0  0  -0.659124  0  2.277413  0  0  -0.691236  0  2.264778  0  0  -0.376937  -0.641542  0  2.283985  0
O  O46  1  0.28894479  0.62425824  0.35274134  1  0  -0.744334  0  2.074707  0  0  -0.684215  0  2.319328  0  0  -0.716184  0  2.304046  0  0  -0.375942  -0.666842  0  2.328432  0
O  O47  1  0.78923809  0.72836547  0.35276931  1  0  -0.743968  0  2.074961  0  0  -0.684071  0  2.318778  0  0  -0.716103  0  2.303505  0  0  -0.376009  -0.666728  0  2.327916  0
O  O48  1  0.22775123  0.86770863  0.44642902  1  0  -0.709785  0  1.980398  0  0  -0.658568  0  2.229162  0  0  -0.689691  0  2.215239  0  0  -0.386902  -0.642011  0  2.235993  0
O  O49  1  0.72777925  0.57859198  0.44641736  1  0  -0.709936  0  1.980698  0  0  -0.659075  0  2.22888  0  0  -0.690126  0  2.214912  0  0  -0.387233  -0.6425  0  2.235743  0
O  O50  1  0.82922462  0.98513868  0.10064808  1  0  -0.701634  0  2.01703  0  0  -0.64283  0  2.252774  0  0  -0.673204  0  2.243265  0  0  -0.366587  -0.625064  0  2.258705  0
O  O51  1  0.32919476  0.11585170  0.10063618  1  0  -0.701987  0  2.01702  0  0  -0.642943  0  2.252906  0  0  -0.673291  0  2.243372  0  0  -0.367168  -0.625148  0  2.258847  0
O  O52  1  0.68671193  0.76354780  0.06081708  1  0  -0.682761  0  1.913712  0  0  -0.633145  0  2.139578  0  0  -0.662032  0  2.127999  0  0  -0.379243  -0.61714  0  2.146719  0
O  O53  1  0.18619293  0.29748908  0.06091985  1  0  -0.682503  0  1.913165  0  0  -0.63288  0  2.139193  0  0  -0.661725  0  2.12765  0  0  -0.379016  -0.616901  0  2.146384  0
O  O54  1  0.74084467  0.27115128  0.20309432  1  0  -0.914699  0  1.821678  0  0  -0.867341  0  2.006959  0  0  -0.892645  0  1.970762  0  0  -0.647361  -0.854462  0  2.028894  0
O  O55  1  0.24096864  0.93210241  0.20309315  1  0  -0.914071  0  1.821738  0  0  -0.866201  0  2.008402  0  0  -0.891543  0  1.972022  0  0  -0.647048  -0.853321  0  2.030431  0
O  O56  1  0.53502999  0.50271934  0.14070622  1  0  -0.892216  0  1.81618  0  0  -0.846105  0  1.990842  0  0  -0.869324  0  1.954455  0  0  -0.627302  -0.833947  0  2.013587  0
O  O57  1  0.03527750  0.63814278  0.14063953  1  0  -0.892511  0  1.816112  0  0  -0.846491  0  1.990741  0  0  -0.869719  0  1.954387  0  0  -0.627865  -0.834366  0  2.013419  0
