# generated using pymatgen
data_Zn2H13(C3O)7
_symmetry_space_group_name_H-M   'P 1'
_cell_length_a   15.04681773
_cell_length_b   15.07113392
_cell_length_c   19.62030515
_cell_angle_alpha   89.03732461
_cell_angle_beta   88.59961125
_cell_angle_gamma   90.08338559
_symmetry_Int_Tables_number   1
_chemical_formula_structural   Zn2H13(C3O)7
_chemical_formula_sum   'Zn4 H26 C42 O14'
_cell_volume   4447.38321912
_cell_formula_units_Z   2
loop_
 _symmetry_equiv_pos_site_id
 _symmetry_equiv_pos_as_xyz
  1  'x, y, z'
loop_
 _atom_site_type_symbol
 _atom_site_label
 _atom_site_symmetry_multiplicity
 _atom_site_fract_x
 _atom_site_fract_y
 _atom_site_fract_z
 _atom_site_occupancy
 _atom_site_pbe_bader_charge
 _atom_site_pbe_bader_spin_density
 _atom_site_pbe_cm5_charge
 _atom_site_pbe_ddec_charge
 _atom_site_pbe_ddec_spin_density
 _atom_site_pbe_ddec_sum_bond_order
 _atom_site_pbe_magmom
Zn  Zn0  1  0.43492298  0.43093420  0.56853352  1  1.312725  0  0.669333  0.961699  0  2.380137  0
Zn  Zn1  1  0.42154439  0.56918170  0.43845188  1  1.315106  0  0.670016  0.966072  0  2.366579  0
Zn  Zn2  1  0.57097016  0.42718313  0.43891331  1  1.312022  0  0.669415  0.961149  0  2.38177  0
Zn  Zn3  1  0.57509934  0.58121710  0.55287018  1  1.312202  0  0.670423  0.960488  0  2.368349  0
H  H4  1  0.37362557  0.47271679  0.76770710  1  0.090883  0  0.107556  0.11276  0  0.990936  0
H  H5  1  0.16491833  0.46607868  0.63120180  1  0.089025  0  0.106515  0.111874  0  0.994323  0
H  H6  1  0.00070675  0.52713604  0.36220538  1  0.054249  0  0.10556  0.105991  0  0.990724  0
H  H7  1  0.56060851  0.35688800  0.23506432  1  0.098092  0  0.107915  0.113393  0  0.993723  0
H  H8  1  0.99966210  0.47227490  0.64403123  1  0.062777  0  0.104989  0.106401  0  0.990873  0
H  H9  1  0.83529367  0.51973363  0.37325032  1  0.087598  0  0.107734  0.113105  0  0.991405  0
H  H10  1  0.85125149  0.49366486  0.59128727  1  0.073187  0  0.109407  0.1164  0  0.990048  0
H  H11  1  0.38843263  0.58337652  0.22459965  1  0.088095  0  0.107339  0.112988  0  0.991432  0
H  H12  1  0.62128225  0.59330272  0.90035113  1  0.104641  0  0.107264  0.124724  0  0.989874  0
H  H13  1  0.55577528  0.34185730  0.10964638  1  0.061511  0  0.10148  0.10026  0  1.008376  0
H  H14  1  0.50200607  0.58910654  0.00880234  1  0.039146  0  0.099692  0.107192  0  1.006474  0
H  H15  1  0.38495277  0.57070658  0.09804128  1  0.072813  0  0.100825  0.099671  0  1.005837  0
H  H16  1  0.36038432  0.47497396  0.89433640  1  0.063809  0  0.103379  0.1083  0  0.992672  0
H  H17  1  0.47875546  0.36447292  0.93286531  1  0.069512  0  0.093244  0.134478  0  1.012496  0
H  H18  1  0.51009846  0.31492368  0.01149166  1  0.034147  0  0.093527  0.126956  0  1.003264  0
H  H19  1  0.39695324  0.33558529  0.99664473  1  0.041214  0  0.094721  0.130827  0  0.985507  0
H  H20  1  0.62585980  0.70825375  0.71820310  1  0.060214  0  0.094114  0.097432  0  1.003864  0
H  H21  1  0.73888399  0.68874644  0.74164476  1  0.041  0  0.10759  0.113011  0  0.969649  0
H  H22  1  0.65821296  0.72033184  0.80559482  1  0.042567  0  0.090047  0.080004  0  1.004649  0
H  H23  1  0.53880647  0.85224264  0.57888060  1  0.104216  0  0.107441  0.112963  0  0.999329  0
H  H24  1  0.45635466  0.84036715  0.37101107  1  0.095889  0  0.107357  0.113128  0  0.992053  0
H  H25  1  0.54732688  0.99860627  0.63580868  1  0.065963  0  0.104483  0.104469  0  0.991514  0
H  H26  1  0.46077856  0.00555799  0.36111613  1  0.057515  0  0.104624  0.105145  0  0.992178  0
H  H27  1  0.53814974  0.16369075  0.62885474  1  0.085366  0  0.107923  0.112635  0  0.988749  0
H  H28  1  0.48960700  0.15222671  0.41392923  1  0.091392  0  0.108209  0.113485  0  0.991682  0
H  H29  1  0.14831106  0.52224639  0.41642882  1  0.087606  0  0.108735  0.115592  0  0.995255  0
C  C30  1  0.50023320  0.73856228  0.48080505  1  1.590356  0  0.227111  0.608943  0  4.162242  0
C  C31  1  0.48701618  0.52823313  0.98168351  1  0.04084  0  -0.098097  -0.224106  0  3.945993  0
C  C32  1  0.47334857  0.45268735  0.01896521  1  -0.060568  0  -0.007038  0.120849  0  3.964221  0
C  C33  1  0.51275502  0.26570692  0.51561855  1  1.511711  0  0.229806  0.613189  0  4.16187  0
C  C34  1  0.47577354  0.47170508  0.23751069  1  -0.030194  0  -0.022215  -0.046062  0  3.988206  0
C  C35  1  0.49921624  0.83742886  0.47562348  1  -0.104119  0  -0.017822  -0.030921  0  3.991633  0
C  C36  1  0.51471419  0.16678548  0.52026620  1  -0.009327  0  -0.014808  -0.023204  0  3.992635  0
C  C37  1  0.53326780  0.03241785  0.58761414  1  -0.067545  0  -0.086208  -0.12854  0  3.997997  0
C  C38  1  0.52908113  0.12357303  0.58386579  1  -0.031598  0  -0.086341  -0.103297  0  4.001255  0
C  C39  1  0.50067971  0.11794019  0.46241945  1  -0.046883  0  -0.07762  -0.14224  0  3.932049  0
C  C40  1  0.49842817  0.02410787  0.46586729  1  0.058091  0  -0.002089  0.080523  0  4.003062  0
C  C41  1  0.48997640  0.53387622  0.90675355  1  -0.060568  0  -0.005642  0.154509  0  4.047621  0
C  C42  1  0.51801421  0.98032511  0.52931505  1  -0.055865  0  -0.004192  0.077853  0  4.004208  0
C  C43  1  0.52078258  0.88656736  0.53185843  1  0.07334  0  -0.075942  -0.135994  0  3.931084  0
C  C44  1  0.47501939  0.88071486  0.41396429  1  -0.042125  0  -0.087486  -0.10215  0  4.001099  0
C  C45  1  0.26442000  0.49541176  0.51575894  1  1.527769  0  0.226889  0.607701  0  4.165633  0
C  C46  1  0.47686586  0.97187699  0.40890587  1  -0.035123  0  -0.087983  -0.131496  0  3.99976  0
C  C47  1  0.16550193  0.49528068  0.52277562  1  0.032959  0  -0.018346  -0.033143  0  3.996424  0
C  C48  1  0.83457694  0.50723163  0.48336743  1  0.05221  0  -0.01543  -0.024906  0  3.991451  0
C  C49  1  0.96780504  0.51827378  0.41206698  1  -0.026585  0  -0.086295  -0.129445  0  3.999758  0
C  C50  1  0.87662595  0.51503038  0.41796165  1  -0.048535  0  -0.087011  -0.102712  0  4.004397  0
C  C51  1  0.88466398  0.49951371  0.54140712  1  -0.010043  0  -0.076175  -0.141714  0  3.926331  0
C  C52  1  0.56495720  0.56905081  0.87191589  1  -0.031153  0  -0.098723  -0.256218  0  3.940615  0
C  C53  1  0.97861136  0.49692093  0.53639841  1  -0.015226  0  -0.00185  0.082594  0  3.997275  0
C  C54  1  0.02114220  0.50887066  0.47053025  1  -0.072149  0  -0.002882  0.079745  0  3.99951  0
C  C55  1  0.11500070  0.51030725  0.46572923  1  0.000382  0  -0.075748  -0.135709  0  3.928991  0
C  C56  1  0.12346517  0.47935586  0.58744881  1  -0.04731  0  -0.086931  -0.099458  0  4.001939  0
C  C57  1  0.73557139  0.50586669  0.48891695  1  1.50351  0  0.228336  0.608762  0  4.157457  0
C  C58  1  0.03226558  0.48220848  0.59416886  1  -0.025157  0  -0.088235  -0.134714  0  3.998765  0
C  C59  1  0.48162684  0.48144389  0.31271477  1  1.577041  0  0.223743  0.599141  0  4.178223  0
C  C60  1  0.50645711  0.52571757  0.68682288  1  1.574448  0  0.227071  0.622558  0  4.160417  0
C  C61  1  0.50307243  0.53259330  0.76253194  1  -0.089389  0  -0.025416  -0.14477  0  3.9524  0
C  C62  1  0.42701781  0.49984629  0.79762810  1  -0.055287  0  -0.084461  -0.074386  0  4.014728  0
C  C63  1  0.57296025  0.56723778  0.80077133  1  0.523273  0  0.089075  0.249371  0  4.038415  0
C  C64  1  0.41999828  0.50065947  0.86821409  1  0.033961  0  -0.097006  -0.158488  0  4.002951  0
C  C65  1  0.46437841  0.36257619  0.98786403  1  -0.061477  0  -0.236225  -0.406323  0  3.973759  0
C  C66  1  0.66910040  0.68259586  0.75846070  1  0.408065  0  -0.136559  -0.160712  0  3.935537  0
C  C67  1  0.51881198  0.39518381  0.13422019  1  -0.079588  0  -0.091767  -0.136832  0  3.986108  0
C  C68  1  0.52190152  0.40316062  0.20458728  1  -0.013168  0  -0.083809  -0.087102  0  3.98951  0
C  C69  1  0.42574242  0.53147017  0.19863174  1  0.026321  0  -0.08286  -0.084138  0  3.984696  0
C  C70  1  0.42434728  0.52437330  0.12805897  1  -0.083485  0  -0.092612  -0.141434  0  3.993319  0
C  C71  1  0.47185695  0.45694508  0.09431085  1  -0.085846  0  -0.002256  0.077319  0  3.985208  0
O  O72  1  0.49986803  0.50287670  0.49953767  1  -1.235954  0  -0.573142  -1.030248  0  2.537477  0
O  O73  1  0.43282861  0.54038691  0.34100083  1  -1.176957  0  -0.317212  -0.549546  0  2.327531  0
O  O74  1  0.55149848  0.58297874  0.65187511  1  -1.157908  0  -0.30849  -0.540505  0  2.348363  0
O  O75  1  0.53600537  0.43028468  0.34324045  1  -1.183529  0  -0.317158  -0.547311  0  2.343648  0
O  O76  1  0.46139125  0.46213061  0.66260737  1  -1.172107  0  -0.318102  -0.553057  0  2.342296  0
O  O77  1  0.65346827  0.58962997  0.77024764  1  -1.076771  0  -0.215783  -0.204024  0  2.533007  0
O  O78  1  0.30659659  0.45124666  0.56075026  1  -1.172872  0  -0.315563  -0.546055  0  2.325458  0
O  O79  1  0.69957781  0.54281492  0.54073974  1  -1.161658  0  -0.315635  -0.545581  0  2.312874  0
O  O80  1  0.44741813  0.69698285  0.44247654  1  -1.164704  0  -0.315148  -0.54566  0  2.319347  0
O  O81  1  0.55282479  0.30146736  0.46407456  1  -1.174378  0  -0.315804  -0.547788  0  2.324286  0
O  O82  1  0.55372386  0.70434718  0.52336769  1  -1.179813  0  -0.318423  -0.55217  0  2.33783  0
O  O83  1  0.47074429  0.30550154  0.56340721  1  -1.166271  0  -0.314761  -0.544682  0  2.313077  0
O  O84  1  0.29816180  0.53953774  0.46534487  1  -1.176147  0  -0.31753  -0.551152  0  2.338066  0
O  O85  1  0.69530279  0.46753826  0.44085903  1  -1.161371  0  -0.316053  -0.547656  0  2.315014  0
