# generated using pymatgen
data_DyH31C27(NO3)2
_symmetry_space_group_name_H-M   'P 1'
_cell_length_a   7.95159740
_cell_length_b   8.46017503
_cell_length_c   19.59760000
_cell_angle_alpha   90.00000000
_cell_angle_beta   98.25560955
_cell_angle_gamma   90.00000000
_symmetry_Int_Tables_number   1
_chemical_formula_structural   DyH31C27(NO3)2
_chemical_formula_sum   'Dy2 H62 C54 N4 O12'
_cell_volume   1304.70609317
_cell_formula_units_Z   2
loop_
 _symmetry_equiv_pos_site_id
 _symmetry_equiv_pos_as_xyz
  1  'x, y, z'
loop_
 _atom_site_type_symbol
 _atom_site_label
 _atom_site_symmetry_multiplicity
 _atom_site_fract_x
 _atom_site_fract_y
 _atom_site_fract_z
 _atom_site_occupancy
 _atom_site_hle17_bader_spin_density
 _atom_site_hle17_ddec_charge
 _atom_site_hle17_ddec_spin_density
 _atom_site_hle17_ddec_sum_bond_order
 _atom_site_hle17_magmom
 _atom_site_hse06_10hf_bader_spin_density
 _atom_site_hse06_10hf_ddec_charge
 _atom_site_hse06_10hf_ddec_spin_density
 _atom_site_hse06_10hf_ddec_sum_bond_order
 _atom_site_hse06_10hf_magmom
 _atom_site_hse06_bader_spin_density
 _atom_site_hse06_ddec_charge
 _atom_site_hse06_ddec_spin_density
 _atom_site_hse06_ddec_sum_bond_order
 _atom_site_hse06_magmom
 _atom_site_pbe_bader_charge
 _atom_site_pbe_bader_spin_density
 _atom_site_pbe_cm5_charge
 _atom_site_pbe_ddec_charge
 _atom_site_pbe_ddec_spin_density
 _atom_site_pbe_ddec_sum_bond_order
 _atom_site_pbe_magmom
Dy  Dy0  1  0.49999634  0.66363993  0.75000147  1  0  2.138933  0  1.75275  0  0  1.961035  0  2.263252  0  0  2.01415  0  2.219272  0  2.143771  0  1.515556  1.921332  0  2.296886  0
Dy  Dy1  1  0.49999634  0.33635711  0.24999790  1  0  2.138882  0  1.752743  0  0  1.961085  0  2.263113  0  0  2.014201  0  2.219129  0  2.14368  0  1.515542  1.921349  0  2.296799  0
H  H2  1  0.47971981  0.87987896  0.59477833  1  0  0.074274  0  0.943591  0  0  0.081889  0  1.009065  0  0  0.084806  0  1.006312  0  0.063484  0  0.116569  0.079773  0  1.011056  0
H  H3  1  0.52027032  0.87988487  0.90523110  1  0  0.074175  0  0.943646  0  0  0.08193  0  1.009012  0  0  0.084851  0  1.006251  0  0.063609  0  0.116515  0.079811  0  1.011012  0
H  H4  1  0.52025126  0.12011572  0.40523356  1  0  0.073929  0  0.943845  0  0  0.081649  0  1.009275  0  0  0.084565  0  1.00652  0  0.063633  0  0.116421  0.079534  0  1.011268  0
H  H5  1  0.47972489  0.12011572  0.09477148  1  0  0.074178  0  0.943634  0  0  0.081931  0  1.008979  0  0  0.08485  0  1.006223  0  0.063576  0  0.116586  0.079814  0  1.010973  0
H  H6  1  0.09115669  0.76244758  0.63758928  1  0  0.129932  0  0.970753  0  0  0.131569  0  1.042234  0  0  0.136976  0  1.038185  0  0.157338  0  0.11196  0.127649  0  1.045308  0
H  H7  1  0.90882963  0.76245586  0.86240972  1  0  0.129811  0  0.97083  0  0  0.131544  0  1.042199  0  0  0.136954  0  1.038149  0  0.157257  0  0.111965  0.127623  0  1.045275  0
H  H8  1  0.90882201  0.23755537  0.36241540  1  0  0.12995  0  0.971001  0  0  0.131642  0  1.04236  0  0  0.13705  0  1.038315  0  0.157103  0  0.112057  0.127722  0  1.045434  0
H  H9  1  0.09116050  0.23756128  0.13758542  1  0  0.129882  0  0.970784  0  0  0.131576  0  1.042175  0  0  0.136987  0  1.038121  0  0.157268  0  0.111953  0.127657  0  1.045249  0
H  H10  1  0.50000396  0.23248810  0.75000396  1  0  0.139474  0  1.000325  0  0  0.147022  0  1.061085  0  0  0.150637  0  1.063071  0  0.04913  0  0.100615  0.144464  0  1.059868  0
H  H11  1  0.50001032  0.76752076  0.25000075  1  0  0.139489  0  1.000401  0  0  0.147061  0  1.061096  0  0  0.150678  0  1.063078  0  0.048778  0  0.100599  0.144514  0  1.059865  0
H  H12  1  0.52605363  0.33643985  0.55087256  1  0  0.110551  0  0.987084  0  0  0.120908  0  1.049514  0  0  0.123716  0  1.052111  0  0.034013  0  0.086559  0.118967  0  1.0478  0
H  H13  1  0.47396446  0.33645167  0.94913492  1  0  0.110503  0  0.987131  0  0  0.120807  0  1.049626  0  0  0.123615  0  1.052224  0  0.033946  0  0.086509  0.118865  0  1.047912  0
H  H14  1  0.47396827  0.66356547  0.44912596  1  0  0.110482  0  0.987144  0  0  0.120816  0  1.049602  0  0  0.123625  0  1.052199  0  0.034122  0  0.086494  0.118876  0  1.047888  0
H  H15  1  0.52605363  0.66355128  0.05086848  1  0  0.110556  0  0.987122  0  0  0.120904  0  1.049555  0  0  0.123713  0  1.052151  0  0.033978  0  0.086548  0.118963  0  1.047842  0
H  H16  1  0.91778988  0.33993505  0.67193949  1  0  0.131707  0  0.933177  0  0  0.15367  0  0.9883  0  0  0.156177  0  0.986745  0  0.066913  0  0.099339  0.151839  0  0.989493  0
H  H17  1  0.08222821  0.33994214  0.82807361  1  0  0.131658  0  0.933249  0  0  0.153597  0  0.988402  0  0  0.156104  0  0.986845  0  0.067208  0  0.09926  0.151767  0  0.989594  0
H  H18  1  0.08222058  0.66006199  0.32806755  1  0  0.131717  0  0.933196  0  0  0.153673  0  0.988329  0  0  0.15618  0  0.986773  0  0.067004  0  0.099346  0.151844  0  0.989522  0
H  H19  1  0.91778988  0.66004899  0.17192826  1  0  0.131711  0  0.933214  0  0  0.153681  0  0.98833  0  0  0.156186  0  0.986778  0  0.066955  0  0.099332  0.151849  0  0.98952  0
H  H20  1  0.81729552  0.27365982  0.58897723  1  0  0.109715  0  0.956917  0  0  0.130217  0  1.019107  0  0  0.131846  0  1.019097  0  0.028161  0  0.086867  0.129072  0  1.019108  0
H  H21  1  0.18273273  0.27367401  0.91103492  1  0  0.109706  0  0.957164  0  0  0.130245  0  1.019276  0  0  0.131869  0  1.019273  0  0.027531  0  0.086852  0.129099  0  1.019276  0
H  H22  1  0.18272511  0.72632894  0.41102632  1  0  0.109712  0  0.957145  0  0  0.130245  0  1.019293  0  0  0.131866  0  1.01929  0  0.027717  0  0.086884  0.129099  0  1.019293  0
H  H23  1  0.81728154  0.72632185  0.08896826  1  0  0.109782  0  0.957137  0  0  0.130311  0  1.019246  0  0  0.131942  0  1.019232  0  0.027948  0  0.086888  0.129164  0  1.019246  0
H  H24  1  0.78285745  0.17178959  0.66513910  1  0  0.126567  0  0.946877  0  0  0.14746  0  1.00744  0  0  0.149098  0  1.008557  0  0.091756  0  0.095698  0.146308  0  1.006687  0
H  H25  1  0.21714793  0.17178959  0.83487377  1  0  0.126485  0  0.946885  0  0  0.147381  0  1.007461  0  0  0.149024  0  1.008573  0  0.091735  0  0.095721  0.14623  0  1.006706  0
H  H26  1  0.21715683  0.82819800  0.33486663  1  0  0.126414  0  0.947023  0  0  0.14734  0  1.00754  0  0  0.148984  0  1.008652  0  0.091821  0  0.095707  0.146187  0  1.006787  0
H  H27  1  0.78286126  0.82819681  0.16513065  1  0  0.12653  0  0.946836  0  0  0.147415  0  1.007413  0  0  0.149054  0  1.008526  0  0.091837  0  0.095723  0.146262  0  1.00666  0
H  H28  1  0.88663423  0.66299101  0.71244687  1  0  0.077303  0  0.941924  0  0  0.086093  0  1.003784  0  0  0.089084  0  1.000521  0  0.081716  0  0.124538  0.083899  0  1.006208  0
H  H29  1  0.11336861  0.66301111  0.78755666  1  0  0.077287  0  0.94206  0  0  0.086085  0  1.003903  0  0  0.089074  0  1.000641  0  0.082292  0  0.12455  0.083893  0  1.006324  0
H  H30  1  0.11335717  0.33698830  0.28756263  1  0  0.077261  0  0.94211  0  0  0.086092  0  1.003897  0  0  0.089082  0  1.000629  0  0.081564  0  0.124596  0.083886  0  1.006334  0
H  H31  1  0.88663042  0.33699657  0.21244257  1  0  0.077398  0  0.941955  0  0  0.086178  0  1.003799  0  0  0.089168  0  1.000538  0  0.081423  0  0.124611  0.083987  0  1.006218  0
H  H32  1  0.90541251  0.08218742  0.81799451  1  0  0.120535  0  0.953977  0  0  0.141679  0  1.012749  0  0  0.143385  0  1.013045  0  0.062831  0  0.091625  0.14048  0  1.012568  0
H  H33  1  0.09459033  0.08217679  0.68200341  1  0  0.120546  0  0.953959  0  0  0.141682  0  1.012758  0  0  0.143389  0  1.013052  0  0.062881  0  0.091626  0.140482  0  1.012577  0
H  H34  1  0.09459541  0.91781907  0.18199911  1  0  0.120545  0  0.953934  0  0  0.141685  0  1.012712  0  0  0.143391  0  1.013005  0  0.06303  0  0.091626  0.14049  0  1.012526  0
H  H35  1  0.90541505  0.91781789  0.31800078  1  0  0.120506  0  0.954  0  0  0.141644  0  1.012799  0  0  0.143352  0  1.013097  0  0.062862  0  0.09163  0.140448  0  1.012613  0
H  H36  1  0.77219436  0.13500666  0.87925028  1  0  0.113403  0  0.954001  0  0  0.133639  0  1.019227  0  0  0.134891  0  1.020268  0  0.025864  0  0.089992  0.132823  0  1.018447  0
H  H37  1  0.22779324  0.13500903  0.62074573  1  0  0.1133  0  0.954137  0  0  0.133594  0  1.019303  0  0  0.134843  0  1.020348  0  0.025761  0  0.089995  0.132779  0  1.018522  0
H  H38  1  0.22782501  0.86500574  0.12074605  1  0  0.113352  0  0.954146  0  0  0.133599  0  1.01936  0  0  0.134852  0  1.0204  0  0.025789  0  0.089984  0.132784  0  1.01858  0
H  H39  1  0.77217911  0.86500929  0.37925347  1  0  0.113308  0  0.954031  0  0  0.133556  0  1.019263  0  0  0.134807  0  1.020306  0  0.025815  0  0.089978  0.132741  0  1.018482  0
H  H40  1  0.77151195  0.25452428  0.80442381  1  0  0.13675  0  0.952429  0  0  0.155721  0  1.01061  0  0  0.158753  0  1.008973  0  0.063787  0  0.097511  0.153512  0  1.011886  0
H  H41  1  0.22846675  0.25453019  0.69557066  1  0  0.136754  0  0.952446  0  0  0.155719  0  1.010637  0  0  0.15875  0  1.009002  0  0.063559  0  0.09752  0.153512  0  1.01191  0
H  H42  1  0.22848835  0.74547394  0.19556886  1  0  0.136709  0  0.952486  0  0  0.155676  0  1.010707  0  0  0.158708  0  1.009071  0  0.063816  0  0.097525  0.153467  0  1.011985  0
H  H43  1  0.77151449  0.74547748  0.30443008  1  0  0.136686  0  0.952485  0  0  0.155694  0  1.010644  0  0  0.158726  0  1.009009  0  0.063883  0  0.097553  0.153483  0  1.011926  0
H  H44  1  0.14441752  0.89655001  0.53742963  1  0  0.092201  0  0.945302  0  0  0.10688  0  1.003021  0  0  0.109734  0  1.001278  0  0.041599  0  0.107308  0.104747  0  1.004498  0
H  H45  1  0.85556626  0.89655237  0.96257330  1  0  0.092117  0  0.945263  0  0  0.106852  0  1.002956  0  0  0.109738  0  1.001167  0  0.04151  0  0.107289  0.104719  0  1.004433  0
H  H46  1  0.85555101  0.10345649  0.46258108  1  0  0.092104  0  0.94523  0  0  0.106867  0  1.002888  0  0  0.109757  0  1.001096  0  0.041302  0  0.107275  0.104733  0  1.004361  0
H  H47  1  0.14443023  0.10346476  0.03742323  1  0  0.092122  0  0.94524  0  0  0.106889  0  1.002898  0  0  0.109759  0  1.001129  0  0.041498  0  0.10729  0.104755  0  1.004374  0
H  H48  1  0.14211487  0.57764053  0.53520696  1  0  0.117863  0  0.955804  0  0  0.138014  0  1.016732  0  0  0.13988  0  1.016157  0  0.043086  0  0.090671  0.136674  0  1.017162  0
H  H49  1  0.85790322  0.57766535  0.96479848  1  0  0.117811  0  0.956102  0  0  0.137937  0  1.017009  0  0  0.139804  0  1.016436  0  0.042606  0  0.090576  0.136599  0  1.017435  0
H  H50  1  0.85789814  0.42234469  0.46479308  1  0  0.117905  0  0.956005  0  0  0.138088  0  1.016861  0  0  0.139953  0  1.016288  0  0.042793  0  0.090629  0.136748  0  1.01729  0
H  H51  1  0.14210725  0.42235769  0.03520499  1  0  0.117847  0  0.955875  0  0  0.138007  0  1.016776  0  0  0.139871  0  1.016203  0  0.042973  0  0.09063  0.136667  0  1.017208  0
H  H52  1  0.14160656  0.37095568  0.54909436  1  0  0.120916  0  0.947724  0  0  0.142439  0  1.007684  0  0  0.144309  0  1.007543  0  0.051255  0  0.093974  0.141126  0  1.007792  0
H  H53  1  0.85839120  0.37098878  0.95090174  1  0  0.120846  0  0.947968  0  0  0.142463  0  1.007775  0  0  0.144334  0  1.007635  0  0.051312  0  0.094044  0.141149  0  1.007883  0
H  H54  1  0.85840009  0.62902481  0.45090277  1  0  0.120936  0  0.947832  0  0  0.142523  0  1.007664  0  0  0.144393  0  1.007524  0  0.051342  0  0.094036  0.141211  0  1.007771  0
H  H55  1  0.14161037  0.62903545  0.04909458  1  0  0.120867  0  0.947851  0  0  0.142411  0  1.007759  0  0  0.144282  0  1.007617  0  0.051354  0  0.09398  0.141098  0  1.007867  0
H  H56  1  0.27129577  0.45014908  0.49072010  1  0  0.116457  0  0.967488  0  0  0.132881  0  1.035102  0  0  0.134406  0  1.036551  0  0.060873  0  0.086803  0.131798  0  1.034111  0
H  H57  1  0.72873122  0.45017390  0.00928586  1  0  0.116501  0  0.967509  0  0  0.132904  0  1.035105  0  0  0.13443  0  1.036555  0  0.060476  0  0.086773  0.131821  0  1.034117  0
H  H58  1  0.72872232  0.54983260  0.50927922  1  0  0.116559  0  0.967519  0  0  0.132978  0  1.03511  0  0  0.134503  0  1.036557  0  0.060696  0  0.086829  0.131895  0  1.034121  0
H  H59  1  0.27127797  0.54984323  0.99071702  1  0  0.116499  0  0.967458  0  0  0.132896  0  1.035084  0  0  0.134421  0  1.036529  0  0.060852  0  0.086795  0.131813  0  1.034094  0
H  H60  1  0.66278422  0.98489688  0.51178841  1  0  0.094045  0  0.963843  0  0  0.106231  0  1.023405  0  0  0.109112  0  1.022557  0  0.043945  0  0.103741  0.104177  0  1.024146  0
H  H61  1  0.33719956  0.98491107  0.98821351  1  0  0.094114  0  0.964088  0  0  0.106273  0  1.023647  0  0  0.109154  0  1.0228  0  0.044177  0  0.103845  0.104221  0  1.024384  0
H  H62  1  0.33718558  0.01509425  0.48821677  1  0  0.094124  0  0.964126  0  0  0.106257  0  1.02371  0  0  0.109137  0  1.022865  0  0.043946  0  0.10381  0.104205  0  1.024445  0
H  H63  1  0.66279311  0.01510134  0.01178280  1  0  0.094117  0  0.964007  0  0  0.106276  0  1.023565  0  0  0.109158  0  1.022715  0  0.043858  0  0.103761  0.104223  0  1.024302  0
C  C64  1  0.64153173  0.02903486  0.78759589  1  0  0.538878  0  3.773741  0  0  0.530765  0  4.037924  0  0  0.55808  0  4.04097  0  0.757509  0  0.121716  0.512552  0  4.034906  0
C  C65  1  0.35846603  0.02904077  0.71239766  1  0  0.538987  0  3.773582  0  0  0.530909  0  4.037705  0  0  0.558225  0  4.040748  0  0.757101  0  0.121787  0.512698  0  4.034688  0
C  C66  1  0.35846984  0.97096809  0.21240298  1  0  0.538842  0  3.773765  0  0  0.530734  0  4.037969  0  0  0.558047  0  4.041019  0  0.757471  0  0.121722  0.512521  0  4.034951  0
C  C67  1  0.64153682  0.97097282  0.28759669  1  0  0.538932  0  3.773606  0  0  0.530795  0  4.037835  0  0  0.558107  0  4.040884  0  0.757495  0  0.121708  0.512582  0  4.034817  0
C  C68  1  0.61621911  0.85701064  0.60182206  1  0  0.131359  0  3.749357  0  0  0.104744  0  4.006052  0  0  0.111144  0  4.023527  0  0.511134  0  0.048749  0.100567  0  3.994153  0
C  C69  1  0.38376848  0.85702600  0.89818160  1  0  0.131602  0  3.749072  0  0  0.10486  0  4.005767  0  0  0.111261  0  4.023242  0  0.511546  0  0.04884  0.100682  0  3.993874  0
C  C70  1  0.38375323  0.14296749  0.39817969  1  0  0.132027  0  3.749301  0  0  0.105326  0  4.00596  0  0  0.111731  0  4.023429  0  0.511671  0  0.048959  0.101145  0  3.994066  0
C  C71  1  0.61622801  0.14297104  0.10182105  1  0  0.131607  0  3.749244  0  0  0.104871  0  4.005948  0  0  0.111272  0  4.023422  0  0.51156  0  0.048764  0.100692  0  3.994052  0
C  C72  1  0.65123158  0.39209118  0.65219793  1  0  0.536964  0  3.782483  0  0  0.52864  0  4.045157  0  0  0.555657  0  4.048806  0  0.757858  0  0.125155  0.510572  0  4.041912  0
C  C73  1  0.34878270  0.39209354  0.84780576  1  0  0.536963  0  3.782549  0  0  0.528784  0  4.044988  0  0  0.555786  0  4.048665  0  0.758976  0  0.125248  0.510717  0  4.041746  0
C  C74  1  0.34877508  0.60789168  0.34780175  1  0  0.537144  0  3.782043  0  0  0.528847  0  4.044675  0  0  0.555842  0  4.048366  0  0.75838  0  0.125233  0.510785  0  4.041418  0
C  C75  1  0.65122777  0.60789050  0.15219872  1  0  0.536988  0  3.782336  0  0  0.528726  0  4.044933  0  0  0.55572  0  4.048623  0  0.758586  0  0.125165  0.510661  0  4.041684  0
C  C76  1  0.36396341  0.48857618  0.59954234  1  0  0.540296  0  3.770629  0  0  0.534311  0  4.029272  0  0  0.561515  0  4.032079  0  0.754065  0  0.127882  0.516151  0  4.026515  0
C  C77  1  0.63604197  0.48860573  0.90046185  1  0  0.540452  0  3.770967  0  0  0.534338  0  4.029783  0  0  0.561537  0  4.032596  0  0.754383  0  0.127913  0.516181  0  4.027025  0
C  C78  1  0.63604452  0.51140313  0.40045842  1  0  0.540558  0  3.770814  0  0  0.534429  0  4.029666  0  0  0.561627  0  4.032478  0  0.753898  0  0.127954  0.516269  0  4.026904  0
C  C79  1  0.36395706  0.51141022  0.09953687  1  0  0.540543  0  3.770992  0  0  0.534514  0  4.029678  0  0  0.561711  0  4.032491  0  0.754445  0  0.12796  0.516356  0  4.026915  0
C  C80  1  0.95627411  0.79096591  0.62544961  1  0  -0.157645  0  3.655139  0  0  -0.171856  0  3.898417  0  0  -0.179561  0  3.917325  0  0.003699  0  -0.075438  -0.166947  0  3.885969  0
C  C81  1  0.04372619  0.79098009  0.87454969  1  0  -0.157541  0  3.655192  0  0  -0.171819  0  3.89844  0  0  -0.179528  0  3.917352  0  0.003803  0  -0.075478  -0.166911  0  3.885992  0
C  C82  1  0.04370967  0.20901932  0.37455077  1  0  -0.157821  0  3.65528  0  0  -0.171961  0  3.898556  0  0  -0.17967  0  3.917469  0  0.003657  0  -0.075649  -0.167054  0  3.886104  0
C  C83  1  0.95627411  0.20902759  0.12545063  1  0  -0.157652  0  3.655155  0  0  -0.171841  0  3.898369  0  0  -0.179548  0  3.917279  0  0.003695  0  -0.075412  -0.166932  0  3.885922  0
C  C84  1  0.49999888  0.10411014  0.74999907  1  0  -0.482364  0  3.696233  0  0  -0.503846  0  3.95393  0  0  -0.530757  0  3.975094  0  -0.041364  0  -0.159764  -0.485832  0  3.939208  0
C  C85  1  0.50000523  0.89589399  0.24999995  1  0  -0.482318  0  3.696342  0  0  -0.503759  0  3.954014  0  0  -0.53067  0  3.97518  0  -0.041117  0  -0.159693  -0.485752  0  3.939284  0
C  C86  1  0.51586708  0.40344319  0.59758947  1  0  -0.48632  0  3.718662  0  0  -0.50801  0  3.975423  0  0  -0.534151  0  3.996236  0  -0.049735  0  -0.164285  -0.490559  0  3.960941  0
C  C87  1  0.48414974  0.40345619  0.90241947  1  0  -0.486201  0  3.718596  0  0  -0.50784  0  3.975342  0  0  -0.533978  0  3.996168  0  -0.049834  0  -0.164242  -0.490388  0  3.960854  0
C  C88  1  0.48415101  0.59654912  0.40241240  1  0  -0.48633  0  3.718476  0  0  -0.507985  0  3.975336  0  0  -0.53412  0  3.996164  0  -0.049883  0  -0.164292  -0.490534  0  3.960846  0
C  C89  1  0.51585945  0.59654203  0.09758087  1  0  -0.486463  0  3.718507  0  0  -0.508137  0  3.97527  0  0  -0.534273  0  3.996096  0  -0.050664  0  -0.164336  -0.490686  0  3.960785  0
C  C90  1  0.80158617  0.28933562  0.64328356  1  0  -0.406192  0  3.67033  0  0  -0.48432  0  3.900825  0  0  -0.490004  0  3.904999  0  -0.135323  0  -0.245321  -0.48025  0  3.897776  0
C  C91  1  0.19843573  0.28934035  0.85672721  1  0  -0.40614  0  3.670824  0  0  -0.484297  0  3.901235  0  0  -0.489977  0  3.905415  0  -0.134951  0  -0.245338  -0.480229  0  3.898186  0
C  C92  1  0.19842557  0.71065787  0.35672100  1  0  -0.406088  0  3.670613  0  0  -0.484241  0  3.901062  0  0  -0.489916  0  3.905252  0  -0.135081  0  -0.245369  -0.480176  0  3.898012  0
C  C93  1  0.80158236  0.71065196  0.14327517  1  0  -0.406268  0  3.670454  0  0  -0.484432  0  3.900918  0  0  -0.490109  0  3.905098  0  -0.13518  0  -0.245386  -0.48036  0  3.897866  0
C  C94  1  0.84307706  0.73726252  0.66796530  1  0  0.141688  0  3.719012  0  0  0.11486  0  3.970364  0  0  0.121731  0  3.987195  0  0.478942  0  0.053936  0.1104  0  3.958848  0
C  C95  1  0.15691943  0.73726962  0.83203838  1  0  0.14172  0  3.719229  0  0  0.114869  0  3.970611  0  0  0.121741  0  3.987441  0  0.478819  0  0.053937  0.110412  0  3.959088  0
C  C96  1  0.15691180  0.26273097  0.33204201  1  0  0.141735  0  3.719328  0  0  0.114859  0  3.970652  0  0  0.121735  0  3.987478  0  0.479346  0  0.053903  0.110414  0  3.959133  0
C  C97  1  0.84307579  0.26274752  0.16795859  1  0  0.141546  0  3.719348  0  0  0.114751  0  3.970643  0  0  0.121621  0  3.987476  0  0.47935  0  0.053835  0.110293  0  3.95912  0
C  C98  1  0.78108853  0.13266983  0.82368761  1  0  -0.412886  0  3.662203  0  0  -0.488674  0  3.891388  0  0  -0.494594  0  3.895231  0  -0.099863  0  -0.249145  -0.484485  0  3.888525  0
C  C99  1  0.21890415  0.13267338  0.67630870  1  0  -0.412782  0  3.662275  0  0  -0.488629  0  3.891462  0  0  -0.494542  0  3.895302  0  -0.099295  0  -0.249139  -0.484439  0  3.888595  0
C  C100  1  0.21891686  0.86732957  0.17630740  1  0  -0.412803  0  3.662317  0  0  -0.488622  0  3.891528  0  0  -0.49454  0  3.895369  0  -0.099868  0  -0.249156  -0.484434  0  3.888662  0
C  C101  1  0.78108472  0.86733785  0.32369045  1  0  -0.412744  0  3.662303  0  0  -0.488586  0  3.89153  0  0  -0.494502  0  3.895364  0  -0.099858  0  -0.249181  -0.484397  0  3.888664  0
C  C102  1  0.01616683  0.94524640  0.52519282  1  0  -0.10454  0  3.73404  0  0  -0.125882  0  3.987529  0  0  -0.128259  0  4.007297  0  -0.045369  0  -0.078418  -0.124214  0  3.974044  0
C  C103  1  0.98382076  0.94524877  0.97480830  1  0  -0.104395  0  3.733935  0  0  -0.125809  0  3.98743  0  0  -0.128204  0  4.007176  0  0.045279  0  -0.078396  -0.124143  0  3.973946  0
C  C104  1  0.98380678  0.05475064  0.47481514  1  0  -0.104464  0  3.733782  0  0  -0.125819  0  3.987301  0  0  -0.128215  0  4.007045  0  0.044253  0  -0.078406  -0.124148  0  3.973811  0
C  C105  1  0.01617827  0.05475891  0.02518583  1  0  -0.10455  0  3.733935  0  0  -0.125937  0  3.987473  0  0  -0.128323  0  4.007232  0  -0.046447  0  -0.07842  -0.124267  0  3.973986  0
C  C106  1  0.89517513  0.88488358  0.56798692  1  0  0.12746  0  3.816169  0  0  0.142833  0  4.044787  0  0  0.147048  0  4.068788  0  -0.08191  0  0.006396  0.140142  0  4.028498  0
C  C107  1  0.10482136  0.88489068  0.93201675  1  0  0.127528  0  3.816262  0  0  0.142916  0  4.044849  0  0  0.147131  0  4.068857  0  -0.081996  0  0.006498  0.140226  0  4.028561  0
C  C108  1  0.10481119  0.11511700  0.43202126  1  0  0.127605  0  3.815911  0  0  0.142783  0  4.044757  0  0  0.146996  0  4.068768  0  -0.081788  0  0.006456  0.140093  0  4.028469  0
C  C109  1  0.89517894  0.11512646  0.06797949  1  0  0.12767  0  3.815871  0  0  0.142892  0  4.044656  0  0  0.147107  0  4.068662  0  -0.081865  0  0.006437  0.140202  0  4.028368  0
C  C110  1  0.22264277  0.47185194  0.53952453  1  0  -0.407654  0  3.668562  0  0  -0.483141  0  3.896346  0  0  -0.488597  0  3.90001  0  -0.105863  0  -0.246349  -0.479255  0  3.893609  0
C  C111  1  0.77736769  0.47188385  0.96047945  1  0  -0.407665  0  3.668758  0  0  -0.483101  0  3.896546  0  0  -0.488558  0  3.90021  0  -0.105291  0  -0.246289  -0.479218  0  3.893816  0
C  C112  1  0.77736261  0.52812855  0.46047252  1  0  -0.407975  0  3.668853  0  0  -0.483453  0  3.896675  0  0  -0.488907  0  3.900337  0  -0.105401  0  -0.246397  -0.479566  0  3.893941  0
C  C113  1  0.22264277  0.52813919  0.03952351  1  0  -0.407773  0  3.668788  0  0  -0.483226  0  3.896572  0  0  -0.488678  0  3.900236  0  -0.105395  0  -0.246374  -0.479337  0  3.893836  0
C  C114  1  0.71935796  0.91580966  0.55618333  1  0  -0.173076  0  3.717316  0  0  -0.187075  0  3.958807  0  0  -0.194801  0  3.980447  0  -0.005425  0  -0.084998  -0.182133  0  3.944382  0
C  C115  1  0.28062836  0.91581793  0.94382281  1  0  -0.173206  0  3.717572  0  0  -0.18719  0  3.959082  0  0  -0.194917  0  3.980723  0  -0.00575  0  -0.085117  -0.18225  0  3.94466  0
C  C116  1  0.28061819  0.08418147  0.44382630  1  0  -0.173293  0  3.717598  0  0  -0.187204  0  3.959194  0  0  -0.19493  0  3.980831  0  -0.005794  0  -0.084995  -0.182264  0  3.944773  0
C  C117  1  0.71936432  0.08419684  0.05617503  1  0  -0.173269  0  3.717339  0  0  -0.187195  0  3.958879  0  0  -0.194922  0  3.980518  0  -0.005429  0  -0.084989  -0.182254  0  3.944457  0
N  N118  1  0.67576902  0.76936943  0.65732488  1  0  -0.392548  0  3.255208  0  0  -0.335508  0  3.516183  0  0  -0.349576  0  3.535499  0  -1.25043  0  -0.368349  -0.325873  0  3.502936  0
N  N119  1  0.32422492  0.76937888  0.84267813  1  0  -0.392677  0  3.255088  0  0  -0.335635  0  3.516128  0  0  -0.349704  0  3.535443  0  -1.250642  0  -0.368367  -0.325999  0  3.50288  0
N  N120  1  0.32420713  0.23061698  0.34268067  1  0  -0.392709  0  3.255294  0  0  -0.335674  0  3.516334  0  0  -0.349743  0  3.535646  0  -1.250342  0  -0.368328  -0.326032  0  3.503078  0
N  N121  1  0.67577411  0.23062289  0.15732059  1  0  -0.392641  0  3.255355  0  0  -0.335622  0  3.516367  0  0  -0.349691  0  3.535685  0  -1.250304  0  -0.368362  -0.325981  0  3.503118  0
O  O122  1  0.65621048  0.46042310  0.71081657  1  0  -0.689856  0  2.065345  0  0  -0.635837  0  2.316063  0  0  -0.661131  0  2.309019  0  -1.175278  0  -0.396781  -0.617962  0  2.320237  0
O  O123  1  0.34380506  0.46041601  0.78919076  1  0  -0.689879  0  2.065379  0  0  -0.635934  0  2.316092  0  0  -0.66121  0  2.309036  0  -1.176117  0  -0.396834  -0.618067  0  2.320284  0
O  O124  1  0.34378854  0.53956212  0.28918572  1  0  -0.689915  0  2.065291  0  0  -0.635952  0  2.316074  0  0  -0.661224  0  2.309018  0  -1.175529  0  -0.396832  -0.61808  0  2.320267  0
O  O125  1  0.65620667  0.53957631  0.21081176  1  0  -0.689747  0  2.065531  0  0  -0.635813  0  2.316313  0  0  -0.661091  0  2.309274  0  -1.175913  0  -0.396751  -0.617937  0  2.320498  0
O  O126  1  0.66060738  0.87916148  0.79499322  1  0  -0.694923  0  2.063165  0  0  -0.640679  0  2.316428  0  0  -0.666839  0  2.310395  0  -1.181285  0  -0.397309  -0.622113  0  2.319828  0
O  O127  1  0.33939928  0.87916503  0.70500136  1  0  -0.695101  0  2.063204  0  0  -0.640808  0  2.31636  0  0  -0.666964  0  2.310317  0  -1.181213  0  -0.397395  -0.622246  0  2.319769  0
O  O128  1  0.33939801  0.12083793  0.20500230  1  0  -0.694925  0  2.0632  0  0  -0.640671  0  2.316417  0  0  -0.666827  0  2.310382  0  -1.181354  0  -0.39734  -0.622101  0  2.319821  0
O  O129  1  0.66060483  0.12084265  0.29499562  1  0  -0.694958  0  2.063084  0  0  -0.640714  0  2.316334  0  0  -0.666872  0  2.310303  0  -1.181423  0  -0.397332  -0.622142  0  2.319736  0
O  O130  1  0.33456016  0.57745259  0.64919273  1  0  -0.661236  0  2.021561  0  0  -0.606606  0  2.266979  0  0  -0.630907  0  2.259008  0  -1.170216  0  -0.388849  -0.589464  0  2.271765  0
O  O131  1  0.66543633  0.57748214  0.85081707  1  0  -0.661284  0  2.022104  0  0  -0.606668  0  2.267654  0  0  -0.630969  0  2.259683  0  -1.170373  0  -0.388842  -0.589513  0  2.272403  0
O  O132  1  0.66544395  0.42252672  0.35081037  1  0  -0.661305  0  2.021843  0  0  -0.606661  0  2.267345  0  0  -0.63097  0  2.259396  0  -1.170204  0  -0.388871  -0.589523  0  2.272153  0
O  O133  1  0.33456270  0.42253618  0.14918165  1  0  -0.661275  0  2.021779  0  0  -0.606693  0  2.267282  0  0  -0.630995  0  2.259318  0  -1.17015  0  -0.388821  -0.589548  0  2.272065  0
