# generated using pymatgen
data_UH24C20(NO3)2
_symmetry_space_group_name_H-M   'P 1'
_cell_length_a   9.60918005
_cell_length_b   14.66822502
_cell_length_c   19.24584193
_cell_angle_alpha   89.99956717
_cell_angle_beta   89.99992838
_cell_angle_gamma   89.99982575
_symmetry_Int_Tables_number   1
_chemical_formula_structural   UH24C20(NO3)2
_chemical_formula_sum   'U4 H96 C80 N8 O24'
_cell_volume   2712.69401445
_cell_formula_units_Z   4
loop_
 _symmetry_equiv_pos_site_id
 _symmetry_equiv_pos_as_xyz
  1  'x, y, z'
loop_
 _atom_site_type_symbol
 _atom_site_label
 _atom_site_symmetry_multiplicity
 _atom_site_fract_x
 _atom_site_fract_y
 _atom_site_fract_z
 _atom_site_occupancy
 _atom_site_pbe_bader_charge
 _atom_site_pbe_bader_spin_density
 _atom_site_pbe_cm5_charge
 _atom_site_pbe_ddec_charge
 _atom_site_pbe_ddec_spin_density
 _atom_site_pbe_ddec_sum_bond_order
 _atom_site_pbe_magmom
U  U0  1  0.76911836  0.00925409  0.24487081  1  2.849498  0  2.159002  2.249055  0  4.920361  0
U  U1  1  0.73088327  0.99074670  0.74487208  1  2.85004  0  2.158987  2.248997  0  4.920654  0
U  U2  1  0.23088292  0.50925509  0.25512837  1  2.849114  0  2.159138  2.249035  0  4.920724  0
U  U3  1  0.26911557  0.49074046  0.75513252  1  2.849884  0  2.158985  2.248863  0  4.920534  0
H  H4  1  0.12538226  0.83423348  0.05213088  1  0.036021  0  0.088719  0.085656  0  1.016997  0
H  H5  1  0.37461985  0.16576407  0.55212854  1  0.036105  0  0.088711  0.085662  0  1.017055  0
H  H6  1  0.87462063  0.33423709  0.44786953  1  0.03611  0  0.088705  0.085681  0  1.017043  0
H  H7  1  0.62538049  0.66576306  0.94786807  1  0.036067  0  0.088703  0.08566  0  1.017014  0
H  H8  1  0.08312449  0.95112704  0.04635321  1  0.039197  0  0.09168  0.09274  0  1.009528  0
H  H9  1  0.41687452  0.04887057  0.54635203  1  0.039137  0  0.091679  0.092702  0  1.009504  0
H  H10  1  0.91687682  0.45112915  0.45364705  1  0.0392  0  0.091677  0.092765  0  1.009504  0
H  H11  1  0.58312428  0.54887095  0.95364682  1  0.039207  0  0.091669  0.092731  0  1.009508  0
H  H12  1  0.07693975  0.93867745  0.92537013  1  0.059905  0  0.091566  0.093292  0  1.007686  0
H  H13  1  0.42305831  0.06132256  0.42536949  1  0.05988  0  0.091577  0.093326  0  1.007702  0
H  H14  1  0.92305933  0.43867782  0.57462958  1  0.059866  0  0.091587  0.093391  0  1.007663  0
H  H15  1  0.57693961  0.56132192  0.07462990  1  0.059875  0  0.091587  0.09336  0  1.007674  0
H  H16  1  0.10366030  0.82032362  0.92898943  1  0.024449  0  0.087723  0.083858  0  1.030982  0
H  H17  1  0.39634087  0.17967636  0.42898812  1  0.02446  0  0.087717  0.083847  0  1.030977  0
H  H18  1  0.89634037  0.32032476  0.57101096  1  0.024461  0  0.087711  0.083857  0  1.030992  0
H  H19  1  0.60366066  0.67967501  0.07100955  1  0.024469  0  0.087723  0.083867  0  1.030944  0
H  H20  1  0.86101011  0.78781790  0.93062184  1  0.038147  0  0.102854  0.090984  0  0.986137  0
H  H21  1  0.63899105  0.21218038  0.43062051  1  0.038205  0  0.102867  0.09104  0  0.9861  0
H  H22  1  0.13899070  0.28781989  0.56938081  1  0.038179  0  0.102859  0.090979  0  0.98611  0
H  H23  1  0.36101137  0.71218158  0.06937697  1  0.038157  0  0.10286  0.091032  0  0.986146  0
H  H24  1  0.60519310  0.89353467  0.04884258  1  0.057263  0  0.086084  0.124162  0  1.029769  0
H  H25  1  0.89480590  0.10646328  0.54884160  1  0.057072  0  0.086078  0.124164  0  1.029834  0
H  H26  1  0.39480640  0.39353648  0.45115853  1  0.057091  0  0.086043  0.124117  0  1.029836  0
H  H27  1  0.10519368  0.60646191  0.95115743  1  0.057043  0  0.086074  0.124141  0  1.029838  0
H  H28  1  0.64824910  0.79411247  0.00079923  1  -0.024777  0  0.085223  0.115947  0  1.055703  0
H  H29  1  0.85174899  0.20588527  0.50079874  1  -0.024712  0  0.085199  0.115913  0  1.055702  0
H  H30  1  0.35174879  0.29411390  0.49920245  1  -0.024739  0  0.085214  0.115929  0  1.055671  0
H  H31  1  0.14824805  0.70588470  0.99920023  1  -0.024709  0  0.085215  0.115914  0  1.055705  0
H  H32  1  0.59759194  0.89392563  0.95607127  1  0.022218  0  0.090515  0.130904  0  1.01079  0
H  H33  1  0.90240916  0.10607240  0.45607039  1  0.022178  0  0.090537  0.130972  0  1.010722  0
H  H34  1  0.40240839  0.39392598  0.54393025  1  0.022172  0  0.090539  0.130975  0  1.010732  0
H  H35  1  0.09759271  0.60607097  0.04392874  1  0.02219  0  0.090527  0.130926  0  1.010757  0
H  H36  1  0.74762236  0.03085652  0.95153197  1  0.048057  0  0.094552  0.131949  0  1.00218  0
H  H37  1  0.75238396  0.96914155  0.45152878  1  0.047929  0  0.094557  0.131924  0  1.002141  0
H  H38  1  0.25237965  0.53085610  0.54847114  1  0.047963  0  0.094564  0.131954  0  1.002153  0
H  H39  1  0.24762456  0.46914353  0.04847033  1  0.048148  0  0.094547  0.13193  0  1.002186  0
H  H40  1  0.91397676  0.03348020  0.99137428  1  0.047048  0  0.091643  0.130839  0  1.000345  0
H  H41  1  0.58602945  0.96651680  0.49137173  1  0.046997  0  0.091599  0.130799  0  1.0005  0
H  H42  1  0.08602419  0.53348323  0.50862777  1  0.047017  0  0.091652  0.13085  0  1.000384  0
H  H43  1  0.41397908  0.46651816  0.00862740  1  0.046984  0  0.09162  0.13079  0  1.000409  0
H  H44  1  0.76164238  0.03389952  0.04343710  1  0.046747  0  0.094521  0.129632  0  1.010992  0
H  H45  1  0.73836184  0.96609576  0.54343539  1  0.046706  0  0.094515  0.129583  0  1.011007  0
H  H46  1  0.23835879  0.53390260  0.45656505  1  0.046767  0  0.094534  0.129609  0  1.01101  0
H  H47  1  0.26164439  0.46609846  0.95656467  1  0.04679  0  0.094543  0.12964  0  1.010965  0
H  H48  1  0.77959953  0.74703803  0.09341673  1  0.047062  0  0.087403  0.122243  0  1.049651  0
H  H49  1  0.72040249  0.25295676  0.59341605  1  0.047242  0  0.087408  0.122279  0  1.049656  0
H  H50  1  0.22040170  0.24704198  0.40658366  1  0.047228  0  0.087398  0.122243  0  1.049682  0
H  H51  1  0.27959745  0.75295889  0.90658213  1  0.047217  0  0.08737  0.122205  0  1.049721  0
H  H52  1  0.96033816  0.73665205  0.10921285  1  0.028908  0  0.090131  0.127732  0  1.006208  0
H  H53  1  0.53965965  0.26334121  0.60921222  1  0.029145  0  0.090168  0.127758  0  1.006196  0
H  H54  1  0.03966103  0.23665994  0.39078709  1  0.02896  0  0.090116  0.127729  0  1.00622  0
H  H55  1  0.46033815  0.76334314  0.89078538  1  0.028887  0  0.090123  0.127733  0  1.006207  0
H  H56  1  0.89602064  0.72067037  0.02405374  1  0.035335  0  0.090567  0.127882  0  1.011819  0
H  H57  1  0.60397843  0.27932646  0.52405350  1  0.035201  0  0.090576  0.127897  0  1.011893  0
H  H58  1  0.10397758  0.22067320  0.47594681  1  0.0352  0  0.090573  0.127875  0  1.011877  0
H  H59  1  0.39602139  0.77932700  0.97594453  1  0.035405  0  0.090595  0.127918  0  1.011819  0
H  H60  1  0.08865009  0.96622641  0.30929775  1  0.109655  0  0.124825  0.088193  0  0.99542  0
H  H61  1  0.41135242  0.03377338  0.80930082  1  0.109648  0  0.12478  0.088179  0  0.995384  0
H  H62  1  0.91134803  0.46622566  0.19070190  1  0.109644  0  0.12483  0.088177  0  0.995398  0
H  H63  1  0.58865478  0.53377566  0.69070019  1  0.109594  0  0.124846  0.088182  0  0.995374  0
H  H64  1  0.33343902  0.02668709  0.31713689  1  0.090506  0  0.109495  0.117634  0  1.024897  0
H  H65  1  0.16656243  0.97331194  0.81713727  1  0.090533  0  0.109508  0.117628  0  1.024877  0
H  H66  1  0.66655906  0.52668657  0.18286374  1  0.090497  0  0.109539  0.117715  0  1.024929  0
H  H67  1  0.83344168  0.47331211  0.68286068  1  0.090687  0  0.109542  0.117737  0  1.024957  0
H  H68  1  0.38352416  0.18226778  0.27070146  1  0.068618  0  0.111367  0.10275  0  0.995129  0
H  H69  1  0.11648054  0.81773239  0.77070225  1  0.068682  0  0.11139  0.102823  0  0.995087  0
H  H70  1  0.61647216  0.68226622  0.22929775  1  0.068569  0  0.111379  0.10278  0  0.995146  0
H  H71  1  0.88352743  0.31773336  0.72929763  1  0.068597  0  0.111359  0.102773  0  0.995096  0
H  H72  1  0.18554042  0.27289543  0.21812783  1  0.163364  0  0.111965  0.124799  0  1.042131  0
H  H73  1  0.31446233  0.72710799  0.71812590  1  0.16343  0  0.111981  0.12483  0  1.042046  0
H  H74  1  0.81445444  0.77289227  0.28187242  1  0.163419  0  0.111983  0.124832  0  1.042087  0
H  H75  1  0.68554293  0.22710884  0.78187503  1  0.163436  0  0.111968  0.124821  0  1.042119  0
H  H76  1  0.95012612  0.20211721  0.21358863  1  0.099025  0  0.128336  0.086381  0  0.985351  0
H  H77  1  0.54987767  0.79788457  0.71359114  1  0.099074  0  0.128364  0.086415  0  0.985404  0
H  H78  1  0.04987011  0.70211758  0.28640787  1  0.099084  0  0.128337  0.086444  0  0.985305  0
H  H79  1  0.45012830  0.29788585  0.78641042  1  0.09908  0  0.12837  0.086459  0  0.985359  0
H  H80  1  0.55309479  0.84371556  0.30794390  1  0.096089  0  0.130013  0.091215  0  0.976059  0
H  H81  1  0.94690460  0.15628734  0.80794260  1  0.095982  0  0.130043  0.091225  0  0.976002  0
H  H82  1  0.44690910  0.34371504  0.19205645  1  0.096017  0  0.130014  0.091232  0  0.975957  0
H  H83  1  0.05309267  0.65628454  0.69205614  1  0.095997  0  0.129993  0.091191  0  0.975936  0
H  H84  1  0.33707452  0.75388022  0.28243898  1  0.137439  0  0.113506  0.127803  0  1.020943  0
H  H85  1  0.16292702  0.24612461  0.78243838  1  0.137385  0  0.113504  0.127819  0  1.020876  0
H  H86  1  0.66293083  0.25387970  0.21756190  1  0.13757  0  0.113495  0.127835  0  1.020879  0
H  H87  1  0.83707191  0.74612204  0.71756296  1  0.137447  0  0.113531  0.127866  0  1.020861  0
H  H88  1  0.18553715  0.80327198  0.18276489  1  0.111534  0  0.112868  0.110328  0  0.996275  0
H  H89  1  0.31446568  0.19673042  0.68276499  1  0.111505  0  0.112909  0.110368  0  0.996383  0
H  H90  1  0.81446693  0.30327154  0.31723570  1  0.111514  0  0.112895  0.110319  0  0.996392  0
H  H91  1  0.68553452  0.69672990  0.81723767  1  0.111514  0  0.112895  0.110358  0  0.996353  0
H  H92  1  0.25902290  0.93984365  0.11264750  1  0.092305  0  0.109762  0.114058  0  1.021048  0
H  H93  1  0.24097907  0.06016012  0.61264845  1  0.092358  0  0.109752  0.114061  0  1.021028  0
H  H94  1  0.74098055  0.43984198  0.38735178  1  0.092241  0  0.109755  0.114052  0  1.021024  0
H  H95  1  0.75902280  0.56015604  0.88735345  1  0.092283  0  0.109747  0.114034  0  1.021061  0
H  H96  1  0.48419822  0.01666341  0.14160805  1  0.11267  0  0.12781  0.091681  0  0.985241  0
H  H97  1  0.01580055  0.98334007  0.64160846  1  0.112386  0  0.12784  0.091736  0  0.985203  0
H  H98  1  0.51580199  0.51666351  0.35839108  1  0.112687  0  0.127814  0.0917  0  0.985215  0
H  H99  1  0.98419624  0.48333548  0.85839150  1  0.112858  0  0.127821  0.091711  0  0.985212  0
C  C100  1  0.80603837  0.90070995  0.99763445  1  0.065689  0  0.00068  0.204615  0  3.696202  0
C  C101  1  0.69396054  0.09928495  0.49763322  1  0.065678  0  0.000683  0.204591  0  3.696193  0
C  C102  1  0.19395880  0.40071317  0.50236651  1  0.065623  0  0.000698  0.204694  0  3.696085  0
C  C103  1  0.30604033  0.59928896  0.00236543  1  0.065679  0  0.000752  0.2047  0  3.696188  0
C  C104  1  0.90271282  0.86344685  0.05804456  1  0.052149  0  -0.008815  0.021397  0  3.733404  0
C  C105  1  0.59728616  0.13654897  0.55804204  1  0.052215  0  -0.008703  0.021652  0  3.733226  0
C  C106  1  0.09728682  0.36345070  0.44195672  1  0.05221  0  -0.008742  0.021486  0  3.733467  0
C  C107  1  0.40271224  0.63654983  0.94195474  1  0.052155  0  -0.008784  0.02146  0  3.733415  0
C  C108  1  0.05021760  0.88272896  0.03022473  1  -0.039263  0  -0.165195  -0.194275  0  3.874433  0
C  C109  1  0.44978250  0.11726744  0.53022314  1  -0.039542  0  -0.165255  -0.194284  0  3.874439  0
C  C110  1  0.94978299  0.38273358  0.46977539  1  -0.039183  0  -0.16522  -0.194349  0  3.874459  0
C  C111  1  0.55021911  0.61726773  0.96977479  1  -0.039172  0  -0.165199  -0.194277  0  3.87431  0
C  C112  1  0.04033840  0.87584699  0.95019750  1  -0.072643  0  -0.167583  -0.161961  0  3.889754  0
C  C113  1  0.45966272  0.12415141  0.45019648  1  -0.072575  0  -0.16754  -0.161952  0  3.889773  0
C  C114  1  0.95966096  0.37584958  0.54980205  1  -0.072821  0  -0.167568  -0.162082  0  3.889677  0
C  C115  1  0.54033908  0.62415108  0.04980151  1  -0.072822  0  -0.167544  -0.161939  0  3.889764  0
C  C116  1  0.88567697  0.86103667  0.93348510  1  0.001846  0  -0.08395  -0.164872  0  3.809615  0
C  C117  1  0.61432522  0.13896226  0.43348317  1  0.001915  0  -0.083962  -0.164949  0  3.809664  0
C  C118  1  0.11432350  0.36103805  0.56651609  1  0.0018  0  -0.083992  -0.164835  0  3.809482  0
C  C119  1  0.38567754  0.63896344  0.06651421  1  0.001845  0  -0.083995  -0.165097  0  3.809912  0
C  C120  1  0.86828825  0.91270541  0.12526726  1  1.509514  0  0.208372  0.575094  0  4.10594  0
C  C121  1  0.63170848  0.08728974  0.62526552  1  1.509535  0  0.208307  0.574883  0  4.106008  0
C  C122  1  0.13171324  0.41270917  0.37473373  1  1.509545  0  0.208307  0.574871  0  4.106141  0
C  C123  1  0.36828702  0.58729133  0.87473310  1  1.509514  0  0.208264  0.574854  0  4.105986  0
C  C124  1  0.83750949  0.90092600  0.86557734  1  1.514558  0  0.206281  0.601788  0  4.123937  0
C  C125  1  0.66248976  0.09907565  0.36557510  1  1.51445  0  0.206256  0.601847  0  4.124094  0
C  C126  1  0.16248976  0.40092662  0.63442466  1  1.514546  0  0.206287  0.601814  0  4.123906  0
C  C127  1  0.33751007  0.59907489  0.13442252  1  1.514501  0  0.206287  0.601818  0  4.123968  0
C  C128  1  0.65551385  0.86863546  0.00129158  1  -0.036464  0  -0.250306  -0.428093  0  3.914628  0
C  C129  1  0.84448631  0.13136228  0.50129101  1  -0.036235  0  -0.250299  -0.428112  0  3.914593  0
C  C130  1  0.34448473  0.36863690  0.49870966  1  -0.03621  0  -0.250271  -0.428106  0  3.914527  0
C  C131  1  0.15551419  0.63136171  0.99870787  1  -0.036252  0  -0.250302  -0.42804  0  3.914619  0
C  C132  1  0.80834970  0.00563506  0.99595564  1  -0.125781  0  -0.240781  -0.420503  0  3.875634  0
C  C133  1  0.69165025  0.99436190  0.49595390  1  -0.125695  0  -0.240757  -0.420423  0  3.875891  0
C  C134  1  0.19165034  0.50563656  0.50404657  1  -0.125763  0  -0.240835  -0.420555  0  3.875829  0
C  C135  1  0.30835398  0.49436351  0.00404610  1  -0.125904  0  -0.240817  -0.420488  0  3.875649  0
C  C136  1  0.88255419  0.76094224  0.07162962  1  -0.085401  0  -0.243403  -0.402423  0  3.892551  0
C  C137  1  0.61744475  0.23905344  0.57162700  1  -0.085625  0  -0.243484  -0.402602  0  3.892675  0
C  C138  1  0.11744488  0.26094618  0.42837226  1  -0.085455  0  -0.243417  -0.402449  0  3.89262  0
C  C139  1  0.38255525  0.73905516  0.92836866  1  -0.085516  0  -0.243433  -0.402464  0  3.892635  0
C  C140  1  0.11556925  0.03385463  0.29005057  1  0.46175  0  0.057074  0.097607  0  3.947317  0
C  C141  1  0.38443123  0.96614466  0.79005137  1  0.461768  0  0.057107  0.097663  0  3.947287  0
C  C142  1  0.88442984  0.53385409  0.20994898  1  0.461814  0  0.057094  0.097681  0  3.947211  0
C  C143  1  0.61557188  0.46614704  0.70994661  1  0.461721  0  0.057014  0.097609  0  3.947295  0
C  C144  1  0.25069620  0.06758589  0.29427732  1  -0.067542  0  -0.079856  -0.127704  0  3.967497  0
C  C145  1  0.24930427  0.93241541  0.79427528  1  -0.067604  0  -0.079834  -0.127684  0  3.96748  0
C  C146  1  0.74930065  0.56758498  0.20572412  1  -0.067734  0  -0.079892  -0.127836  0  3.967648  0
C  C147  1  0.75069796  0.43241551  0.70572030  1  -0.06799  0  -0.079855  -0.12781  0  3.967681  0
C  C148  1  0.27851214  0.15427133  0.26801840  1  -0.013497  0  -0.059319  -0.015773  0  3.943559  0
C  C149  1  0.22149048  0.84572887  0.76801584  1  -0.013792  0  -0.059339  -0.015861  0  3.943608  0
C  C150  1  0.72148431  0.65426953  0.23198202  1  -0.013147  0  -0.059338  -0.015813  0  3.943722  0
C  C151  1  0.77851319  0.34573139  0.73198180  1  -0.013698  0  -0.059302  -0.015805  0  3.943608  0
C  C152  1  0.17012404  0.20438603  0.23856361  1  -0.004281  0  -0.07615  -0.126489  0  3.947878  0
C  C153  1  0.32987969  0.79561923  0.73855972  1  -0.004158  0  -0.076182  -0.126491  0  3.948007  0
C  C154  1  0.82987009  0.70438100  0.26143859  1  -0.004538  0  -0.076153  -0.126449  0  3.94797  0
C  C155  1  0.67012733  0.29561895  0.76143925  1  -0.003891  0  -0.076202  -0.126492  0  3.948064  0
C  C156  1  0.03791098  0.16559961  0.23638615  1  0.439689  0  0.059826  0.100312  0  3.943801  0
C  C157  1  0.46209276  0.83440226  0.73638507  1  0.439627  0  0.059786  0.100174  0  3.943955  0
C  C158  1  0.96208645  0.66559839  0.26361316  1  0.439583  0  0.05976  0.100029  0  3.943894  0
C  C159  1  0.53791097  0.33440222  0.76361368  1  0.439581  0  0.059793  0.10013  0  3.944002  0
C  C160  1  0.48575607  0.86157281  0.26435991  1  0.482664  0  0.05899  0.097009  0  3.948752  0
C  C161  1  0.01424447  0.13843151  0.76435898  1  0.482683  0  0.059041  0.097039  0  3.948778  0
C  C162  1  0.51424774  0.36157036  0.23564138  1  0.482788  0  0.059038  0.097024  0  3.948665  0
C  C163  1  0.98575392  0.63842779  0.73564194  1  0.482841  0  0.059031  0.09704  0  3.948654  0
C  C164  1  0.36434834  0.81278250  0.25063609  1  -0.078095  0  -0.079013  -0.136606  0  3.954655  0
C  C165  1  0.13565224  0.18722059  0.75063532  1  -0.078055  0  -0.079037  -0.136551  0  3.954617  0
C  C166  1  0.63565465  0.31278104  0.24936497  1  -0.078248  0  -0.078983  -0.136558  0  3.954479  0
C  C167  1  0.86434592  0.68721970  0.74936636  1  -0.07808  0  -0.079008  -0.136566  0  3.954604  0
C  C168  1  0.28081365  0.84024562  0.19505623  1  -0.065028  0  -0.061326  -0.021523  0  3.952919  0
C  C169  1  0.21918811  0.15975870  0.69505506  1  -0.06512  0  -0.061273  -0.021516  0  3.952959  0
C  C170  1  0.71919026  0.34024413  0.30494570  1  -0.065125  0  -0.06131  -0.021505  0  3.95282  0
C  C171  1  0.78081330  0.65975607  0.80494730  1  -0.065129  0  -0.061341  -0.021627  0  3.952911  0
C  C172  1  0.32239355  0.91498488  0.15542822  1  0.02035  0  -0.079808  -0.126405  0  3.971802  0
C  C173  1  0.17760310  0.08501779  0.65543010  1  0.020366  0  -0.079952  -0.126565  0  3.971845  0
C  C174  1  0.67760585  0.41498513  0.34456964  1  0.020345  0  -0.079874  -0.126449  0  3.971749  0
C  C175  1  0.82239449  0.58501400  0.84457217  1  0.020448  0  -0.079809  -0.126344  0  3.971787  0
C  C176  1  0.44676825  0.95863549  0.17170846  1  0.430606  0  0.059391  0.09541  0  3.964655  0
C  C177  1  0.05323045  0.04136770  0.67171067  1  0.430953  0  0.059314  0.095281  0  3.964839  0
C  C178  1  0.55323199  0.45863547  0.32828967  1  0.430672  0  0.05939  0.09539  0  3.964579  0
C  C179  1  0.94676631  0.54136246  0.82829238  1  0.430257  0  0.059337  0.095317  0  3.96465  0
N  N180  1  0.01067261  0.08183614  0.26151183  1  -1.224254  0  -0.36966  -0.295048  0  3.551526  0
N  N181  1  0.48932898  0.91816548  0.76151389  1  -1.224164  0  -0.369637  -0.294978  0  3.551405  0
N  N182  1  0.98932418  0.58183443  0.23848588  1  -1.224169  0  -0.36963  -0.294879  0  3.551403  0
N  N183  1  0.51067435  0.41816711  0.73848750  1  -1.224098  0  -0.369625  -0.294907  0  3.551393  0
N  N184  1  0.52721007  0.93267972  0.22530346  1  -1.218366  0  -0.361221  -0.285728  0  3.546429  0
N  N185  1  0.97278849  0.06732535  0.72530474  1  -1.218316  0  -0.361188  -0.285687  0  3.54657  0
N  N186  1  0.47278821  0.43267766  0.27469534  1  -1.218329  0  -0.361282  -0.285831  0  3.546435  0
N  N187  1  0.02720815  0.56731974  0.77469711  1  -1.218299  0  -0.361225  -0.285742  0  3.54635  0
O  O188  1  0.83362532  0.92128161  0.30296745  1  -0.889284  0  -0.767618  -0.701993  0  1.866687  0
O  O189  1  0.66635327  0.07872475  0.80297769  1  -0.888829  0  -0.767309  -0.701993  0  1.866082  0
O  O190  1  0.16635636  0.42127888  0.19702310  1  -0.888723  0  -0.767435  -0.70206  0  1.866111  0
O  O191  1  0.33362458  0.57871247  0.69703761  1  -0.88945  0  -0.767528  -0.701938  0  1.866694  0
O  O192  1  0.70482450  0.09834906  0.18757040  1  -0.892837  0  -0.770971  -0.712554  0  1.845094  0
O  O193  1  0.79518248  0.90166934  0.68758358  1  -0.893788  0  -0.771196  -0.712417  0  1.84596  0
O  O194  1  0.29517533  0.59833300  0.31241735  1  -0.892957  0  -0.771209  -0.712391  0  1.845971  0
O  O195  1  0.20481781  0.40164835  0.81243036  1  -0.893007  0  -0.770962  -0.712449  0  1.845225  0
O  O196  1  0.75317854  0.89291565  0.15576849  1  -1.150733  0  -0.360148  -0.589039  0  2.278245  0
O  O197  1  0.74681291  0.10708601  0.65577072  1  -1.150604  0  -0.360132  -0.588982  0  2.278258  0
O  O198  1  0.24681680  0.39291404  0.34422898  1  -1.150705  0  -0.360117  -0.588974  0  2.27838  0
O  O199  1  0.25317834  0.60708200  0.84423143  1  -1.150709  0  -0.36008  -0.588919  0  2.278274  0
O  O200  1  0.94646852  0.97361304  0.15189723  1  -1.149198  0  -0.33767  -0.579586  0  2.200534  0
O  O201  1  0.55353230  0.02638116  0.65189641  1  -1.14932  0  -0.337693  -0.579552  0  2.200645  0
O  O202  1  0.05353373  0.47361723  0.34810237  1  -1.149255  0  -0.337702  -0.579519  0  2.200614  0
O  O203  1  0.44646557  0.52638150  0.84810257  1  -1.149265  0  -0.33769  -0.579477  0  2.200457  0
O  O204  1  0.72180460  0.87530215  0.83872126  1  -1.153749  0  -0.351267  -0.601385  0  2.233985  0
O  O205  1  0.77819784  0.12469976  0.33871880  1  -1.153733  0  -0.351235  -0.601336  0  2.234  0
O  O206  1  0.27819685  0.37530091  0.66128089  1  -1.153766  0  -0.351256  -0.601356  0  2.233914  0
O  O207  1  0.22180395  0.62469897  0.16127867  1  -1.1537  0  -0.351275  -0.601362  0  2.233909  0
O  O208  1  0.90894524  0.96218298  0.83437040  1  -1.14872  0  -0.348717  -0.593038  0  2.26277  0
O  O209  1  0.59105096  0.03782306  0.33436596  1  -1.148537  0  -0.348702  -0.593109  0  2.262807  0
O  O210  1  0.09105269  0.46218139  0.66563176  1  -1.148629  0  -0.348718  -0.593067  0  2.262771  0
O  O211  1  0.40894603  0.53781777  0.16562994  1  -1.148698  0  -0.348702  -0.59301  0  2.262759  0
