# generated using pymatgen
data_MnP2H11C4NO7
_symmetry_space_group_name_H-M   'P 1'
_cell_length_a   5.51298991
_cell_length_b   12.27012091
_cell_length_c   14.64500000
_cell_angle_alpha   90.00000000
_cell_angle_beta   90.00000000
_cell_angle_gamma   98.18628567
_symmetry_Int_Tables_number   1
_chemical_formula_structural   MnP2H11C4NO7
_chemical_formula_sum   'Mn4 P8 H44 C16 N4 O28'
_cell_volume   980.56729316
_cell_formula_units_Z   4
loop_
 _symmetry_equiv_pos_site_id
 _symmetry_equiv_pos_as_xyz
  1  'x, y, z'
loop_
 _atom_site_type_symbol
 _atom_site_label
 _atom_site_symmetry_multiplicity
 _atom_site_fract_x
 _atom_site_fract_y
 _atom_site_fract_z
 _atom_site_occupancy
 _atom_site_hle17_ddec_charge
 _atom_site_hle17_ddec_spin_density
 _atom_site_hle17_ddec_sum_bond_order
 _atom_site_hle17_magmom
 _atom_site_hse06_10hf_ddec_charge
 _atom_site_hse06_10hf_ddec_spin_density
 _atom_site_hse06_10hf_ddec_sum_bond_order
 _atom_site_hse06_10hf_magmom
 _atom_site_hse06_ddec_charge
 _atom_site_hse06_ddec_spin_density
 _atom_site_hse06_ddec_sum_bond_order
 _atom_site_hse06_magmom
 _atom_site_pbe_bader_charge
 _atom_site_pbe_bader_spin_density
 _atom_site_pbe_cm5_charge
 _atom_site_pbe_ddec_charge
 _atom_site_pbe_ddec_spin_density
 _atom_site_pbe_ddec_sum_bond_order
 _atom_site_pbe_magmom
Mn  Mn0  1  0.72571440  0.61335638  0.03007853  1  1.312929  4.788957  1.670117  4.685  1.159445  4.722864  2.159128  4.557  1.217056  4.759356  2.087087  4.611  1.514035  4.587859  0.613672  1.113156  4.688199  2.211759  4.507
Mn  Mn1  1  0.77428569  0.88664619  0.53007921  1  1.312965  4.788938  1.670156  4.685  1.159462  4.722858  2.159195  4.557  1.217077  4.759352  2.087147  4.611  1.51403  4.587857  0.613683  1.11317  4.688193  2.211828  4.507
Mn  Mn2  1  0.27428946  0.38664588  0.96992011  1  1.313  4.788942  1.670108  4.685  1.159499  4.722873  2.159088  4.557  1.217118  4.759363  2.087049  4.611  1.513957  4.58788  0.613659  1.113211  4.688207  2.211714  4.507
Mn  Mn3  1  0.22571636  0.11335607  0.46992147  1  1.312975  4.78894  1.670168  4.685  1.159452  4.722851  2.159178  4.557  1.217074  4.759345  2.087139  4.611  1.514026  4.587854  0.613634  1.113162  4.688184  2.211808  4.507
P  P4  1  0.28391980  0.72837732  0.10343189  1  1.453823  0.00954  4.789117  0.007  1.293555  0.015187  5.28718  0.01  1.343571  0.011605  5.251326  0.009  3.296952  0.011689  0.369371  1.258104  0.018566  5.311259  0.012
P  P5  1  0.21608078  0.77162113  0.60343121  1  1.453882  0.00952  4.789088  0.007  1.293599  0.015188  5.287169  0.01  1.34362  0.011599  5.251311  0.009  3.296936  0.011687  0.369343  1.258148  0.018563  5.311249  0.012
P  P6  1  0.71607057  0.27161670  0.89657221  1  1.453823  0.00954  4.789223  0.007  1.293532  0.015189  5.287331  0.01  1.343562  0.01161  5.251468  0.009  3.296899  0.011687  0.369304  1.258084  0.018562  5.311405  0.012
P  P7  1  0.78393267  0.22838278  0.39656879  1  1.453741  0.009552  4.789138  0.007  1.293422  0.015186  5.287259  0.01  1.343452  0.011606  5.251399  0.009  3.296667  0.011688  0.369235  1.257972  0.018566  5.311332  0.012
P  P8  1  0.22348560  0.65042650  0.90998361  1  1.399842  0.008812  4.956484  0.007  1.237029  0.015707  5.451586  0.01  1.287641  0.011921  5.416135  0.008  3.317782  0.011853  0.344079  1.201252  0.019227  5.475154  0.012
P  P9  1  0.27651991  0.84957607  0.40998498  1  1.399837  0.008838  4.956692  0.007  1.237062  0.015697  5.451784  0.01  1.287665  0.011924  5.416339  0.008  3.31781  0.011853  0.344076  1.201283  0.019226  5.475351  0.012
P  P10  1  0.77650685  0.34957412  0.09001639  1  1.399883  0.008813  4.956396  0.007  1.237021  0.015702  5.451544  0.01  1.287618  0.01192  5.416097  0.008  3.317845  0.011852  0.344105  1.201242  0.019227  5.475105  0.012
P  P11  1  0.72348939  0.15042619  0.59001707  1  1.39996  0.00882  4.956332  0.007  1.237095  0.015703  5.451475  0.01  1.287682  0.011923  5.416031  0.008  3.317746  0.011854  0.34412  1.201313  0.019228  5.475038  0.012
H  H12  1  0.03516600  0.85907620  0.97376852  1  0.085038  -0.000252  0.953878  0.0  0.101413  -0.000114  1.020626  0.0  0.102133  -0.000206  1.020979  0.0  0.084083  0.000527  0.100934  0.100822  -1.6e-05  1.020449  0.0
H  H13  1  0.46484002  0.64092225  0.47376442  1  0.085078  -0.000248  0.953889  0.0  0.101445  -0.000114  1.020636  0.0  0.102167  -0.000206  1.02099  0.0  0.084095  0.000527  0.100935  0.100866  -1.6e-05  1.020446  0.0
H  H14  1  0.96483344  0.14091782  0.02623353  1  0.085097  -0.000237  0.95383  0.0  0.101455  -0.000114  1.020569  0.0  0.102176  -0.000206  1.020923  0.0  0.084128  0.000526  0.100954  0.100875  -1.6e-05  1.02038  0.0
H  H15  1  0.53515658  0.35908001  0.52623353  1  0.085035  -0.000256  0.953896  0.0  0.101393  -0.000114  1.020657  0.0  0.102114  -0.000206  1.021012  0.0  0.084059  0.000527  0.10092  0.100812  -1.6e-05  1.020468  0.0
H  H16  1  0.30807865  0.94021021  0.00985114  1  0.08672  2.8e-05  0.932727  0.0  0.103837  7.9e-05  0.995653  0.0  0.104771  3.3e-05  0.995994  0.0  0.06126  0.000435  0.096679  0.103066  0.000127  0.995563  0.0
H  H17  1  0.19192247  0.55979565  0.50985183  1  0.086611  3.1e-05  0.932738  0.0  0.103774  7.9e-05  0.995618  0.0  0.104708  3.3e-05  0.995957  0.0  0.061368  0.000435  0.096677  0.103005  0.000127  0.995527  0.0
H  H18  1  0.69191665  0.05978793  0.99014954  1  0.0867  3.8e-05  0.932704  0.0  0.103814  7.9e-05  0.995612  0.0  0.104748  3.4e-05  0.995952  0.0  0.061197  0.000435  0.096668  0.103044  0.000127  0.995523  0.0
H  H19  1  0.80807855  0.44020908  0.49014817  1  0.086675  2.5e-05  0.932609  0.0  0.10381  7.9e-05  0.995516  0.0  0.104745  3.3e-05  0.995855  0.0  0.06124  0.000435  0.096671  0.103038  0.000127  0.99543  0.0
H  H20  1  0.24215062  0.84942292  0.81442404  1  0.085158  -5.5e-05  0.965732  0.0  0.099468  5.6e-05  1.026899  0.0  0.101303  -1.5e-05  1.02623  0.0  0.0546  0.000554  0.096398  0.097976  0.000135  1.027635  0.0
H  H21  1  0.25783882  0.65057470  0.31442062  1  0.085132  -5.8e-05  0.965764  0.0  0.099476  5.5e-05  1.026914  0.0  0.10131  -1.5e-05  1.026247  0.0  0.054658  0.000554  0.096411  0.097982  0.000135  1.027653  0.0
H  H22  1  0.75784650  0.15057522  0.18557733  1  0.085135  -5.2e-05  0.965741  0.0  0.099458  5.5e-05  1.026897  0.0  0.101292  -1.5e-05  1.026233  0.0  0.054581  0.000554  0.096392  0.097965  0.000135  1.027637  0.0
H  H23  1  0.74215882  0.34942508  0.68557596  1  0.085159  -6.8e-05  0.965793  0.0  0.099455  5.6e-05  1.026974  0.0  0.101288  -1.6e-05  1.026307  0.0  0.054602  0.000554  0.096403  0.097963  0.000135  1.027708  0.0
H  H24  1  0.47467021  0.95223399  0.85417822  1  0.075141  -3.1e-05  0.940589  0.0  0.09042  2.8e-05  1.005265  0.0  0.092087  -8e-06  1.004225  0.0  0.026898  0.000282  0.090923  0.089071  6.9e-05  1.006215  0.0
H  H25  1  0.02533038  0.54776445  0.35418027  1  0.075166  -3.8e-05  0.940509  0.0  0.090442  2.8e-05  1.005223  0.0  0.092101  -8e-06  1.004191  0.0  0.026871  0.000281  0.090937  0.089094  6.8e-05  1.006168  0.0
H  H26  1  0.52532717  0.04776497  0.14582178  1  0.075165  -3.6e-05  0.940535  0.0  0.090422  2.8e-05  1.00524  0.0  0.092105  -8e-06  1.004183  0.0  0.026849  0.000281  0.090942  0.089075  6.8e-05  1.006185  0.0
H  H27  1  0.97466881  0.45223451  0.64581837  1  0.075178  -4e-05  0.940565  0.0  0.090452  2.8e-05  1.005252  0.0  0.092099  -8e-06  1.004234  0.0  0.026871  0.000281  0.090936  0.089104  6.8e-05  1.006198  0.0
H  H28  1  0.92787565  0.97526387  0.84790167  1  0.062605  -2.2e-05  0.915656  0.0  0.080962  4e-06  0.974952  0.0  0.081483  -1.4e-05  0.974736  0.0  0.020286  0.000163  0.109095  0.080448  2.5e-05  0.975297  0.0
H  H29  1  0.57212808  0.52474446  0.34789894  1  0.062608  -2.1e-05  0.915624  0.0  0.080938  4e-06  0.974943  0.0  0.081462  -1.4e-05  0.974733  0.0  0.019978  0.000163  0.109088  0.080424  2.5e-05  0.975287  0.0
H  H30  1  0.07212355  0.02474086  0.15209764  1  0.062623  -2e-05  0.915658  0.0  0.080987  4e-06  0.974913  0.0  0.081501  -1.4e-05  0.974693  0.0  0.020006  0.000163  0.109102  0.080472  2.5e-05  0.975259  0.0
H  H31  1  0.42787111  0.47525451  0.65209901  1  0.062587  -2e-05  0.915753  0.0  0.08095  4e-06  0.975014  0.0  0.081468  -1.4e-05  0.974796  0.0  0.019942  0.000163  0.109089  0.080435  2.5e-05  0.975362  0.0
H  H32  1  0.16880546  0.08133326  0.87778218  1  0.081687  -0.000211  0.912759  0.0  0.097651  -0.000241  0.972499  0.0  0.098457  -0.000249  0.972533  0.0  0.089357  4e-05  0.114556  0.096937  -0.000229  0.972642  0.0
H  H33  1  0.33121384  0.41867116  0.37778081  1  0.081695  -0.000206  0.912832  0.0  0.097648  -0.000241  0.972572  0.0  0.09846  -0.000249  0.972609  0.0  0.089432  4e-05  0.114557  0.096932  -0.000229  0.972716  0.0
H  H34  1  0.83120332  0.91866735  0.12221782  1  0.081641  -0.000204  0.912858  0.0  0.097586  -0.000241  0.972586  0.0  0.098387  -0.000249  0.972615  0.0  0.08937  4e-05  0.114538  0.096867  -0.000229  0.972733  0.0
H  H35  1  0.66878588  0.58132945  0.62221782  1  0.081674  -0.000202  0.912847  0.0  0.097617  -0.000241  0.972582  0.0  0.09842  -0.000249  0.972615  0.0  0.089424  4e-05  0.114554  0.0969  -0.000228  0.972727  0.0
H  H36  1  0.11813425  0.96429401  0.69746876  1  0.343161  -0.000699  0.876432  0.0  0.323098  -0.000561  0.935391  0.0  0.331305  -0.000646  0.929492  0.0  0.52806  0.000303  0.312839  0.317317  -0.00047  0.939522  0.0
H  H37  1  0.38186012  0.53570773  0.19746740  1  0.343126  -0.000701  0.876453  0.0  0.323061  -0.00056  0.93542  0.0  0.331269  -0.000646  0.929516  0.0  0.52803  0.000304  0.312824  0.317282  -0.00047  0.939548  0.0
H  H38  1  0.88186391  0.03570743  0.30252987  1  0.343178  -0.000703  0.87636  0.0  0.323101  -0.00056  0.935341  0.0  0.33131  -0.000646  0.929438  0.0  0.528065  0.000303  0.312833  0.317319  -0.00047  0.939478  0.0
H  H39  1  0.61812895  0.46428794  0.80252987  1  0.343088  -0.000705  0.876422  0.0  0.32301  -0.00056  0.935404  0.0  0.33122  -0.000647  0.929501  0.0  0.528026  0.000303  0.312786  0.317231  -0.00047  0.939538  0.0
H  H40  1  0.32895109  0.07191300  0.72329327  1  0.33417  -0.000263  0.842736  0.0  0.317764  -0.000181  0.896673  0.0  0.324879  -0.000262  0.891365  0.0  0.499939  0.000561  0.323235  0.312625  -9.3e-05  0.900635  0.0
H  H41  1  0.17104566  0.42808896  0.22329464  1  0.334155  -0.000261  0.842722  0.0  0.317748  -0.000181  0.896659  0.0  0.324863  -0.000262  0.891351  0.0  0.499909  0.000561  0.323225  0.312612  -9.3e-05  0.900623  0.0
H  H42  1  0.67104888  0.92808844  0.27670604  1  0.334172  -0.000264  0.842745  0.0  0.317776  -0.000181  0.896666  0.0  0.324889  -0.000262  0.89136  0.0  0.499961  0.000561  0.323241  0.312638  -9.3e-05  0.900628  0.0
H  H43  1  0.82894730  0.57190754  0.77670673  1  0.334285  -0.000264  0.84262  0.0  0.31781  -0.000181  0.896647  0.0  0.324924  -0.000262  0.891342  0.0  0.499968  0.000561  0.323262  0.312674  -9.3e-05  0.900611  0.0
H  H44  1  0.03634043  0.09040030  0.71812086  1  0.33908  -0.000205  0.893242  0.0  0.316696  -0.000206  0.955056  0.0  0.325329  -0.000232  0.948635  0.0  0.522858  0.000109  0.309182  0.310643  -0.000175  0.959546  0.0
H  H45  1  0.46365243  0.40960083  0.21811881  1  0.339087  -0.000202  0.893274  0.0  0.316691  -0.000206  0.955101  0.0  0.325328  -0.000232  0.948675  0.0  0.522877  0.000109  0.309158  0.310643  -0.000175  0.959586  0.0
H  H46  1  0.96365565  0.90960031  0.28188051  1  0.339085  -0.000207  0.893238  0.0  0.316706  -0.000206  0.955047  0.0  0.325339  -0.000232  0.948625  0.0  0.522866  0.000109  0.309173  0.310654  -0.000175  0.959538  0.0
H  H47  1  0.53633769  0.59039813  0.78188119  1  0.339113  -0.000207  0.893228  0.0  0.316727  -0.000205  0.955034  0.0  0.325366  -0.000232  0.948607  0.0  0.522835  0.000109  0.309209  0.310679  -0.000175  0.95952  0.0
H  H48  1  0.27226217  0.83147081  0.22531171  1  0.434996  -3.1e-05  0.876448  0.0  0.399342  8.8e-05  0.947347  0.0  0.411453  2.8e-05  0.929877  0.0  0.665848  0.000112  0.30324  0.390861  0.000149  0.959572  0.0
H  H49  1  0.22773997  0.66852681  0.72531171  1  0.435029  -3.3e-05  0.876414  0.0  0.399363  8.8e-05  0.947329  0.0  0.411481  2.8e-05  0.92985  0.0  0.665784  0.000112  0.303241  0.39088  0.000149  0.959558  0.0
H  H50  1  0.72773676  0.16852733  0.77468966  1  0.435042  -3.2e-05  0.876388  0.0  0.399378  8.8e-05  0.947304  0.0  0.411491  2.8e-05  0.92983  0.0  0.665931  0.000112  0.303269  0.390894  0.000149  0.959535  0.0
H  H51  1  0.77227037  0.33147298  0.27469102  1  0.435074  -3.2e-05  0.876346  0.0  0.39938  8.8e-05  0.947301  0.0  0.411499  2.8e-05  0.929819  0.0  0.66593  0.000112  0.303256  0.390898  0.000149  0.959529  0.0
H  H52  1  0.63784092  0.77451118  0.90508911  1  0.384473  -0.00048  0.83121  0.0  0.367149  -0.000115  0.889946  0.0  0.376133  -0.000274  0.880277  0.0  0.624069  0.000286  0.327316  0.36065  4.2e-05  0.896967  0.0
H  H53  1  0.86215554  0.72549138  0.40509116  1  0.3845  -0.000472  0.831187  0.0  0.367224  -0.000115  0.889876  0.0  0.37621  -0.000274  0.880195  0.0  0.624081  0.000286  0.32734  0.360717  4.2e-05  0.896916  0.0
H  H54  1  0.36214997  0.22548449  0.09490953  1  0.384474  -0.000478  0.831259  0.0  0.367186  -0.000114  0.889962  0.0  0.376175  -0.000274  0.880275  0.0  0.624115  0.000286  0.327303  0.360682  4.2e-05  0.896995  0.0
H  H55  1  0.13784548  0.27451335  0.59490884  1  0.384518  -0.000481  0.831194  0.0  0.367236  -0.000114  0.889891  0.0  0.376225  -0.000274  0.880203  0.0  0.624095  0.000286  0.327332  0.36073  4.2e-05  0.896929  0.0
C  C56  1  0.34218906  0.77110240  0.98269785  1  -0.235108  0.001817  3.609012  0.002  -0.196099  0.002696  3.859894  0.002  -0.204753  0.001824  3.871436  0.002  -0.403074  0.00578  0.053225  -0.190201  0.003566  3.851842  0.003
C  C57  1  0.15781619  0.72889934  0.48269580  1  -0.235033  0.001825  3.609215  0.002  -0.196043  0.002698  3.860104  0.002  -0.204697  0.001819  3.871649  0.002  -0.403136  0.00578  0.05327  -0.190145  0.003566  3.852051  0.003
C  C58  1  0.65781505  0.22889492  0.01730693  1  -0.234902  0.00183  3.609066  0.002  -0.195949  0.002695  3.859985  0.002  -0.204608  0.001826  3.871535  0.002  -0.403124  0.005778  0.053281  -0.190049  0.003565  3.851929  0.003
C  C59  1  0.84218586  0.27110291  0.51730352  1  -0.235004  0.001788  3.609103  0.002  -0.196018  0.0027  3.859999  0.002  -0.204678  0.001822  3.871552  0.002  -0.403103  0.005778  0.053233  -0.190116  0.003565  3.851941  0.003
C  C60  1  0.23355660  0.87632432  0.96063981  1  -0.123959  4.3e-05  3.695715  0.0  -0.176039  0.000452  3.95681  0.0  -0.176097  0.000172  3.971446  0.0  -0.056691  0.001312  -0.160306  -0.175797  0.000738  3.946715  0.001
C  C61  1  0.26645359  0.62368154  0.46063981  1  -0.123905  1.8e-05  3.695693  0.0  -0.175977  0.000451  3.9568  0.0  -0.176036  0.000173  3.971435  0.0  -0.05675  0.001312  -0.160307  -0.175744  0.000738  3.946701  0.001
C  C62  1  0.76644882  0.12367711  0.03935951  1  -0.124069  -1.8e-05  3.695748  0.0  -0.176113  0.000453  3.956829  0.0  -0.176175  0.00017  3.971473  0.0  -0.05674  0.001311  -0.160342  -0.175879  0.000738  3.946731  0.001
C  C63  1  0.73354690  0.37632154  0.53936087  1  -0.123915  5.8e-05  3.695674  0.0  -0.175969  0.000449  3.956726  0.0  -0.176028  0.000173  3.971362  0.0  -0.056686  0.001311  -0.16029  -0.175734  0.000738  3.946626  0.001
C  C64  1  0.28035150  0.91803747  0.86278184  1  -0.142979  -4.9e-05  3.669276  0.0  -0.182982  0.000222  3.936292  0.0  -0.184698  9.3e-05  3.948632  0.0  -0.029346  0.000688  -0.171819  -0.181585  0.00035  3.9278  0.0
C  C65  1  0.21965091  0.58196675  0.36278252  1  -0.142958  -1.8e-05  3.669175  0.0  -0.183054  0.000222  3.936259  0.0  -0.184759  9.3e-05  3.948605  0.0  -0.029409  0.000688  -0.171849  -0.181655  0.00035  3.927765  0.0
C  C66  1  0.71964925  0.08196644  0.13721748  1  -0.142948  -3.8e-05  3.669237  0.0  -0.182997  0.000223  3.936192  0.0  -0.184734  9.3e-05  3.948533  0.0  -0.029318  0.000688  -0.171823  -0.181598  0.00035  3.927698  0.0
C  C67  1  0.78034725  0.41803469  0.63721748  1  -0.143001  -2.2e-05  3.669367  0.0  -0.183037  0.000222  3.936324  0.0  -0.184744  9.2e-05  3.948666  0.0  -0.029348  0.000688  -0.171811  -0.181637  0.00035  3.927828  0.0
C  C68  1  0.12332756  0.00570271  0.83759713  1  0.092887  5.5e-05  3.544052  0.0  0.030225  8.8e-05  3.812451  0.0  0.034923  5.1e-05  3.822892  0.0  0.297659  0.000112  -0.057186  0.027129  0.000121  3.805356  0.0
C  C69  1  0.37667463  0.49429924  0.33759645  1  0.092888  2.8e-05  3.543992  0.0  0.030273  8.9e-05  3.812381  0.0  0.034948  4.9e-05  3.822848  0.0  0.297929  0.000112  -0.057173  0.027179  0.000121  3.805285  0.0
C  C70  1  0.87667371  0.99429707  0.16240219  1  0.092897  3.8e-05  3.5441  0.0  0.030322  8.8e-05  3.812352  0.0  0.035047  5e-05  3.822758  0.0  0.297944  0.000112  -0.05716  0.027231  0.000121  3.805254  0.0
C  C71  1  0.62331938  0.50570055  0.66240219  1  0.092863  1.4e-05  3.544198  0.0  0.030274  9.1e-05  3.812467  0.0  0.034986  4.9e-05  3.822885  0.0  0.297902  0.000112  -0.057213  0.027181  0.000121  3.80537  0.0
N  N72  1  0.15484530  0.03471937  0.73917446  1  -0.49571  -0.000307  3.167102  0.0  -0.440372  -0.000154  3.373253  0.0  -0.456297  -0.000353  3.371382  0.0  -1.187541  0.000833  -0.606594  -0.429404  5.4e-05  3.374725  0.001
N  N73  1  0.34515301  0.46528176  0.23917378  1  -0.495727  -0.000304  3.167163  0.0  -0.440357  -0.000154  3.373273  0.0  -0.456275  -0.000353  3.371403  0.0  -1.187525  0.000833  -0.606562  -0.429399  5.4e-05  3.374749  0.001
N  N74  1  0.84515571  0.96527959  0.26082554  1  -0.495732  -0.00029  3.167107  0.0  -0.44041  -0.000155  3.373205  0.0  -0.456342  -0.000351  3.371323  0.0  -1.187546  0.000833  -0.606575  -0.42945  5.3e-05  3.374679  0.001
N  N75  1  0.65484022  0.53471556  0.76082554  1  -0.495715  -0.000284  3.167029  0.0  -0.440321  -0.000156  3.373145  0.0  -0.45625  -0.000351  3.371263  0.0  -1.187462  0.000833  -0.606564  -0.429369  5.4e-05  3.374622  0.001
O  O76  1  0.46936557  0.65214571  0.13020143  1  -0.853605  0.033697  1.996729  0.021  -0.765289  0.040128  2.261856  0.024  -0.796064  0.035738  2.24091  0.02  -1.45685  0.064169  -0.361416  -0.742449  0.044261  2.27574  0.028
O  O77  1  0.03063476  0.84785192  0.63020485  1  -0.853674  0.0337  1.996706  0.021  -0.76535  0.040128  2.261829  0.024  -0.79613  0.03574  2.240886  0.02  -1.456852  0.064169  -0.36143  -0.74251  0.044261  2.275715  0.028
O  O78  1  0.53061961  0.34784338  0.86979788  1  -0.853739  0.033704  1.99685  0.021  -0.765362  0.040134  2.261898  0.024  -0.796155  0.035746  2.240963  0.02  -1.456856  0.064175  -0.361377  -0.742523  0.044269  2.275782  0.028
O  O79  1  0.96938518  0.15215528  0.36979720  1  -0.853652  0.033704  1.996724  0.021  -0.765282  0.04013  2.261797  0.024  -0.796067  0.035742  2.240857  0.02  -1.456893  0.064168  -0.361313  -0.742442  0.044262  2.27568  0.028
O  O80  1  0.01673414  0.67885609  0.11284875  1  -0.854302  0.041202  1.958991  0.026  -0.77478  0.050712  2.247965  0.031  -0.804781  0.044789  2.222764  0.026  -1.470543  0.079647  -0.37056  -0.752002  0.05629  2.264649  0.036
O  O81  1  0.48326308  0.82114319  0.61284739  1  -0.854325  0.041212  1.959044  0.026  -0.774795  0.050713  2.248024  0.031  -0.804794  0.044792  2.222817  0.026  -1.470526  0.079646  -0.370539  -0.75202  0.056292  2.264714  0.036
O  O82  1  0.98325754  0.32114206  0.88715193  1  -0.854256  0.0412  1.958932  0.026  -0.774776  0.050711  2.247952  0.031  -0.804774  0.044786  2.22274  0.026  -1.470563  0.079645  -0.370528  -0.752  0.05629  2.264639  0.036
O  O83  1  0.51674104  0.17885990  0.38715056  1  -0.854294  0.041198  1.958891  0.026  -0.774759  0.050713  2.247885  0.031  -0.804755  0.04479  2.222672  0.026  -1.470565  0.079649  -0.370542  -0.751981  0.05629  2.26457  0.036
O  O84  1  0.33967171  0.84024967  0.15872789  1  -0.755218  0.002082  1.996925  0.003  -0.68596  0.003182  2.232708  0.004  -0.707873  0.002338  2.208702  0.003  -1.44294  0.007503  -0.390092  -0.670388  0.004087  2.249056  0.005
O  O85  1  0.16032706  0.65974878  0.65872721  1  -0.755245  0.002089  1.996825  0.003  -0.686005  0.003181  2.232664  0.004  -0.707916  0.002337  2.208642  0.003  -1.442829  0.007502  -0.390103  -0.670431  0.004087  2.249012  0.005
O  O86  1  0.66033188  0.15974600  0.84127416  1  -0.755308  0.002085  1.996931  0.003  -0.68602  0.00318  2.232717  0.004  -0.707941  0.00234  2.208704  0.003  -1.442848  0.007503  -0.39015  -0.670445  0.004087  2.249066  0.005
O  O87  1  0.83968095  0.34025513  0.34127347  1  -0.755224  0.002083  1.996919  0.003  -0.68595  0.003182  2.232775  0.004  -0.707879  0.002336  2.208773  0.003  -1.44263  0.007504  -0.390084  -0.670373  0.004087  2.249121  0.005
O  O88  1  0.33778663  0.55549021  0.95372755  1  -0.893178  0.061593  2.106005  0.033  -0.798541  0.077473  2.418734  0.042  -0.831875  0.070068  2.392129  0.036  -1.481121  0.111352  -0.357126  -0.772974  0.084194  2.43606  0.047
O  O89  1  0.16222044  0.94451153  0.45372960  1  -0.893203  0.061592  2.10608  0.033  -0.798593  0.077478  2.418818  0.042  -0.83195  0.070071  2.392233  0.036  -1.481094  0.111368  -0.357168  -0.773022  0.084196  2.436132  0.047
O  O90  1  0.66220478  0.44450711  0.04626767  1  -0.893169  0.061588  2.106027  0.033  -0.79856  0.077474  2.418813  0.042  -0.831854  0.070061  2.392174  0.036  -1.481141  0.111355  -0.357155  -0.773024  0.084196  2.43621  0.047
O  O91  1  0.83779638  0.05549155  0.54627040  1  -0.893188  0.061598  2.105955  0.033  -0.798554  0.077477  2.418721  0.042  -0.831849  0.070066  2.392083  0.036  -1.481114  0.111362  -0.357155  -0.773012  0.084198  2.436103  0.047
O  O92  1  0.94331069  0.63548713  0.90812291  1  -0.858142  0.03436  1.971814  0.02  -0.773258  0.042485  2.252068  0.024  -0.802939  0.038034  2.228897  0.02  -1.469735  0.066153  -0.363902  -0.751114  0.046608  2.267476  0.027
O  O93  1  0.55669303  0.86451544  0.40812564  1  -0.858136  0.03435  1.971946  0.02  -0.773259  0.042491  2.252207  0.024  -0.802938  0.038037  2.229036  0.02  -1.469709  0.066152  -0.363919  -0.751118  0.046611  2.267618  0.027
O  O94  1  0.05668409  0.36450937  0.09187777  1  -0.858229  0.034358  1.971647  0.02  -0.773249  0.042482  2.251835  0.024  -0.802939  0.038033  2.228672  0.02  -1.469765  0.066148  -0.363917  -0.751105  0.046603  2.267243  0.027
O  O95  1  0.44331318  0.13549423  0.59187504  1  -0.858281  0.03437  1.971827  0.02  -0.773278  0.042485  2.252006  0.024  -0.80297  0.038036  2.22885  0.02  -1.469755  0.066155  -0.363904  -0.751136  0.046608  2.267419  0.027
O  O96  1  0.34205471  0.67654322  0.81555070  1  -0.832305  0.001764  2.004011  0.003  -0.747332  0.002862  2.235154  0.004  -0.773193  0.001921  2.215021  0.003  -1.460589  0.007899  -0.369078  -0.729118  0.003885  2.248878  0.005
O  O97  1  0.15794873  0.82345852  0.31555411  1  -0.832214  0.00175  2.004004  0.003  -0.747294  0.002863  2.235189  0.004  -0.773126  0.001919  2.215045  0.003  -1.460705  0.007899  -0.369026  -0.729075  0.003884  2.248913  0.005
O  O98  1  0.65793075  0.32345822  0.18444793  1  -0.832267  0.001758  2.003842  0.003  -0.747286  0.002862  2.235038  0.004  -0.773137  0.001919  2.214901  0.003  -1.460665  0.007898  -0.369052  -0.729074  0.003884  2.24877  0.005
O  O99  1  0.84206005  0.17654209  0.68444930  1  -0.832217  0.001758  2.00389  0.003  -0.747286  0.002863  2.235099  0.004  -0.773111  0.001921  2.214951  0.003  -1.460595  0.007899  -0.369038  -0.729065  0.003885  2.248829  0.005
O  O100  1  0.60850024  0.78586392  0.97036258  1  -0.527218  0.018672  2.117891  0.011  -0.477397  0.027258  2.346979  0.018  -0.493973  0.024285  2.336007  0.016  -1.145238  0.039568  -0.356652  -0.465004  0.03008  2.354398  0.02
O  O101  1  0.89150917  0.71413371  0.47036190  1  -0.52735  0.01866  2.118074  0.011  -0.477541  0.027256  2.347037  0.018  -0.494115  0.024284  2.336066  0.016  -1.145202  0.039565  -0.356718  -0.465149  0.030077  2.354455  0.02
O  O102  1  0.39150671  0.21413093  0.02963742  1  -0.527345  0.01867  2.11809  0.011  -0.477529  0.027253  2.347078  0.018  -0.494103  0.024284  2.336108  0.016  -1.145193  0.039551  -0.356691  -0.465134  0.030076  2.354497  0.02
O  O103  1  0.10849133  0.28586937  0.52963674  1  -0.527357  0.018679  2.118082  0.011  -0.477564  0.027254  2.347074  0.018  -0.494137  0.024284  2.336104  0.016  -1.145201  0.039553  -0.356703  -0.465171  0.030077  2.354492  0.02
