# generated using pymatgen
data_Ag2H4(C3O2)3
_symmetry_space_group_name_H-M   'P 1'
_cell_length_a   7.20965201
_cell_length_b   9.40085892
_cell_length_c   13.95249177
_cell_angle_alpha   89.99995058
_cell_angle_beta   103.89720498
_cell_angle_gamma   90.00009377
_symmetry_Int_Tables_number   1
_chemical_formula_structural   Ag2H4(C3O2)3
_chemical_formula_sum   'Ag8 H16 C36 O24'
_cell_volume   917.97585629
_cell_formula_units_Z   4
loop_
 _symmetry_equiv_pos_site_id
 _symmetry_equiv_pos_as_xyz
  1  'x, y, z'
loop_
 _atom_site_type_symbol
 _atom_site_label
 _atom_site_symmetry_multiplicity
 _atom_site_fract_x
 _atom_site_fract_y
 _atom_site_fract_z
 _atom_site_occupancy
 _atom_site_pbe_bader_spin_density
 _atom_site_pbe_cm5_charge
 _atom_site_pbe_ddec_charge
 _atom_site_pbe_ddec_spin_density
 _atom_site_pbe_ddec_sum_bond_order
 _atom_site_pbe_magmom
Ag  Ag0  1  0.84422964  0.47292610  0.59000866  1  0  0.430771  0.504263  0  1.823288  0
Ag  Ag1  1  0.65577278  0.97292615  0.40999220  1  0  0.430769  0.504304  0  1.823259  0
Ag  Ag2  1  0.15577637  0.52707189  0.40999363  1  0  0.430757  0.504246  0  1.823302  0
Ag  Ag3  1  0.34422607  0.02707397  0.59000854  1  0  0.430765  0.504262  0  1.823295  0
Ag  Ag4  1  0.02840563  0.82885483  0.48666043  1  0  0.43628  0.536633  0  1.865994  0
Ag  Ag5  1  0.47159162  0.32885716  0.51333882  1  0  0.436291  0.536661  0  1.865957  0
Ag  Ag6  1  0.97159606  0.17114742  0.51333993  1  0  0.436249  0.536597  0  1.86608  0
Ag  Ag7  1  0.52840864  0.67113977  0.48666137  1  0  0.436265  0.536595  0  1.866078  0
H  H8  1  0.77297227  0.49514411  0.79400933  1  0  0.315634  0.38745  0  0.940482  0
H  H9  1  0.72703306  0.99514770  0.20599186  1  0  0.315683  0.387466  0  0.940492  0
H  H10  1  0.22703234  0.50485176  0.20599352  1  0  0.315643  0.387438  0  0.940532  0
H  H11  1  0.27296439  0.00485668  0.79400944  1  0  0.315664  0.387496  0  0.940373  0
H  H12  1  0.76478904  0.22760147  0.89802951  1  0  0.105672  0.105019  0  1.006903  0
H  H13  1  0.73522260  0.72760200  0.10196253  1  0  0.105666  0.10503  0  1.006867  0
H  H14  1  0.23519957  0.77239972  0.10196216  1  0  0.105673  0.105067  0  1.00687  0
H  H15  1  0.26479192  0.27240025  0.89803860  1  0  0.105673  0.10503  0  1.006848  0
H  H16  1  0.74589244  0.02331110  0.01093861  1  0  0.101202  0.107146  0  1.033161  0
H  H17  1  0.75412038  0.52330523  0.98905871  1  0  0.101201  0.107146  0  1.033116  0
H  H18  1  0.25410489  0.97669647  0.98905909  1  0  0.101217  0.107144  0  1.033117  0
H  H19  1  0.24589702  0.47669489  0.01094348  1  0  0.101225  0.107149  0  1.033189  0
H  H20  1  0.75379975  0.77500992  0.94795058  1  0  0.10647  0.103796  0  1.023411  0
H  H21  1  0.74620088  0.27500722  0.05205090  1  0  0.106464  0.103782  0  1.023488  0
H  H22  1  0.24619919  0.22499339  0.05205304  1  0  0.106472  0.10378  0  1.0235  0
H  H23  1  0.25380368  0.72499290  0.94795050  1  0  0.106473  0.103787  0  1.023461  0
C  C24  1  0.77512749  0.84051361  0.80352242  1  0  -0.014784  -0.073088  0  3.94904  0
C  C25  1  0.72487050  0.34051709  0.19648158  1  0  -0.01481  -0.072993  0  3.949129  0
C  C26  1  0.22487144  0.15948332  0.19648120  1  0  -0.014743  -0.073022  0  3.948986  0
C  C27  1  0.27512554  0.65948409  0.80352026  1  0  -0.014733  -0.072998  0  3.949036  0
C  C28  1  0.78043867  0.95569037  0.73942117  1  0  0.010954  -0.010943  0  3.838027  0
C  C29  1  0.71956071  0.45569376  0.26057433  1  0  0.010998  -0.010957  0  3.838204  0
C  C30  1  0.21955440  0.04430231  0.26057675  1  0  0.010949  -0.010962  0  3.83807  0
C  C31  1  0.28043812  0.54431062  0.73942570  1  0  0.010935  -0.010949  0  3.83807  0
C  C32  1  0.77662409  0.09552958  0.77507897  1  0  -0.014838  -0.061783  0  3.923138  0
C  C33  1  0.72338027  0.59553526  0.22491660  1  0  -0.014867  -0.061873  0  3.923182  0
C  C34  1  0.22336748  0.90446736  0.22491663  1  0  -0.014825  -0.061656  0  3.923036  0
C  C35  1  0.27661998  0.40447018  0.77508358  1  0  -0.014852  -0.061786  0  3.922995  0
C  C36  1  0.76652668  0.11791470  0.87298575  1  0  -0.072251  -0.058065  0  3.944084  0
C  C37  1  0.73347905  0.61790988  0.12700638  1  0  -0.072305  -0.058109  0  3.944255  0
C  C38  1  0.23346195  0.88208649  0.12700663  1  0  -0.072261  -0.058214  0  3.944051  0
C  C39  1  0.26652690  0.38209024  0.87299375  1  0  -0.072304  -0.058144  0  3.944157  0
C  C40  1  0.75585957  0.00418887  0.93532012  1  0  -0.091079  -0.09103  0  4.002581  0
C  C41  1  0.74414477  0.50418840  0.06468052  1  0  -0.091088  -0.091098  0  4.002714  0
C  C42  1  0.24413495  0.99581550  0.06467869  1  0  -0.091146  -0.091089  0  4.002654  0
C  C43  1  0.25586124  0.49581172  0.93532177  1  0  -0.091077  -0.091036  0  4.002606  0
C  C44  1  0.76001298  0.86571975  0.90030743  1  0  -0.074584  -0.070555  0  3.944264  0
C  C45  1  0.73999200  0.36571592  0.09969092  1  0  -0.074488  -0.070393  0  3.943982  0
C  C46  1  0.23998730  0.13428144  0.09969348  1  0  -0.074516  -0.070429  0  3.944252  0
C  C47  1  0.26001111  0.63428633  0.90030960  1  0  -0.074534  -0.070433  0  3.943955  0
C  C48  1  0.79255583  0.69395682  0.76735863  1  0  0.239028  0.59759  0  4.065805  0
C  C49  1  0.70745006  0.19396237  0.23263419  1  0  0.239041  0.59746  0  4.0655  0
C  C50  1  0.20744735  0.30603904  0.23264405  1  0  0.239024  0.597577  0  4.065831  0
C  C51  1  0.29255155  0.80604308  0.76736400  1  0  0.238938  0.597478  0  4.065488  0
C  C52  1  0.79610224  0.93038105  0.63480011  1  0  0.206202  0.601925  0  4.182596  0
C  C53  1  0.70389858  0.43038749  0.36519772  1  0  0.206184  0.601864  0  4.182744  0
C  C54  1  0.20389368  0.06961056  0.36519814  1  0  0.206218  0.601896  0  4.182462  0
C  C55  1  0.29610167  0.56961583  0.63480247  1  0  0.206203  0.601936  0  4.182654  0
C  C56  1  0.78020208  0.22197551  0.70994108  1  0  0.205868  0.590399  0  4.15898  0
C  C57  1  0.71980387  0.72198111  0.29005174  1  0  0.205773  0.590203  0  4.159181  0
C  C58  1  0.21979077  0.77801504  0.29004965  1  0  0.205763  0.590041  0  4.159269  0
C  C59  1  0.28020212  0.27802114  0.70994983  1  0  0.205842  0.590183  0  4.159288  0
O  O60  1  0.75578943  0.58993648  0.82476615  1  0  -0.32044  -0.477975  0  2.32399  0
O  O61  1  0.74420662  0.08994321  0.17523706  1  0  -0.320472  -0.477881  0  2.324281  0
O  O62  1  0.24420520  0.41005513  0.17523625  1  0  -0.320466  -0.477986  0  2.324308  0
O  O63  1  0.25578946  0.91005798  0.82476623  1  0  -0.320373  -0.477879  0  2.324082  0
O  O64  1  0.84359272  0.67347686  0.68983060  1  0  -0.276979  -0.466702  0  2.396576  0
O  O65  1  0.65640521  0.17347586  0.31018209  1  0  -0.277031  -0.46682  0  2.395915  0
O  O66  1  0.15641495  0.32652007  0.31017905  1  0  -0.27698  -0.466759  0  2.396392  0
O  O67  1  0.34359667  0.82652639  0.68982474  1  0  -0.276994  -0.466818  0  2.396061  0
O  O68  1  0.64242882  0.90605556  0.56884052  1  0  -0.326728  -0.534875  0  2.507579  0
O  O69  1  0.85757624  0.40606423  0.43115781  1  0  -0.32671  -0.5348  0  2.507492  0
O  O70  1  0.35756570  0.09393286  0.43115828  1  0  -0.326669  -0.534741  0  2.507563  0
O  O71  1  0.14242975  0.59394015  0.56884376  1  0  -0.326675  -0.53483  0  2.507703  0
O  O72  1  0.96255930  0.93980158  0.62047542  1  0  -0.320368  -0.554073  0  2.487845  0
O  O73  1  0.53744148  0.43980353  0.37952025  1  0  -0.320351  -0.554033  0  2.487927  0
O  O74  1  0.03742955  0.06019641  0.37952416  1  0  -0.320463  -0.554195  0  2.487682  0
O  O75  1  0.46256445  0.56019978  0.62047916  1  0  -0.320389  -0.554135  0  2.487848  0
O  O76  1  0.74080144  0.20018179  0.61617202  1  0  -0.333994  -0.586263  0  2.491221  0
O  O77  1  0.75919310  0.70018626  0.38382163  1  0  -0.333902  -0.586061  0  2.491214  0
O  O78  1  0.25918863  0.79980982  0.38382125  1  0  -0.333937  -0.58605  0  2.491275  0
O  O79  1  0.24080999  0.29981812  0.61617817  1  0  -0.333916  -0.586063  0  2.491219  0
O  O80  1  0.82195765  0.34314955  0.74878068  1  0  -0.312039  -0.548864  0  2.282961  0
O  O81  1  0.67805997  0.84315621  0.25121342  1  0  -0.312023  -0.548823  0  2.283012  0
O  O82  1  0.17804805  0.65684526  0.25121154  1  0  -0.31201  -0.548721  0  2.282946  0
O  O83  1  0.32194598  0.15685243  0.74878672  1  0  -0.312112  -0.548883  0  2.283232  0
