# generated using pymatgen
data_Mg5H14(C10O11)2
_symmetry_space_group_name_H-M   'P 1'
_cell_length_a   7.33847488
_cell_length_b   11.46474272
_cell_length_c   11.68222144
_cell_angle_alpha   93.45713089
_cell_angle_beta   76.67268587
_cell_angle_gamma   74.48309707
_symmetry_Int_Tables_number   1
_chemical_formula_structural   Mg5H14(C10O11)2
_chemical_formula_sum   'Mg5 H14 C20 O22'
_cell_volume   913.70938376
_cell_formula_units_Z   1
loop_
 _symmetry_equiv_pos_site_id
 _symmetry_equiv_pos_as_xyz
  1  'x, y, z'
loop_
 _atom_site_type_symbol
 _atom_site_label
 _atom_site_symmetry_multiplicity
 _atom_site_fract_x
 _atom_site_fract_y
 _atom_site_fract_z
 _atom_site_occupancy
 _atom_site_pbe_bader_charge
 _atom_site_pbe_bader_spin_density
 _atom_site_pbe_cm5_charge
 _atom_site_pbe_ddec_charge
 _atom_site_pbe_ddec_spin_density
 _atom_site_pbe_ddec_sum_bond_order
 _atom_site_pbe_magmom
Mg  Mg0  1  0.52720257  0.14995478  0.68917454  1  1.686666  0  0.816059  1.383977  0  1.383581  0
Mg  Mg1  1  0.68334426  0.11711383  0.37294360  1  1.687748  0  0.81186  1.39445  0  1.390321  0
Mg  Mg2  1  0.47279662  0.85004783  0.31083102  1  1.686684  0  0.816101  1.38389  0  1.383694  0
Mg  Mg3  1  0.31665763  0.88288584  0.62705635  1  1.687776  0  0.811881  1.394437  0  1.390417  0
Mg  Mg4  1  0.99999730  0.00000214  0.50000588  1  1.675956  0  0.801312  1.387954  0  1.406373  0
H  H5  1  0.67164788  0.96900811  0.53387582  1  0.598774  0  0.305572  0.395975  0  0.935169  0
H  H6  1  0.58098885  0.36173431  0.67129549  1  0.622002  0  0.330488  0.407029  0  0.881628  0
H  H7  1  0.78104977  0.27724964  0.68179407  1  0.681009  0  0.324776  0.408389  0  0.898043  0
H  H8  1  0.54788801  0.24894715  0.21081200  1  0.619866  0  0.343179  0.423199  0  0.850093  0
H  H9  1  0.71344580  0.29026052  0.24968691  1  0.62146  0  0.330046  0.412915  0  0.880042  0
H  H10  1  0.30591408  0.50982758  0.54924884  1  0.075824  0  0.100936  0.102812  0  1.01998  0
H  H11  1  0.28609444  0.05642441  0.03552943  1  0.11029  0  0.11441  0.120721  0  0.988688  0
H  H12  1  0.32834230  0.03099903  0.46612859  1  0.598662  0  0.305543  0.395906  0  0.935253  0
H  H13  1  0.41900218  0.63827090  0.32870617  1  0.622067  0  0.330497  0.407001  0  0.88179  0
H  H14  1  0.21895014  0.72275139  0.31819335  1  0.681012  0  0.324846  0.408421  0  0.897975  0
H  H15  1  0.45207756  0.75105548  0.78919071  1  0.620294  0  0.343243  0.423322  0  0.850044  0
H  H16  1  0.28653475  0.70974313  0.75029567  1  0.621386  0  0.330052  0.412864  0  0.880091  0
H  H17  1  0.69409816  0.49017400  0.45075480  1  0.07593  0  0.100976  0.102937  0  1.020002  0
H  H18  1  0.71388680  0.94356814  0.96447246  1  0.109753  0  0.114345  0.1206  0  0.988399  0
C  C19  1  0.30051121  0.28020059  0.51698477  1  1.640912  0  0.230968  0.640592  0  4.203085  0
C  C20  1  0.13908071  0.39087485  0.50968531  1  0.024668  0  -0.003085  -0.023475  0  3.913766  0
C  C21  1  0.17102072  0.50448655  0.52792975  1  -0.022612  0  -0.083328  -0.121254  0  3.962529  0
C  C22  1  0.96396111  0.38674764  0.48191992  1  -0.056333  0  -0.013053  -0.055983  0  3.95028  0
C  C23  1  0.90954487  0.27010506  0.47156919  1  1.576762  0  0.223898  0.601498  0  4.21342  0
C  C24  1  0.10963534  0.97807054  0.22330281  1  1.59457  0  0.246889  0.658165  0  4.132764  0
C  C25  1  0.04410651  0.98965003  0.11081131  1  0.025562  0  -0.000378  -0.047361  0  3.932732  0
C  C26  1  0.15963783  0.03188718  0.01974240  1  -0.017902  0  -0.069296  -0.102127  0  3.930983  0
C  C27  1  0.11887560  0.04303120  0.90923314  1  -0.010413  0  0.003166  -0.02621  0  3.926632  0
C  C28  1  0.25790721  0.09003362  0.82190068  1  1.547965  0  0.219339  0.599807  0  4.176494  0
C  C29  1  0.69948605  0.71980006  0.48301673  1  1.641037  0  0.231054  0.640546  0  4.202802  0
C  C30  1  0.86093332  0.60910374  0.49031060  1  0.024948  0  -0.002993  -0.023206  0  3.913691  0
C  C31  1  0.82897165  0.49551568  0.47206480  1  -0.023074  0  -0.083448  -0.121497  0  3.963196  0
C  C32  1  0.03604508  0.61326449  0.51807375  1  -0.05667  0  -0.013194  -0.05627  0  3.950549  0
C  C33  1  0.09046430  0.72989085  0.52842790  1  1.576647  0  0.224004  0.60175  0  4.213773  0
C  C34  1  0.89037299  0.02192725  0.77669615  1  1.595947  0  0.246726  0.658012  0  4.133475  0
C  C35  1  0.95590170  0.01035126  0.88915950  1  0.02567  0  -0.000416  -0.047315  0  3.932315  0
C  C36  1  0.84039277  0.96811088  0.98026620  1  -0.018197  0  -0.069195  -0.10211  0  3.930001  0
C  C37  1  0.88111455  0.95695696  0.09079818  1  -0.010285  0  0.003139  -0.026116  0  3.926888  0
C  C38  1  0.74209110  0.90996784  0.17809812  1  1.548074  0  0.219358  0.59996  0  4.177485  0
O  O39  1  0.34749131  0.27603379  0.61462764  1  -1.234907  0  -0.347702  -0.648006  0  2.237213  0
O  O40  1  0.38681621  0.20501360  0.42287621  1  -1.251528  0  -0.355798  -0.664827  0  2.228689  0
O  O41  1  0.98959096  0.18433960  0.52440421  1  -1.23412  0  -0.332252  -0.624916  0  2.258275  0
O  O42  1  0.77826081  0.26691580  0.41765338  1  -1.237167  0  -0.346955  -0.654045  0  2.260082  0
O  O43  1  0.98136471  0.01632454  0.32325636  1  -1.278722  0  -0.36716  -0.709328  0  2.353329  0
O  O44  1  0.28957116  0.93239943  0.21243616  1  -1.220555  0  -0.334571  -0.609951  0  2.232487  0
O  O45  1  0.29279563  0.18746141  0.85091728  1  -1.17701  0  -0.322014  -0.559407  0  2.087996  0
O  O46  1  0.35402053  0.02568685  0.71985060  1  -1.273686  0  -0.388632  -0.715657  0  2.290106  0
O  O47  1  0.69845173  0.04811588  0.53082275  1  -1.416555  0  -0.694989  -1.130861  0  1.964836  0
O  O48  1  0.63933472  0.29953936  0.71598905  1  -1.294216  0  -0.575506  -0.770772  0  1.990367  0
O  O49  1  0.68032738  0.21917062  0.21997870  1  -1.226157  0  -0.567507  -0.7794  0  2.014326  0
O  O50  1  0.65250300  0.72396404  0.38537079  1  -1.234909  0  -0.347707  -0.647998  0  2.237184  0
O  O51  1  0.61317578  0.79499262  0.57712791  1  -1.251505  0  -0.355886  -0.664862  0  2.228673  0
O  O52  1  0.01040868  0.81565878  0.47560974  1  -1.234001  0  -0.332366  -0.625013  0  2.258332  0
O  O53  1  0.22175842  0.73307954  0.58232938  1  -1.23721  0  -0.346948  -0.654104  0  2.260234  0
O  O54  1  0.01862602  0.98367499  0.67676319  1  -1.279936  0  -0.366966  -0.709055  0  2.353658  0
O  O55  1  0.71044745  0.06760043  0.78757080  1  -1.220423  0  -0.334546  -0.609962  0  2.232581  0
O  O56  1  0.70720398  0.81254658  0.14908665  1  -1.176982  0  -0.322144  -0.559548  0  2.088242  0
O  O57  1  0.64599472  0.97429850  0.28013162  1  -1.273595  0  -0.388532  -0.715578  0  2.290638  0
O  O58  1  0.30154219  0.95189229  0.46918543  1  -1.416494  0  -0.694954  -1.130728  0  1.964848  0
O  O59  1  0.36066701  0.70046385  0.28400845  1  -1.294266  0  -0.575575  -0.770732  0  1.990544  0
O  O60  1  0.31965103  0.78083151  0.78001186  1  -1.226492  0  -0.567567  -0.779455  0  2.014375  0
