# generated using pymatgen
data_TbH16C12N3O11
_symmetry_space_group_name_H-M   'P 1'
_cell_length_a   12.40197515
_cell_length_b   12.74490817
_cell_length_c   17.57192510
_cell_angle_alpha   70.06446725
_cell_angle_beta   70.79966564
_cell_angle_gamma   63.86848297
_symmetry_Int_Tables_number   1
_chemical_formula_structural   TbH16C12N3O11
_chemical_formula_sum   'Tb4 H64 C48 N12 O44'
_cell_volume   2290.98823202
_cell_formula_units_Z   4
loop_
 _symmetry_equiv_pos_site_id
 _symmetry_equiv_pos_as_xyz
  1  'x, y, z'
loop_
 _atom_site_type_symbol
 _atom_site_label
 _atom_site_symmetry_multiplicity
 _atom_site_fract_x
 _atom_site_fract_y
 _atom_site_fract_z
 _atom_site_occupancy
 _atom_site_pbe_bader_charge
 _atom_site_pbe_bader_spin_density
 _atom_site_pbe_cm5_charge
 _atom_site_pbe_ddec_charge
 _atom_site_pbe_ddec_spin_density
 _atom_site_pbe_ddec_sum_bond_order
 _atom_site_pbe_magmom
Tb  Tb0  1  0.00318460  0.88617519  0.14445504  1  2.185795  0  1.499367  2.075669  0  2.122571  0
Tb  Tb1  1  0.99681610  0.11382360  0.85554728  1  2.185764  0  1.499405  2.075755  0  2.122374  0
Tb  Tb2  1  0.02969249  0.58844860  0.37610443  1  2.169893  0  1.490971  2.054099  0  2.091894  0
Tb  Tb3  1  0.97030849  0.41154748  0.62389733  1  2.169856  0  1.491005  2.054176  0  2.091882  0
H  H4  1  0.27373011  0.46293433  0.09923052  1  0.094739  0  0.115025  0.094238  0  1.001487  0
H  H5  1  0.72624756  0.53706630  0.90078054  1  0.094505  0  0.115073  0.094184  0  1.001529  0
H  H6  1  0.13628827  0.47618283  0.07705888  1  0.082685  0  0.120423  0.106764  0  0.957016  0
H  H7  1  0.86369692  0.52381634  0.92294514  1  0.082978  0  0.120427  0.10683  0  0.956781  0
H  H8  1  0.30079825  0.62030561  0.97311091  1  0.091336  0  0.114664  0.146993  0  0.957158  0
H  H9  1  0.69920686  0.37968240  0.02689355  1  0.091158  0  0.114706  0.146991  0  0.957046  0
H  H10  1  0.16735022  0.63187833  0.94637941  1  0.05723  0  0.106703  0.13036  0  0.97611  0
H  H11  1  0.83265184  0.36811503  0.05362446  1  0.057193  0  0.106668  0.130288  0  0.976203  0
H  H12  1  0.15702163  0.25135840  0.91458792  1  0.129206  0  0.117372  0.102826  0  0.998512  0
H  H13  1  0.84297549  0.74863661  0.08541610  1  0.129299  0  0.117388  0.102863  0  0.99859  0
H  H14  1  0.30115823  0.15977905  0.86432327  1  0.114736  0  0.117104  0.099966  0  0.998729  0
H  H15  1  0.69884233  0.84022432  0.13567571  1  0.114704  0  0.11709  0.099926  0  0.998658  0
H  H16  1  0.18826719  0.43358372  0.80107320  1  0.092355  0  0.108774  0.130547  0  0.971933  0
H  H17  1  0.81173328  0.56641138  0.19893176  1  0.092397  0  0.108725  0.130484  0  0.971916  0
H  H18  1  0.31383522  0.33239864  0.74606442  1  0.065487  0  0.104576  0.127774  0  0.975547  0
H  H19  1  0.68616147  0.66760362  0.25393969  1  0.065454  0  0.104577  0.127721  0  0.975505  0
H  H20  1  0.65962255  0.25467111  0.93656855  1  0.108607  0  0.113506  0.095509  0  1.00797  0
H  H21  1  0.34036501  0.74534727  0.06343037  1  0.108491  0  0.113492  0.095473  0  1.007938  0
H  H22  1  0.66041238  0.13808667  0.90249154  1  0.12824  0  0.11785  0.105337  0  1.001165  0
H  H23  1  0.33958935  0.86192223  0.09750472  1  0.128257  0  0.117874  0.105261  0  1.001386  0
H  H24  1  0.61825119  0.02373768  0.04779027  1  0.083942  0  0.105502  0.131953  0  0.989489  0
H  H25  1  0.38174795  0.97627102  0.95221289  1  0.084038  0  0.105492  0.131888  0  0.989433  0
H  H26  1  0.59758347  0.14380249  0.08621185  1  0.074167  0  0.105811  0.12905  0  0.977086  0
H  H27  1  0.40242606  0.85620390  0.91378724  1  0.074014  0  0.105777  0.129011  0  0.977148  0
H  H28  1  0.41056040  0.75758365  0.26819902  1  0.103667  0  0.114216  0.098517  0  0.974188  0
H  H29  1  0.58944096  0.24241157  0.73180058  1  0.103742  0  0.114259  0.09858  0  0.974177  0
H  H30  1  0.30900539  0.91093475  0.25350343  1  0.144106  0  0.118774  0.109835  0  0.98677  0
H  H31  1  0.69099899  0.08906154  0.74649239  1  0.14396  0  0.118729  0.109763  0  0.98687  0
H  H32  1  0.24821197  0.68947660  0.36310271  1  0.101597  0  0.108593  0.130481  0  1.009603  0
H  H33  1  0.75178278  0.31052833  0.63690063  1  0.101601  0  0.108593  0.130551  0  1.009585  0
H  H34  1  0.15533552  0.83496716  0.37991460  1  0.071779  0  0.111415  0.134247  0  0.96624  0
H  H35  1  0.84466872  0.16504181  0.62008222  1  0.071354  0  0.111445  0.134296  0  0.966155  0
H  H36  1  0.27354081  0.14479048  0.41614718  1  0.079812  0  0.119193  0.106932  0  0.965144  0
H  H37  1  0.72646741  0.85520686  0.58384753  1  0.080062  0  0.119184  0.106937  0  0.965099  0
H  H38  1  0.34329566  0.07882424  0.50438980  1  0.124137  0  0.11544  0.100839  0  0.999552  0
H  H39  1  0.65670942  0.92117665  0.49560306  1  0.123839  0  0.115449  0.100882  0  0.999563  0
H  H40  1  0.09708385  0.08099162  0.49731209  1  0.055156  0  0.105079  0.12684  0  0.975442  0
H  H41  1  0.90292436  0.91900569  0.50268433  1  0.055449  0  0.105103  0.126877  0  0.97541  0
H  H42  1  0.16782185  0.00986194  0.58548315  1  0.084269  0  0.112611  0.138632  0  0.964565  0
H  H43  1  0.83218529  0.99013814  0.41450887  1  0.08405  0  0.112638  0.138661  0  0.96448  0
H  H44  1  0.52609948  0.56774797  0.53652233  1  0.11806  0  0.115351  0.107126  0  0.987159  0
H  H45  1  0.47390048  0.43225259  0.46348087  1  0.118012  0  0.115327  0.10714  0  0.987123  0
H  H46  1  0.52523282  0.66591970  0.58893819  1  0.089509  0  0.117827  0.104707  0  0.977452  0
H  H47  1  0.47476977  0.33408279  0.41106282  1  0.089561  0  0.117811  0.104691  0  0.97746  0
H  H48  1  0.70551668  0.59543033  0.42911649  1  0.099702  0  0.114924  0.143347  0  0.97695  0
H  H49  1  0.29448275  0.40456759  0.57088120  1  0.099542  0  0.114919  0.143331  0  0.977034  0
H  H50  1  0.68823829  0.71945398  0.46002409  1  0.093946  0  0.11258  0.136388  0  0.98773  0
H  H51  1  0.31177089  0.28053875  0.53997662  1  0.093928  0  0.112602  0.136435  0  0.987747  0
H  H52  1  0.24332150  0.47309860  0.26309988  1  0.623633  0  0.332671  0.419485  0  0.86489  0
H  H53  1  0.75667233  0.52689643  0.73689635  1  0.623648  0  0.332753  0.419671  0  0.864939  0
H  H54  1  0.17073373  0.58248923  0.19865120  1  0.661438  0  0.302978  0.407514  0  0.926939  0
H  H55  1  0.82926251  0.41751215  0.80135037  1  0.661429  0  0.303006  0.407548  0  0.926875  0
H  H56  1  0.01940718  0.39234364  0.34130031  1  0.611468  0  0.332696  0.421112  0  0.863619  0
H  H57  1  0.98058374  0.60766029  0.65870128  1  0.611543  0  0.33276  0.421167  0  0.863535  0
H  H58  1  0.02303694  0.34189757  0.43719246  1  0.6588  0  0.305168  0.403841  0  0.928049  0
H  H59  1  0.97695678  0.65810375  0.56280799  1  0.658804  0  0.305163  0.40387  0  0.928031  0
H  H60  1  0.03110322  0.09511290  0.14954140  1  0.615692  0  0.326499  0.413581  0  0.874631  0
H  H61  1  0.96889834  0.90488594  0.85045901  1  0.615681  0  0.326521  0.413598  0  0.874593  0
H  H62  1  0.97169069  0.14448417  0.07082934  1  0.659544  0  0.297894  0.39949  0  0.93441  0
H  H63  1  0.02831088  0.85551470  0.92916935  1  0.659562  0  0.297889  0.399468  0  0.934448  0
H  H64  1  0.83293235  0.89912219  0.31000965  1  0.649412  0  0.303327  0.399023  0  0.934465  0
H  H65  1  0.16707017  0.10087855  0.68998781  1  0.649341  0  0.303314  0.398954  0  0.934553  0
H  H66  1  0.77888333  0.01374495  0.23974723  1  0.620006  0  0.331583  0.422384  0  0.863762  0
H  H67  1  0.22111853  0.98625936  0.76025237  1  0.62002  0  0.331598  0.422337  0  0.863837  0
C  C68  1  0.23909004  0.37088287  0.95823558  1  1.774537  0  0.340503  0.541022  0  4.181935  0
C  C69  1  0.76090154  0.62911100  0.04177168  1  1.77423  0  0.340523  0.540775  0  4.181974  0
C  C70  1  0.43396388  0.20971065  0.91700071  1  1.774804  0  0.342421  0.549865  0  4.182179  0
C  C71  1  0.56602168  0.79030382  0.08301154  1  1.776276  0  0.342389  0.549925  0  4.18206  0
C  C72  1  0.42548573  0.33694710  0.99960055  1  1.819904  0  0.341634  0.547278  0  4.173703  0
C  C73  1  0.57450688  0.66305852  0.00041221  1  1.819868  0  0.341488  0.547003  0  4.173566  0
C  C74  1  0.22617375  0.48461334  0.05018492  1  0.319764  0  -0.051489  -0.00949  0  3.877936  0
C  C75  1  0.77381252  0.51538307  0.94982293  1  0.319474  0  -0.051523  -0.009508  0  3.877884  0
C  C76  1  0.21006991  0.61223865  0.99774295  1  -0.027621  0  -0.157222  -0.321384  0  3.874503  0
C  C77  1  0.78993261  0.38775561  0.00226231  1  -0.02754  0  -0.157184  -0.321226  0  3.874363  0
C  C78  1  0.13133707  0.70306568  0.05015955  1  1.546225  0  0.218564  0.662377  0  4.095891  0
C  C79  1  0.86866205  0.29693488  0.94984214  1  1.546365  0  0.218649  0.662523  0  4.095935  0
C  C80  1  0.24588434  0.25034664  0.87408740  1  0.26535  0  -0.059684  -0.021829  0  3.885816  0
C  C81  1  0.75411338  0.74965117  0.12591355  1  0.265283  0  -0.059688  -0.021812  0  3.885946  0
C  C82  1  0.22660490  0.34171351  0.79200937  1  -0.067836  0  -0.159294  -0.321981  0  3.889761  0
C  C83  1  0.77339168  0.65828692  0.20799520  1  -0.067825  0  -0.159262  -0.321845  0  3.889626  0
C  C84  1  0.13769179  0.33191679  0.75505501  1  1.597672  0  0.238485  0.721859  0  4.080876  0
C  C85  1  0.86230572  0.66807737  0.24494628  1  1.598549  0  0.238464  0.721745  0  4.081043  0
C  C86  1  0.62128430  0.18528275  0.95255261  1  0.276635  0  -0.06105  -0.023809  0  3.888523  0
C  C87  1  0.37871160  0.81472769  0.04744916  1  0.276276  0  -0.061081  -0.023699  0  3.888513  0
C  C88  1  0.64850039  0.09865114  0.03480757  1  -0.045028  0  -0.162046  -0.327582  0  3.886348  0
C  C89  1  0.35150213  0.90134959  0.96519047  1  -0.044529  0  -0.16202  -0.32747  0  3.88614  0
C  C90  1  0.78396771  0.04676646  0.03638570  1  1.580984  0  0.240419  0.724846  0  4.080827  0
C  C91  1  0.21603582  0.95323625  0.96360424  1  1.57926  0  0.240338  0.724726  0  4.081085  0
C  C92  1  0.30856259  0.94919305  0.38509418  1  1.78346  0  0.340685  0.545915  0  4.179963  0
C  C93  1  0.69144298  0.05080231  0.61490501  1  1.782907  0  0.340718  0.545893  0  4.179795  0
C  C94  1  0.41833970  0.86182337  0.49981584  1  1.791235  0  0.342496  0.550386  0  4.170336  0
C  C95  1  0.58168473  0.13817819  0.50017478  1  1.791946  0  0.342335  0.549932  0  4.170657  0
C  C96  1  0.44244117  0.73513768  0.41136874  1  1.794781  0  0.343249  0.551518  0  4.166117  0
C  C97  1  0.55756192  0.26486579  0.58862965  1  1.794599  0  0.343355  0.551625  0  4.166073  0
C  C98  1  0.33098543  0.82423868  0.29805971  1  0.253013  0  -0.057136  -0.015267  0  3.876369  0
C  C99  1  0.66901863  0.17576021  0.70194296  1  0.25298  0  -0.057131  -0.015207  0  3.876406  0
C  C100  1  0.22088444  0.78532136  0.33257039  1  -0.047423  0  -0.158187  -0.322277  0  3.892574  0
C  C101  1  0.77910973  0.21468083  0.66743316  1  -0.046706  0  -0.158196  -0.322442  0  3.892701  0
C  C102  1  0.14852197  0.81296019  0.26928484  1  1.547852  0  0.221992  0.685744  0  4.100437  0
C  C103  1  0.85147574  0.18703759  0.73071726  1  1.547556  0  0.222033  0.68588  0  4.100537  0
C  C104  1  0.28280714  0.07418368  0.47330277  1  0.304037  0  -0.052474  -0.015321  0  3.868211  0
C  C105  1  0.71720009  0.92581819  0.52669051  1  0.304069  0  -0.052413  -0.015361  0  3.868341  0
C  C106  1  0.15618624  0.08471534  0.53022599  1  -0.027762  0  -0.160141  -0.324296  0  3.893254  0
C  C107  1  0.84382499  0.91528303  0.46976723  1  -0.027745  0  -0.160245  -0.324406  0  3.893302  0
C  C108  1  0.09536445  0.19980360  0.55953842  1  1.526143  0  0.215656  0.656031  0  4.100385  0
C  C109  1  0.90464031  0.80019992  0.44045958  1  1.526794  0  0.215595  0.655944  0  4.100517  0
C  C110  1  0.54580316  0.64711203  0.52840605  1  0.292521  0  -0.056981  -0.016525  0  3.875942  0
C  C111  1  0.45419803  0.35288770  0.47159480  1  0.292606  0  -0.05697  -0.016587  0  3.876012  0
C  C112  1  0.67811707  0.63162389  0.48408166  1  -0.040435  0  -0.157791  -0.326714  0  3.893327  0
C  C113  1  0.32188933  0.36837150  0.51591791  1  -0.04039  0  -0.157803  -0.326717  0  3.893479  0
C  C114  1  0.77343744  0.55452857  0.53551004  1  1.538918  0  0.222877  0.692349  0  4.089811  0
C  C115  1  0.22656356  0.44546756  0.46448886  1  1.538976  0  0.222885  0.692234  0  4.089732  0
N  N116  1  0.29989789  0.39354543  0.00128649  1  -1.195333  0  -0.250685  -0.238048  0  3.614464  0
N  N117  1  0.70009076  0.60645566  0.99871800  1  -1.194968  0  -0.250695  -0.237801  0  3.614355  0
N  N118  1  0.30985800  0.27740703  0.91781163  1  -1.154116  0  -0.252688  -0.241084  0  3.619574  0
N  N119  1  0.69013667  0.72258965  0.08219654  1  -1.153432  0  -0.252625  -0.241103  0  3.619501  0
N  N120  1  0.48839133  0.24657419  0.95582873  1  -1.171723  0  -0.250557  -0.23586  0  3.603278  0
N  N121  1  0.51160337  0.75343065  0.04417976  1  -1.172996  0  -0.250476  -0.23582  0  3.603045  0
N  N122  1  0.36674043  0.83736190  0.36522866  1  -1.170039  0  -0.250235  -0.23931  0  3.609171  0
N  N123  1  0.63327090  0.16263828  0.63476467  1  -1.170035  0  -0.250245  -0.239334  0  3.608869  0
N  N124  1  0.34269643  0.95811817  0.45007675  1  -1.174965  0  -0.251869  -0.239888  0  3.612011  0
N  N125  1  0.65730842  0.04187905  0.54991874  1  -1.174998  0  -0.251847  -0.239697  0  3.611974  0
N  N126  1  0.46189616  0.75123301  0.47968750  1  -1.181258  0  -0.2512  -0.244553  0  3.603514  0
N  N127  1  0.53810916  0.24876512  0.52030882  1  -1.181249  0  -0.251136  -0.244343  0  3.603385  0
O  O128  1  0.16317563  0.69340493  0.11563049  1  -1.202345  0  -0.365852  -0.647645  0  2.258411  0
O  O129  1  0.83682284  0.30659921  0.88437276  1  -1.202519  0  -0.365909  -0.64774  0  2.258509  0
O  O130  1  0.16194505  0.51912826  0.25050630  1  -1.256974  0  -0.625727  -0.829737  0  2.041825  0
O  O131  1  0.83804747  0.48087395  0.74949307  1  -1.256945  0  -0.625843  -0.829986  0  2.041842  0
O  O132  1  0.03551019  0.79018587  0.02980349  1  -1.190256  0  -0.334029  -0.612676  0  2.256838  0
O  O133  1  0.96448659  0.20981008  0.97019755  1  -1.190297  0  -0.334068  -0.612793  0  2.256883  0
O  O134  1  0.06136552  0.38284580  0.38273411  1  -1.238743  0  -0.626685  -0.816403  0  2.038526  0
O  O135  1  0.93863259  0.61715114  0.61726525  1  -1.238798  0  -0.626746  -0.816488  0  2.038485  0
O  O136  1  0.11052736  0.40833296  0.68809336  1  -1.211708  0  -0.410678  -0.6908  0  2.240232  0
O  O137  1  0.88946731  0.59167021  0.31190643  1  -1.211734  0  -0.410684  -0.690769  0  2.240391  0
O  O138  1  0.96338897  0.10005636  0.13032257  1  -1.2479  0  -0.623928  -0.818265  0  2.024242  0
O  O139  1  0.03661476  0.89994349  0.86967597  1  -1.247893  0  -0.62393  -0.818253  0  2.024233  0
O  O140  1  0.09366050  0.25070179  0.79159116  1  -1.215514  0  -0.398268  -0.690824  0  2.361242  0
O  O141  1  0.90633762  0.74929517  0.20840649  1  -1.216397  0  -0.398222  -0.690747  0  2.361155  0
O  O142  1  0.85236235  0.96246723  0.26222378  1  -1.241302  0  -0.62674  -0.822559  0  2.053951  0
O  O143  1  0.14764150  0.03753447  0.73777258  1  -1.241256  0  -0.62675  -0.822455  0  2.054031  0
O  O144  1  0.86139251  0.05434411  0.96850106  1  -1.222047  0  -0.411338  -0.70402  0  2.375038  0
O  O145  1  0.13860108  0.94565370  0.03149114  1  -1.221223  0  -0.411245  -0.703967  0  2.374882  0
O  O146  1  0.81300284  0.99678771  0.10686151  1  -1.206622  0  -0.406962  -0.685195  0  2.263132  0
O  O147  1  0.18700557  0.00321323  0.89313514  1  -1.206347  0  -0.406923  -0.685093  0  2.263436  0
O  O148  1  0.13001561  0.42854151  0.95672440  1  -1.127042  0  -0.278293  -0.468204  0  2.117424  0
O  O149  1  0.86998549  0.57145645  0.04327347  1  -1.127008  0  -0.27837  -0.468182  0  2.117408  0
O  O150  1  0.49172429  0.12464968  0.88327550  1  -1.15079  0  -0.287302  -0.490644  0  2.121403  0
O  O151  1  0.50827219  0.87534247  0.11673618  1  -1.151121  0  -0.287229  -0.490505  0  2.121849  0
O  O152  1  0.47716244  0.36388634  0.03474632  1  -1.137175  0  -0.284983  -0.47966  0  2.102028  0
O  O153  1  0.52281990  0.63612181  0.96525792  1  -1.136878  0  -0.284983  -0.479689  0  2.101435  0
O  O154  1  0.08618104  0.74841948  0.28081538  1  -1.216416  0  -0.424939  -0.755866  0  2.399422  0
O  O155  1  0.91382044  0.25157760  0.71918205  1  -1.216362  0  -0.424948  -0.755909  0  2.39934  0
O  O156  1  0.14494424  0.90044842  0.20692960  1  -1.183336  0  -0.362111  -0.616402  0  2.178035  0
O  O157  1  0.85505493  0.09955223  0.79306694  1  -1.183347  0  -0.362124  -0.61645  0  2.178157  0
O  O158  1  0.99542712  0.27956000  0.53861963  1  -1.194418  0  -0.361689  -0.635419  0  2.246479  0
O  O159  1  0.00457249  0.72044151  0.46138058  1  -1.194924  0  -0.361689  -0.635409  0  2.246364  0
O  O160  1  0.14351774  0.21753151  0.60584269  1  -1.181776  0  -0.35005  -0.61869  0  2.248842  0
O  O161  1  0.85648412  0.78247280  0.39415691  1  -1.181972  0  -0.350009  -0.618641  0  2.248834  0
O  O162  1  0.88638800  0.54009653  0.49943526  1  -1.209922  0  -0.446807  -0.75274  0  2.426912  0
O  O163  1  0.11361688  0.45989426  0.50056517  1  -1.209872  0  -0.446753  -0.752752  0  2.427034  0
O  O164  1  0.74869432  0.50487514  0.61153442  1  -1.201126  0  -0.354994  -0.617754  0  2.122898  0
O  O165  1  0.25130325  0.49511913  0.38846058  1  -1.20115  0  -0.355072  -0.617695  0  2.122742  0
O  O166  1  0.23313963  0.03450560  0.34785192  1  -1.128779  0  -0.288842  -0.477281  0  2.071277  0
O  O167  1  0.76687168  0.96549455  0.65214313  1  -1.128455  0  -0.288874  -0.477307  0  2.071327  0
O  O168  1  0.44371686  0.87362183  0.55765002  1  -1.129367  0  -0.290945  -0.484123  0  2.0832  0
O  O169  1  0.55629966  0.12638044  0.44233709  1  -1.129618  0  -0.290909  -0.483988  0  2.083026  0
O  O170  1  0.48879010  0.63696574  0.39333643  1  -1.134794  0  -0.283611  -0.484525  0  2.098102  0
O  O171  1  0.51120563  0.36302655  0.60666458  1  -1.134809  0  -0.283665  -0.484567  0  2.098406  0
