# generated using pymatgen
data_Ga2H22(C3N2)7
_symmetry_space_group_name_H-M   'P 1'
_cell_length_a   10.84560753
_cell_length_b   12.24119345
_cell_length_c   12.25655101
_cell_angle_alpha   119.54673483
_cell_angle_beta   116.25069210
_cell_angle_gamma   90.00337517
_symmetry_Int_Tables_number   1
_chemical_formula_structural   Ga2H22(C3N2)7
_chemical_formula_sum   'Ga4 H44 C42 N28'
_cell_volume   1218.96488113
_cell_formula_units_Z   2
loop_
 _symmetry_equiv_pos_site_id
 _symmetry_equiv_pos_as_xyz
  1  'x, y, z'
loop_
 _atom_site_type_symbol
 _atom_site_label
 _atom_site_symmetry_multiplicity
 _atom_site_fract_x
 _atom_site_fract_y
 _atom_site_fract_z
 _atom_site_occupancy
 _atom_site_pbe_bader_charge
 _atom_site_pbe_bader_spin_density
 _atom_site_pbe_cm5_charge
 _atom_site_pbe_ddec_charge
 _atom_site_pbe_ddec_spin_density
 _atom_site_pbe_ddec_sum_bond_order
 _atom_site_pbe_magmom
Ga  Ga0  1  0.50383781  0.99979368  0.50054210  1  1.771488  0  0.599467  0.931627  0  2.912061  0
Ga  Ga1  1  0.00322334  0.50017762  0.49941368  1  1.772068  0  0.59924  0.930237  0  2.91454  0
Ga  Ga2  1  0.49988218  0.00029195  0.99998703  1  1.767642  0  0.594973  0.933491  0  2.901441  0
Ga  Ga3  1  0.49991854  0.49973105  0.00002221  1  1.769086  0  0.595266  0.933871  0  2.90201  0
H  H4  1  0.51370394  0.90517873  0.21191241  1  0.146045  0  0.125123  0.068165  0  1.097966  0
H  H5  1  0.46283231  0.26160387  0.47958392  1  0.071439  0  0.113149  0.102181  0  1.035237  0
H  H6  1  0.45412100  0.26016870  0.25078209  1  0.119242  0  0.111303  0.103756  0  1.052386  0
H  H7  1  0.38245013  0.24587821  0.66608041  1  0.09955  0  0.123592  0.080793  0  1.062363  0
H  H8  1  0.80441137  0.21762733  0.79077131  1  0.108093  0  0.11502  0.112293  0  1.028321  0
H  H9  1  0.80649550  0.44106754  0.01787643  1  0.105308  0  0.113541  0.10815  0  1.027893  0
H  H10  1  0.74757234  0.05199820  0.42809015  1  0.069122  0  0.118631  0.075484  0  1.041383  0
H  H11  1  0.77409214  0.94031693  0.71079978  1  0.080284  0  0.106273  0.098009  0  1.055823  0
H  H12  1  0.03119131  0.95868968  0.71723155  1  0.084166  0  0.10238  0.095268  0  1.045828  0
H  H13  1  0.77511587  0.86955528  0.01420148  1  0.106075  0  0.114467  0.10412  0  1.027752  0
H  H14  1  0.52783942  0.50680895  0.51693467  1  0.546454  0  0.28605  0.231504  0  1.067914  0
H  H15  1  0.30166025  0.59482176  0.78792232  1  0.105746  0  0.125104  0.067892  0  1.098402  0
H  H16  1  0.98323139  0.23835951  0.52033551  1  0.1191  0  0.11359  0.102955  0  1.034769  0
H  H17  1  0.20329955  0.23986547  0.74919008  1  0.096156  0  0.11148  0.103987  0  1.052833  0
H  H18  1  0.71629489  0.25418002  0.33384600  1  0.109097  0  0.124098  0.081284  0  1.061689  0
H  H19  1  0.01363545  0.28228277  0.20910484  1  0.102219  0  0.11499  0.11281  0  1.028486  0
H  H20  1  0.78865519  0.05885105  0.98201883  1  0.113138  0  0.113009  0.106894  0  1.028831  0
H  H21  1  0.31922283  0.44794726  0.57184449  1  0.076486  0  0.118642  0.076214  0  1.041339  0
H  H22  1  0.06340033  0.55966145  0.28906346  1  0.103322  0  0.106286  0.097906  0  1.056197  0
H  H23  1  0.31428012  0.54143281  0.28300111  1  0.081506  0  0.10231  0.09526  0  1.045366  0
H  H24  1  0.76105828  0.63048592  0.98591764  1  0.086891  0  0.114275  0.103557  0  1.027164  0
H  H25  1  0.01109201  0.99316105  0.48308796  1  0.554502  0  0.285845  0.230988  0  1.067994  0
H  H26  1  0.48902385  0.09684319  0.78951794  1  0.130695  0  0.123999  0.066981  0  1.101885  0
H  H27  1  0.53084763  0.73714763  0.51730039  1  0.09332  0  0.114523  0.103892  0  1.034136  0
H  H28  1  0.54041870  0.73954133  0.74744201  1  0.079407  0  0.111408  0.102934  0  1.051266  0
H  H29  1  0.61784575  0.75503546  0.33379787  1  0.106675  0  0.125169  0.083399  0  1.062593  0
H  H30  1  0.19531508  0.78134778  0.20801600  1  0.099748  0  0.112232  0.107297  0  1.031793  0
H  H31  1  0.19377075  0.55827069  0.98180066  1  0.109322  0  0.112824  0.106042  0  1.028378  0
H  H32  1  0.25409599  0.94758390  0.57226316  1  0.147826  0  0.134813  0.096657  0  1.018232  0
H  H33  1  0.22488707  0.05872870  0.28795170  1  0.107671  0  0.115489  0.109627  0  1.038584  0
H  H34  1  0.96796130  0.04262620  0.28409095  1  0.120476  0  0.117852  0.11488  0  1.029529  0
H  H35  1  0.22422690  0.13014205  0.98460585  1  0.107277  0  0.116176  0.106447  0  1.023336  0
H  H36  1  0.69965968  0.40325448  0.21066074  1  0.125652  0  0.124134  0.067128  0  1.101529  0
H  H37  1  0.01366087  0.76292291  0.48282307  1  0.090099  0  0.114262  0.103685  0  1.03412  0
H  H38  1  0.79316100  0.76053699  0.25269187  1  0.079082  0  0.111301  0.102585  0  1.051634  0
H  H39  1  0.28409408  0.74493036  0.66621862  1  0.122464  0  0.125387  0.083696  0  1.06225  0
H  H40  1  0.98728276  0.71865537  0.79200169  1  0.096515  0  0.112165  0.10702  0  1.032107  0
H  H41  1  0.21192670  0.94171270  0.01825452  1  0.098509  0  0.112648  0.105435  0  1.029292  0
H  H42  1  0.68177466  0.55241359  0.42781239  1  0.146537  0  0.135107  0.097059  0  1.018606  0
H  H43  1  0.93670612  0.44118492  0.71204419  1  0.109588  0  0.115636  0.109574  0  1.03936  0
H  H44  1  0.68360759  0.45725559  0.71585590  1  0.114717  0  0.118076  0.115562  0  1.028313  0
H  H45  1  0.23945686  0.36983137  0.01520711  1  0.093361  0  0.116427  0.106533  0  1.021862  0
H  H46  1  0.40166996  0.74993363  0.00009494  1  0.108582  0  0.131548  0.084316  0  1.038637  0
H  H47  1  0.59845539  0.25007764  0.99994948  1  0.106395  0  0.131402  0.084934  0  1.03816  0
C  C48  1  0.49746336  0.00128328  0.25143267  1  0.944448  0  0.128407  0.122962  0  4.004523  0
C  C49  1  0.46862536  0.18588501  0.27538130  1  0.357814  0  -0.016012  -0.070226  0  4.009096  0
C  C50  1  0.47248330  0.18684741  0.38966914  1  0.342348  0  -0.00791  -0.048943  0  4.01274  0
C  C51  1  0.49781641  0.26939306  0.73054611  1  0.949335  0  0.121267  0.115095  0  3.98889  0
C  C52  1  0.71778224  0.36860779  0.91040941  1  0.312531  0  -0.017462  -0.073973  0  4.032244  0
C  C53  1  0.71676968  0.25699073  0.79761546  1  0.353221  0  -0.009573  -0.053867  0  4.002033  0
C  C54  1  0.78978427  0.02324237  0.50539359  1  0.967426  0  0.112065  0.118395  0  4.019447  0
C  C55  1  0.93427475  0.97614223  0.65555104  1  0.367595  0  -0.026116  -0.062465  0  4.065271  0
C  C56  1  0.80597689  0.96641458  0.65263792  1  0.323978  0  -0.023412  -0.079884  0  4.038393  0
C  C57  1  0.69512794  0.80966277  0.00742234  1  0.363753  0  -0.010331  -0.057311  0  4.010846  0
C  C58  1  0.24593307  0.49872722  0.74846215  1  0.966684  0  0.128514  0.123011  0  4.006134  0
C  C59  1  0.19317752  0.31411760  0.72453167  1  0.36408  0  -0.015468  -0.069569  0  4.008874  0
C  C60  1  0.08275171  0.31315786  0.61025984  1  0.296938  0  -0.009144  -0.051008  0  4.013515  0
C  C61  1  0.76722439  0.23063736  0.26937639  1  0.951725  0  0.121219  0.115313  0  3.98721  0
C  C62  1  0.80736493  0.13135612  0.08949863  1  0.310505  0  -0.016151  -0.071327  0  4.033902  0
C  C63  1  0.91911070  0.24295615  0.20225551  1  0.34231  0  -0.010218  -0.056025  0  4.006914  0
C  C64  1  0.28427912  0.47671504  0.49456654  1  0.959219  0  0.110691  0.115395  0  4.019361  0
C  C65  1  0.27886592  0.52396420  0.34457832  1  0.377003  0  -0.025766  -0.062171  0  4.065079  0
C  C66  1  0.15341414  0.53362232  0.34734410  1  0.291018  0  -0.023757  -0.080572  0  4.039049  0
C  C67  1  0.68782873  0.69035687  0.99271583  1  0.31951  0  -0.009542  -0.054776  0  4.010082  0
C  C68  1  0.50342202  0.00005959  0.74912124  1  0.939987  0  0.126316  0.11793  0  4.008681  0
C  C69  1  0.52896087  0.81442580  0.72378367  1  0.347067  0  -0.016277  -0.069296  0  4.010932  0
C  C70  1  0.52449099  0.81293277  0.60901322  1  0.368152  0  -0.00703  -0.045855  0  4.00777  0
C  C71  1  0.50240736  0.73069683  0.26894083  1  0.943682  0  0.123447  0.116831  0  3.981206  0
C  C72  1  0.28250143  0.63119265  0.08902401  1  0.299268  0  -0.015751  -0.069813  0  4.032599  0
C  C73  1  0.28345559  0.74284707  0.20160892  1  0.366444  0  -0.011615  -0.055651  0  4.01155  0
C  C74  1  0.21316273  0.97560509  0.49447247  1  0.948589  0  0.143449  0.135283  0  3.931727  0
C  C75  1  0.06519501  0.02414823  0.34314879  1  0.354231  0  -0.002661  -0.055945  0  3.972241  0
C  C76  1  0.19321195  0.03239648  0.34604046  1  0.334276  0  -0.005651  -0.061089  0  4.002392  0
C  C77  1  0.30477415  0.19026898  0.99229539  1  0.314779  0  -0.006219  -0.049965  0  3.996847  0
C  C78  1  0.75440659  0.50004351  0.25103170  1  0.950155  0  0.126159  0.118187  0  4.010357  0
C  C79  1  0.80532767  0.68564490  0.27634796  1  0.349703  0  -0.015738  -0.06827  0  4.009273  0
C  C80  1  0.91560876  0.68713482  0.39108832  1  0.364013  0  -0.006922  -0.045749  0  4.008907  0
C  C81  1  0.23348341  0.76927854  0.73108063  1  0.951773  0  0.123474  0.117136  0  3.979937  0
C  C82  1  0.19346386  0.86880306  0.91103255  1  0.327279  0  -0.01515  -0.068826  0  4.033028  0
C  C83  1  0.08187741  0.75715592  0.79847817  1  0.345032  0  -0.011832  -0.05517  0  4.012896  0
C  C84  1  0.71858481  0.52435508  0.50557403  1  0.971715  0  0.144231  0.136313  0  3.931361  0
C  C85  1  0.72187870  0.47572036  0.65683028  1  0.381817  0  -0.002243  -0.055658  0  3.971998  0
C  C86  1  0.84697437  0.46746258  0.65389432  1  0.327295  0  -0.006306  -0.06154  0  4.005323  0
C  C87  1  0.31233542  0.30971805  0.00750394  1  0.375146  0  -0.00625  -0.048561  0  3.996053  0
C  C88  1  0.50163645  0.74997267  0.00009261  1  0.962318  0  0.130942  0.130326  0  3.991638  0
C  C89  1  0.49848690  0.25004205  0.99992569  1  0.961156  0  0.128954  0.125467  0  3.998425  0
N  N90  1  0.49005872  0.06897269  0.37311574  1  -1.279242  0  -0.329525  -0.299633  0  3.587572  0
N  N91  1  0.48560345  0.06744677  0.18791998  1  -1.284496  0  -0.325756  -0.300843  0  3.537546  0
N  N92  1  0.57675630  0.19403125  0.68407346  1  -1.267947  0  -0.324855  -0.301505  0  3.55437  0
N  N93  1  0.57841463  0.37613336  0.86745630  1  -1.259681  0  -0.329389  -0.311805  0  3.571011  0
N  N94  1  0.71329253  0.99626577  0.55603425  1  -1.284195  0  -0.333657  -0.311363  0  3.580841  0
N  N95  1  0.92304913  0.01178259  0.56166362  1  -1.241951  0  -0.355851  -0.30756  0  3.437054  0
N  N96  1  0.57544651  0.84629089  0.01044689  1  -1.264765  0  -0.328297  -0.300203  0  3.552306  0
N  N97  1  0.11686448  0.43101744  0.62677815  1  -1.267699  0  -0.329335  -0.298932  0  3.588649  0
N  N98  1  0.29759747  0.43258949  0.81200507  1  -1.265397  0  -0.326536  -0.301467  0  3.536608  0
N  N99  1  0.89263597  0.30595473  0.31582431  1  -1.265085  0  -0.324677  -0.300791  0  3.55426  0
N  N100  1  0.71093198  0.12388267  0.13247383  1  -1.262713  0  -0.330137  -0.312724  0  3.570274  0
N  N101  1  0.15718193  0.50368925  0.44385109  1  -1.276234  0  -0.333459  -0.31003  0  3.579792  0
N  N102  1  0.36140492  0.48827213  0.43844119  1  -1.244184  0  -0.354742  -0.305665  0  3.436385  0
N  N103  1  0.56513369  0.65368521  0.98969865  1  -1.267131  0  -0.328471  -0.300825  0  3.55507  0
N  N104  1  0.50905779  0.93141337  0.62644332  1  -1.264539  0  -0.328585  -0.298254  0  3.586311  0
N  N105  1  0.51444922  0.93377202  0.81239949  1  -1.278125  0  -0.326246  -0.300469  0  3.541427  0
N  N106  1  0.42335331  0.80602612  0.31518698  1  -1.260534  0  -0.324493  -0.300188  0  3.55457  0
N  N107  1  0.42186718  0.62382546  0.13212094  1  -1.261579  0  -0.328547  -0.310137  0  3.571908  0
N  N108  1  0.28626529  0.00216744  0.44224426  1  -1.245889  0  -0.315966  -0.293252  0  3.534489  0
N  N109  1  0.07991049  0.98785669  0.43717820  1  -1.282486  0  -0.367826  -0.190646  0  3.676849  0
N  N110  1  0.42446933  0.15363931  0.98925777  1  -1.267201  0  -0.329016  -0.301569  0  3.557623  0
N  N111  1  0.88270446  0.56867611  0.37369519  1  -1.270798  0  -0.328379  -0.298359  0  3.588334  0
N  N112  1  0.70218809  0.56630229  0.18771756  1  -1.274631  0  -0.327285  -0.302135  0  3.541604  0
N  N113  1  0.10818066  0.69398146  0.68485594  1  -1.267249  0  -0.32434  -0.300561  0  3.554891  0
N  N114  1  0.28975534  0.87613606  0.86792009  1  -1.271096  0  -0.329092  -0.31082  0  3.569453  0
N  N115  1  0.84390921  0.49778879  0.55777839  1  -1.269027  0  -0.315497  -0.293183  0  3.534995  0
N  N116  1  0.64261624  0.51208395  0.56285968  1  -1.291888  0  -0.369855  -0.193624  0  3.676889  0
N  N117  1  0.43510087  0.34641360  0.01061586  1  -1.267698  0  -0.329493  -0.301974  0  3.559975  0
