# generated using pymatgen
data_ZnH8C10S2(BrN)2
_symmetry_space_group_name_H-M   'P 1'
_cell_length_a   8.12692908
_cell_length_b   8.12690165
_cell_length_c   10.91483686
_cell_angle_alpha   82.18620715
_cell_angle_beta   82.18663253
_cell_angle_gamma   76.88074307
_symmetry_Int_Tables_number   1
_chemical_formula_structural   ZnH8C10S2(BrN)2
_chemical_formula_sum   'Zn2 H16 C20 S4 Br4 N4'
_cell_volume   691.41760841
_cell_formula_units_Z   2
loop_
 _symmetry_equiv_pos_site_id
 _symmetry_equiv_pos_as_xyz
  1  'x, y, z'
loop_
 _atom_site_type_symbol
 _atom_site_label
 _atom_site_symmetry_multiplicity
 _atom_site_fract_x
 _atom_site_fract_y
 _atom_site_fract_z
 _atom_site_occupancy
 _atom_site_hle17_bader_spin_density
 _atom_site_hle17_ddec_charge
 _atom_site_hle17_ddec_spin_density
 _atom_site_hle17_ddec_sum_bond_order
 _atom_site_hle17_magmom
 _atom_site_hse06_10hf_bader_spin_density
 _atom_site_hse06_10hf_ddec_charge
 _atom_site_hse06_10hf_ddec_spin_density
 _atom_site_hse06_10hf_ddec_sum_bond_order
 _atom_site_hse06_10hf_magmom
 _atom_site_hse06_bader_spin_density
 _atom_site_hse06_ddec_charge
 _atom_site_hse06_ddec_spin_density
 _atom_site_hse06_ddec_sum_bond_order
 _atom_site_hse06_magmom
 _atom_site_pbe_bader_spin_density
 _atom_site_pbe_cm5_charge
 _atom_site_pbe_ddec_charge
 _atom_site_pbe_ddec_spin_density
 _atom_site_pbe_ddec_sum_bond_order
 _atom_site_pbe_magmom
Zn  Zn0  1  0.55729503  0.44270590  0.75000148  1  0  0.771225  0  2.147827  0  0  0.596767  0  2.631969  0  0  0.637854  0  2.589363  0  0  0.511247  0.567858  0  2.662473  0
Zn  Zn1  1  0.44270280  0.55729516  0.24999824  1  0  0.771207  0  2.147903  0  0  0.596704  0  2.632042  0  0  0.637798  0  2.589442  0  0  0.51126  0.567803  0  2.662551  0
H  H2  1  0.75089748  0.48906022  0.95063418  1  0  0.078706  0  0.953308  0  0  0.084897  0  1.021127  0  0  0.088172  0  1.017564  0  0  0.104414  0.082469  0  1.023773  0
H  H3  1  0.51093997  0.24910530  0.54935908  1  0  0.07876  0  0.953324  0  0  0.084893  0  1.021194  0  0  0.088167  0  1.017634  0  0  0.104396  0.082465  0  1.02384  0
H  H4  1  0.24910755  0.51094717  0.04936569  1  0  0.078767  0  0.953298  0  0  0.084891  0  1.021188  0  0  0.088164  0  1.017627  0  0  0.104419  0.082462  0  1.023835  0
H  H5  1  0.48905774  0.75088571  0.45063938  1  0  0.078716  0  0.953343  0  0  0.084874  0  1.0212  0  0  0.088146  0  1.017641  0  0  0.104395  0.082445  0  1.023847  0
H  H6  1  0.89290594  0.31543188  0.12788151  1  0  0.107871  0  0.989787  0  0  0.113471  0  1.05686  0  0  0.1172  0  1.055461  0  0  0.09258  0.110583  0  1.058462  0
H  H7  1  0.68457519  0.10711882  0.37210965  1  0  0.107933  0  0.989903  0  0  0.113504  0  1.056958  0  0  0.117232  0  1.055559  0  0  0.092598  0.110614  0  1.058565  0
H  H8  1  0.10709632  0.68457024  0.87212157  1  0  0.107855  0  0.989857  0  0  0.11342  0  1.056963  0  0  0.11715  0  1.055562  0  0  0.092536  0.110529  0  1.058561  0
H  H9  1  0.31543124  0.89288222  0.62789049  1  0  0.107931  0  0.989848  0  0  0.11351  0  1.056907  0  0  0.117241  0  1.055505  0  0  0.092579  0.110618  0  1.058508  0
H  H10  1  0.72339087  0.88492138  0.03185997  1  0  0.117928  0  0.950714  0  0  0.125052  0  1.015799  0  0  0.128965  0  1.013855  0  0  0.100199  0.122128  0  1.01756  0
H  H11  1  0.11506546  0.27662275  0.46815080  1  0  0.117862  0  0.95085  0  0  0.12499  0  1.01592  0  0  0.128899  0  1.013988  0  0  0.100147  0.122066  0  1.017682  0
H  H12  1  0.27660708  0.11508476  0.96813945  1  0  0.117894  0  0.95078  0  0  0.125035  0  1.015841  0  0  0.128948  0  1.013896  0  0  0.100192  0.122111  0  1.017602  0
H  H13  1  0.88492729  0.72337816  0.53185106  1  0  0.117943  0  0.950846  0  0  0.125067  0  1.015896  0  0  0.128974  0  1.013968  0  0  0.100186  0.122143  0  1.017658  0
H  H14  1  0.58555756  0.07824444  0.86010760  1  0  0.081081  0  0.942615  0  0  0.087951  0  1.01121  0  0  0.090388  0  1.009082  0  0  0.108448  0.08598  0  1.013157  0
H  H15  1  0.92174102  0.41444324  0.63990028  1  0  0.08114  0  0.942597  0  0  0.087916  0  1.011327  0  0  0.090393  0  1.009135  0  0  0.108467  0.085948  0  1.013272  0
H  H16  1  0.41444039  0.92176171  0.13989182  1  0  0.081119  0  0.942492  0  0  0.087967  0  1.011136  0  0  0.090416  0  1.008995  0  0  0.108481  0.085996  0  1.013083  0
H  H17  1  0.07825347  0.58555011  0.36010099  1  0  0.081121  0  0.942552  0  0  0.087909  0  1.011259  0  0  0.090381  0  1.009083  0  0  0.108476  0.08594  0  1.013204  0
C  C18  1  0.74881406  0.35431772  0.97210599  1  0  0.141255  0  3.707004  0  0  0.110667  0  3.955918  0  0  0.119121  0  3.972329  0  0  0.04301  0.104843  0  3.945032  0
C  C19  1  0.64567693  0.25119038  0.52789343  1  0  0.141221  0  3.707285  0  0  0.110634  0  3.956123  0  0  0.11909  0  3.972545  0  0  0.042952  0.104809  0  3.945238  0
C  C20  1  0.25119101  0.64568815  0.02789763  1  0  0.141188  0  3.707043  0  0  0.110606  0  3.955941  0  0  0.119065  0  3.972344  0  0  0.043025  0.104782  0  3.945056  0
C  C21  1  0.35432308  0.74880047  0.47210766  1  0  0.141264  0  3.707167  0  0  0.110627  0  3.956015  0  0  0.119086  0  3.972438  0  0  0.042933  0.104802  0  3.945132  0
C  C22  1  0.82861509  0.25650083  0.07011305  1  0  -0.167344  0  3.750033  0  0  -0.184591  0  3.997183  0  0  -0.193556  0  4.019036  0  0  -0.095292  -0.178767  0  3.98334  0
C  C23  1  0.74348924  0.17139668  0.42988256  1  0  -0.167439  0  3.75016  0  0  -0.18454  0  3.997135  0  0  -0.193516  0  4.018998  0  0  -0.095304  -0.178719  0  3.983298  0
C  C24  1  0.17139163  0.74349895  0.92988715  1  0  -0.167342  0  3.750132  0  0  -0.184512  0  3.997194  0  0  -0.19348  0  4.019045  0  0  -0.095271  -0.178682  0  3.983346  0
C  C25  1  0.25650583  0.82860068  0.57011569  1  0  -0.167473  0  3.750167  0  0  -0.184563  0  3.99721  0  0  -0.193541  0  4.019075  0  0  -0.095238  -0.178732  0  3.983361  0
C  C26  1  0.82092234  0.08489960  0.09383656  1  0  0.097024  0  3.758082  0  0  0.110561  0  4.014443  0  0  0.1178  0  4.03456  0  0  0.007125  0.105583  0  4.001104  0
C  C27  1  0.91509522  0.17909774  0.40615701  1  0  0.09692  0  3.757856  0  0  0.110374  0  4.014318  0  0  0.117611  0  4.034453  0  0  0.007058  0.105404  0  4.000955  0
C  C28  1  0.17907932  0.91509664  0.90615954  1  0  0.096977  0  3.758092  0  0  0.110517  0  4.014438  0  0  0.117757  0  4.034553  0  0  0.007095  0.105538  0  4.001099  0
C  C29  1  0.08490512  0.82089685  0.59384477  1  0  0.097054  0  3.757661  0  0  0.110431  0  4.014228  0  0  0.117667  0  4.034364  0  0  0.00709  0.105456  0  4.000874  0
C  C30  1  0.73218659  0.01819600  0.01719333  1  0  -0.161529  0  3.705071  0  0  -0.178976  0  3.957831  0  0  -0.187081  0  3.977222  0  0  -0.092708  -0.173701  0  3.94513  0
C  C31  1  0.98180562  0.26781883  0.48281164  1  0  -0.161203  0  3.704854  0  0  -0.178683  0  3.957723  0  0  -0.186766  0  3.977064  0  0  -0.092532  -0.173412  0  3.945026  0
C  C32  1  0.26781485  0.98181150  0.98280490  1  0  -0.161394  0  3.704855  0  0  -0.178854  0  3.957619  0  0  -0.186957  0  3.977014  0  0  -0.092628  -0.173579  0  3.944916  0
C  C33  1  0.01818915  0.73217326  0.51718968  1  0  -0.161376  0  3.704729  0  0  -0.178825  0  3.957612  0  0  -0.186916  0  3.976974  0  0  -0.092593  -0.173552  0  3.944914  0
C  C34  1  0.65535353  0.12553827  0.92157512  1  0  0.129492  0  3.716436  0  0  0.095586  0  3.974426  0  0  0.103981  0  3.991494  0  0  0.038352  0.089932  0  3.963545  0
C  C35  1  0.87446438  0.34464855  0.57842718  1  0  0.129401  0  3.716127  0  0  0.095527  0  3.974031  0  0  0.103906  0  3.991115  0  0  0.038191  0.089871  0  3.963161  0
C  C36  1  0.34464646  0.87447055  0.07842219  1  0  0.129417  0  3.716125  0  0  0.095469  0  3.974132  0  0  0.103851  0  3.991202  0  0  0.038247  0.089813  0  3.963267  0
C  C37  1  0.12553295  0.65535015  0.42156994  1  0  0.129462  0  3.716032  0  0  0.095585  0  3.9739  0  0  0.103957  0  3.990988  0  0  0.038224  0.089929  0  3.963033  0
S  S38  1  0.91597431  0.94516959  0.21528641  1  0  0.043918  0  2.525205  0  0  0.045355  0  2.891642  0  0  0.042392  0  2.893386  0  0  0.061232  0.048261  0  2.891793  0
S  S39  1  0.05483651  0.08404287  0.28471889  1  0  0.043857  0  2.525338  0  0  0.045341  0  2.891769  0  0  0.042368  0  2.893514  0  0  0.061228  0.048247  0  2.891914  0
S  S40  1  0.08403302  0.05482771  0.78471298  1  0  0.043957  0  2.525302  0  0  0.045403  0  2.891721  0  0  0.042437  0  2.893467  0  0  0.061263  0.048308  0  2.891869  0
S  S41  1  0.94516562  0.91595415  0.71528448  1  0  0.04383  0  2.525226  0  0  0.045331  0  2.8917  0  0  0.042361  0  2.893445  0  0  0.061208  0.048236  0  2.891845  0
Br  Br42  1  0.61213987  0.71813253  0.75122310  1  0  -0.524658  0  0.98983  0  0  -0.463184  0  1.28533  0  0  -0.481413  0  1.264206  0  0  -0.279788  -0.449493  0  1.300066  0
Br  Br43  1  0.28185671  0.38786122  0.74878163  1  0  -0.524692  0  0.989658  0  0  -0.463209  0  1.285144  0  0  -0.481441  0  1.264023  0  0  -0.279822  -0.449518  0  1.29988  0
Br  Br44  1  0.38786285  0.28186662  0.24876726  1  0  -0.524674  0  0.989805  0  0  -0.463175  0  1.285269  0  0  -0.481408  0  1.264154  0  0  -0.279808  -0.449483  0  1.300007  0
Br  Br45  1  0.71813914  0.61214218  0.25122082  1  0  -0.524689  0  0.989703  0  0  -0.463199  0  1.28519  0  0  -0.481432  0  1.264071  0  0  -0.279812  -0.449508  0  1.299928  0
N  N46  1  0.66328464  0.29120644  0.89865694  1  0  -0.329291  0  3.347694  0  0  -0.24512  0  3.621492  0  0  -0.264856  0  3.638043  0  0  -0.343177  -0.231699  0  3.61123  0
N  N47  1  0.70877691  0.33672988  0.60133789  1  0  -0.329415  0  3.347435  0  0  -0.245179  0  3.621177  0  0  -0.264902  0  3.637681  0  0  -0.34301  -0.23175  0  3.610905  0
N  N48  1  0.33672377  0.70879722  0.10134203  1  0  -0.329356  0  3.347657  0  0  -0.24506  0  3.621315  0  0  -0.264804  0  3.637889  0  0  -0.343173  -0.23164  0  3.611052  0
N  N49  1  0.29121873  0.66325997  0.39865891  1  0  -0.329423  0  3.347323  0  0  -0.245162  0  3.621099  0  0  -0.264869  0  3.637566  0  0  -0.343098  -0.231739  0  3.610835  0
