# generated using pymatgen
data_SmH21(C9O2)3
_symmetry_space_group_name_H-M   'P 1'
_cell_length_a   7.64212201
_cell_length_b   13.30579746
_cell_length_c   13.30579804
_cell_angle_alpha   116.41598958
_cell_angle_beta   101.04637782
_cell_angle_gamma   101.04647154
_symmetry_Int_Tables_number   1
_chemical_formula_structural   SmH21(C9O2)3
_chemical_formula_sum   'Sm2 H42 C54 O12'
_cell_volume   1128.74666599
_cell_formula_units_Z   2
loop_
 _symmetry_equiv_pos_site_id
 _symmetry_equiv_pos_as_xyz
  1  'x, y, z'
loop_
 _atom_site_type_symbol
 _atom_site_label
 _atom_site_symmetry_multiplicity
 _atom_site_fract_x
 _atom_site_fract_y
 _atom_site_fract_z
 _atom_site_occupancy
 _atom_site_hle17_bader_spin_density
 _atom_site_hle17_ddec_charge
 _atom_site_hle17_ddec_spin_density
 _atom_site_hle17_ddec_sum_bond_order
 _atom_site_hle17_magmom
 _atom_site_hse06_10hf_bader_spin_density
 _atom_site_hse06_10hf_ddec_charge
 _atom_site_hse06_10hf_ddec_spin_density
 _atom_site_hse06_10hf_ddec_sum_bond_order
 _atom_site_hse06_10hf_magmom
 _atom_site_hse06_bader_spin_density
 _atom_site_hse06_ddec_charge
 _atom_site_hse06_ddec_spin_density
 _atom_site_hse06_ddec_sum_bond_order
 _atom_site_hse06_magmom
 _atom_site_pbe_bader_spin_density
 _atom_site_pbe_cm5_charge
 _atom_site_pbe_ddec_charge
 _atom_site_pbe_ddec_spin_density
 _atom_site_pbe_ddec_sum_bond_order
 _atom_site_pbe_magmom
Sm  Sm0  1  0.00086781  0.00004163  0.00003794  1  0  2.232499  0  1.671363  0  0  2.080349  0  2.130453  0  0  2.12979  0  2.084267  0  0  1.512619  2.04273  0  2.16623  0
Sm  Sm1  1  0.50086874  0.00003813  0.00004127  1  0  2.232491  0  1.671368  0  0  2.080345  0  2.130441  0  0  2.129792  0  2.084246  0  0  1.512596  2.042745  0  2.166185  0
H  H2  1  0.43096940  0.65096366  0.82523817  1  0  0.117072  0  0.974988  0  0  0.125211  0  1.038673  0  0  0.128757  0  1.038452  0  0  0.105776  0.122719  0  1.038982  0
H  H3  1  0.77985934  0.17434021  0.34907136  1  0  0.116023  0  0.975362  0  0  0.124364  0  1.038968  0  0  0.127887  0  1.038813  0  0  0.105678  0.121871  0  1.039271  0
H  H4  1  0.60548457  0.17466071  0.82562753  1  0  0.116853  0  0.97519  0  0  0.125082  0  1.038896  0  0  0.128536  0  1.038776  0  0  0.105796  0.122624  0  1.039191  0
H  H5  1  0.10548431  0.82562736  0.17466033  1  0  0.116861  0  0.975168  0  0  0.125074  0  1.038884  0  0  0.128526  0  1.038765  0  0  0.105802  0.122616  0  1.039178  0
H  H6  1  0.93096880  0.82523795  0.65096420  1  0  0.117063  0  0.974999  0  0  0.125199  0  1.038687  0  0  0.128746  0  1.038463  0  0  0.105767  0.122707  0  1.038996  0
H  H7  1  0.27985810  0.34907069  0.17434027  1  0  0.116021  0  0.975305  0  0  0.124363  0  1.038917  0  0  0.127886  0  1.038763  0  0  0.105675  0.121869  0  1.039222  0
H  H8  1  0.76474467  0.61962468  0.96693666  1  0  0.098382  0  0.939358  0  0  0.109705  0  0.999576  0  0  0.112172  0  0.998354  0  0  0.107805  0.107891  0  1.000521  0
H  H9  1  0.14501581  0.34733567  0.38040135  1  0  0.09746  0  0.940248  0  0  0.109131  0  1.000127  0  0  0.111519  0  0.998987  0  0  0.107485  0.107335  0  1.001058  0
H  H10  1  0.79763082  0.03313586  0.65268408  1  0  0.099377  0  0.939474  0  0  0.110826  0  0.999265  0  0  0.113308  0  0.998029  0  0  0.108548  0.10901  0  1.000206  0
H  H11  1  0.29763069  0.65268460  0.03313557  1  0  0.099372  0  0.93948  0  0  0.11082  0  0.999276  0  0  0.113302  0  0.998041  0  0  0.108541  0.109004  0  1.000217  0
H  H12  1  0.26474104  0.96693615  0.61962310  1  0  0.098388  0  0.939396  0  0  0.109696  0  0.99962  0  0  0.112164  0  0.998398  0  0  0.107809  0.107882  0  1.000566  0
H  H13  1  0.64501594  0.38040179  0.34733634  1  0  0.097438  0  0.940226  0  0  0.109113  0  1.000108  0  0  0.111514  0  0.998953  0  0  0.107471  0.10731  0  1.001048  0
H  H14  1  0.69482582  0.47076590  0.01730281  1  0  0.086224  0  0.999244  0  0  0.09543  0  1.065061  0  0  0.096864  0  1.0673  0  0  0.095219  0.094379  0  1.063577  0
H  H15  1  0.22400348  0.54655843  0.52919137  1  0  0.087108  0  0.999315  0  0  0.096222  0  1.065065  0  0  0.097592  0  1.067342  0  0  0.095322  0.095206  0  1.063572  0
H  H16  1  0.67757375  0.98281997  0.45356352  1  0  0.08517  0  0.99922  0  0  0.09422  0  1.065347  0  0  0.095587  0  1.067639  0  0  0.09414  0.093212  0  1.063814  0
H  H17  1  0.17757427  0.45356360  0.98281990  1  0  0.085165  0  0.999226  0  0  0.094214  0  1.065353  0  0  0.09558  0  1.067645  0  0  0.094137  0.093205  0  1.063821  0
H  H18  1  0.19482529  0.01730263  0.47076518  1  0  0.086215  0  0.999251  0  0  0.095409  0  1.065075  0  0  0.096841  0  1.067317  0  0  0.095225  0.094358  0  1.06359  0
H  H19  1  0.72400270  0.52919073  0.54655787  1  0  0.087112  0  0.999308  0  0  0.096226  0  1.065057  0  0  0.097595  0  1.067335  0  0  0.095325  0.09521  0  1.063563  0
H  H20  1  0.49253502  0.28193872  0.98253606  1  0  0.094748  0  0.962667  0  0  0.105466  0  1.022439  0  0  0.107682  0  1.021926  0  0  0.105255  0.103852  0  1.022892  0
H  H21  1  0.21057768  0.70061016  0.71802286  1  0  0.095167  0  0.962942  0  0  0.10589  0  1.022528  0  0  0.10814  0  1.022002  0  0  0.105412  0.104258  0  1.022997  0
H  H22  1  0.50997578  0.01753630  0.29945279  1  0  0.094777  0  0.963042  0  0  0.105416  0  1.022645  0  0  0.107641  0  1.022154  0  0  0.105336  0.103721  0  1.023175  0
H  H23  1  0.00997546  0.29945304  0.01753582  1  0  0.09476  0  0.962986  0  0  0.105399  0  1.022599  0  0  0.107621  0  1.022118  0  0  0.105322  0.103706  0  1.023121  0
H  H24  1  0.99253248  0.98253641  0.28193912  1  0  0.094767  0  0.962695  0  0  0.105477  0  1.022467  0  0  0.107698  0  1.021956  0  0  0.105255  0.103869  0  1.02292  0
H  H25  1  0.71057881  0.71802303  0.70061088  1  0  0.095174  0  0.962921  0  0  0.105898  0  1.022509  0  0  0.108148  0  1.021985  0  0  0.105411  0.104265  0  1.022978  0
H  H26  1  0.18021943  0.17862486  0.82649405  1  0  0.106691  0  0.949099  0  0  0.116025  0  1.009605  0  0  0.118705  0  1.00919  0  0  0.106498  0.114022  0  1.010032  0
H  H27  1  0.00158780  0.64781379  0.82127933  1  0  0.105851  0  0.949806  0  0  0.115216  0  1.010171  0  0  0.117864  0  1.009781  0  0  0.106796  0.11327  0  1.010565  0
H  H28  1  0.35371716  0.17353233  0.35217797  1  0  0.106877  0  0.949566  0  0  0.116491  0  1.009537  0  0  0.119116  0  1.009203  0  0  0.107088  0.11451  0  1.009948  0
H  H29  1  0.85371715  0.35217819  0.17353112  1  0  0.106905  0  0.949591  0  0  0.116478  0  1.009602  0  0  0.119103  0  1.009268  0  0  0.107075  0.114506  0  1.010002  0
H  H30  1  0.68021717  0.82649418  0.17862475  1  0  0.106671  0  0.949104  0  0  0.115997  0  1.009617  0  0  0.118676  0  1.009203  0  0  0.106482  0.113994  0  1.010042  0
H  H31  1  0.50158873  0.82127903  0.64781335  1  0  0.105863  0  0.949803  0  0  0.115228  0  1.010169  0  0  0.117875  0  1.009778  0  0  0.1068  0.113281  0  1.010562  0
H  H32  1  0.07214913  0.26763189  0.70513105  1  0  0.0875  0  0.957399  0  0  0.099358  0  1.015682  0  0  0.101653  0  1.015871  0  0  0.098667  0.097752  0  1.015562  0
H  H33  1  0.80464732  0.43745133  0.73234142  1  0  0.08779  0  0.95808  0  0  0.099916  0  1.015926  0  0  0.102179  0  1.016129  0  0  0.098767  0.09833  0  1.015787  0
H  H34  1  0.36697184  0.29486327  0.56248678  1  0  0.088143  0  0.958318  0  0  0.100205  0  1.016253  0  0  0.102461  0  1.016438  0  0  0.098664  0.098623  0  1.016107  0
H  H35  1  0.86697193  0.56248675  0.29486280  1  0  0.08816  0  0.958303  0  0  0.100221  0  1.016237  0  0  0.102476  0  1.016425  0  0  0.098676  0.098638  0  1.016093  0
H  H36  1  0.57214653  0.70512889  0.26763015  1  0  0.087431  0  0.957438  0  0  0.099312  0  1.015702  0  0  0.101609  0  1.015886  0  0  0.098651  0.097707  0  1.015581  0
H  H37  1  0.30464762  0.73234126  0.43745102  1  0  0.087783  0  0.958097  0  0  0.099908  0  1.015941  0  0  0.102169  0  1.016148  0  0  0.098766  0.098322  0  1.015802  0
H  H38  1  0.27242622  0.45700104  0.74074599  1  0  0.085034  0  0.99764  0  0  0.094502  0  1.063376  0  0  0.095942  0  1.065148  0  0  0.096581  0.093422  0  1.062248  0
H  H39  1  0.81554587  0.28371418  0.54298954  1  0  0.085324  0  0.997978  0  0  0.094851  0  1.063439  0  0  0.096311  0  1.065193  0  0  0.096922  0.093749  0  1.062325  0
H  H40  1  0.53145076  0.25914670  0.71621565  1  0  0.083811  0  0.999127  0  0  0.092957  0  1.065136  0  0  0.094422  0  1.066915  0  0  0.09625  0.091887  0  1.063975  0
H  H41  1  0.03144992  0.71621572  0.25914578  1  0  0.0838  0  0.999146  0  0  0.092965  0  1.065132  0  0  0.09443  0  1.06691  0  0  0.096268  0.091895  0  1.063971  0
H  H42  1  0.77242576  0.74074375  0.45699809  1  0  0.085023  0  0.997657  0  0  0.094481  0  1.063405  0  0  0.095924  0  1.065174  0  0  0.096572  0.093405  0  1.062268  0
H  H43  1  0.31554521  0.54298971  0.28371439  1  0  0.085336  0  0.997959  0  0  0.094859  0  1.063426  0  0  0.096319  0  1.065179  0  0  0.096927  0.093758  0  1.062311  0
C  C44  1  0.71054646  0.78096881  0.91521392  1  0  0.708468  0  3.8985  0  0  0.668316  0  4.182547  0  0  0.705017  0  4.170471  0  0  0.203917  0.643521  0  4.189669  0
C  C45  1  0.92939111  0.13430147  0.21909046  1  0  0.708774  0  3.895075  0  0  0.668573  0  4.179433  0  0  0.705274  0  4.167341  0  0  0.203545  0.643767  0  4.186595  0
C  C46  1  0.79519280  0.08474130  0.86569978  1  0  0.710003  0  3.894167  0  0  0.670129  0  4.177965  0  0  0.70685  0  4.165812  0  0  0.204239  0.645338  0  4.185135  0
C  C47  1  0.29519148  0.86569898  0.08473978  1  0  0.710048  0  3.894138  0  0  0.670169  0  4.177923  0  0  0.706889  0  4.165772  0  0  0.204236  0.645377  0  4.185094  0
C  C48  1  0.21054668  0.91521465  0.78096829  1  0  0.708432  0  3.898597  0  0  0.668247  0  4.182689  0  0  0.704948  0  4.170615  0  0  0.203863  0.643452  0  4.189814  0
C  C49  1  0.42939277  0.21909053  0.13430290  1  0  0.708872  0  3.894884  0  0  0.668671  0  4.179246  0  0  0.705375  0  4.167151  0  0  0.2036  0.643867  0  4.18641  0
C  C50  1  0.57293714  0.66748404  0.87667778  1  0  -0.228062  0  3.662496  0  0  -0.241712  0  3.915257  0  0  -0.254533  0  3.931453  0  0  -0.09519  -0.233398  0  3.90444  0
C  C51  1  0.90526843  0.20926978  0.33254803  1  0  -0.225093  0  3.658848  0  0  -0.239194  0  3.912359  0  0  -0.252007  0  3.928499  0  0  -0.09368  -0.230883  0  3.901577  0
C  C52  1  0.69599019  0.12323067  0.79073734  1  0  -0.226248  0  3.659379  0  0  -0.240505  0  3.913121  0  0  -0.253223  0  3.929303  0  0  -0.094298  -0.232251  0  3.902284  0
C  C53  1  0.19599045  0.79073656  0.12322939  1  0  -0.226206  0  3.65935  0  0  -0.240419  0  3.913059  0  0  -0.253133  0  3.92924  0  0  -0.094261  -0.232163  0  3.90222  0
C  C54  1  0.07293588  0.87667855  0.66748434  1  0  -0.228095  0  3.662523  0  0  -0.241732  0  3.915284  0  0  -0.254553  0  3.93148  0  0  -0.095197  -0.233418  0  3.904469  0
C  C55  1  0.40526947  0.33254781  0.20927019  1  0  -0.225118  0  3.658778  0  0  -0.239219  0  3.912294  0  0  -0.252033  0  3.928438  0  0  -0.093674  -0.230909  0  3.901511  0
C  C56  1  0.62055730  0.59166872  0.91002217  1  0  -0.016944  0  3.692456  0  0  -0.040218  0  3.935421  0  0  -0.034161  0  3.951675  0  0  -0.062114  -0.044079  0  3.924375  0
C  C57  1  0.02877564  0.31841849  0.40834365  1  0  -0.018247  0  3.692537  0  0  -0.041541  0  3.935987  0  0  -0.035408  0  3.952233  0  0  -0.062493  -0.045444  0  3.92497  0
C  C58  1  0.71026886  0.08994931  0.68160414  1  0  -0.019702  0  3.693254  0  0  -0.042641  0  3.936812  0  0  -0.036588  0  3.953008  0  0  -0.062653  -0.046504  0  3.925792  0
C  C59  1  0.21026989  0.68160374  0.08994916  1  0  -0.019735  0  3.693205  0  0  -0.042684  0  3.936771  0  0  -0.036632  0  3.952967  0  0  -0.062672  -0.046547  0  3.925752  0
C  C60  1  0.12055559  0.91002305  0.59166860  1  0  -0.016913  0  3.692404  0  0  -0.040159  0  3.935364  0  0  -0.034102  0  3.951616  0  0  -0.06211  -0.044021  0  3.92432  0
C  C61  1  0.52877494  0.40834315  0.31841875  1  0  -0.018193  0  3.692497  0  0  -0.041478  0  3.935955  0  0  -0.035354  0  3.952198  0  0  -0.062491  -0.045376  0  3.924939  0
C  C62  1  0.49786556  0.47845337  0.88276431  1  0  0.058865  0  3.828645  0  0  0.081459  0  4.056819  0  0  0.079066  0  4.080513  0  0  -0.014432  0.082957  0  4.0407  0
C  C63  1  0.01938718  0.40434554  0.52154151  1  0  0.061185  0  3.83046  0  0  0.08332  0  4.059134  0  0  0.08095  0  4.082783  0  0  -0.015359  0.084814  0  4.043023  0
C  C64  1  0.61488887  0.11722416  0.59568420  1  0  0.061207  0  3.829034  0  0  0.083145  0  4.057909  0  0  0.080759  0  4.081596  0  0  -0.014939  0.084645  0  4.041796  0
C  C65  1  0.11489004  0.59568409  0.11722411  1  0  0.061175  0  3.829033  0  0  0.083081  0  4.057968  0  0  0.080696  0  4.081655  0  0  -0.014953  0.084581  0  4.041855  0
C  C66  1  0.99786588  0.88276138  0.47845107  1  0  0.058834  0  3.828591  0  0  0.081389  0  4.056823  0  0  0.078996  0  4.080516  0  0  -0.01444  0.082887  0  4.040705  0
C  C67  1  0.51938816  0.52154202  0.40434578  1  0  0.061129  0  3.830405  0  0  0.083225  0  4.059135  0  0  0.080855  0  4.082787  0  0  -0.015369  0.084719  0  4.043023  0
C  C68  1  0.55808575  0.42621146  0.94898352  1  0  -0.114037  0  3.728676  0  0  -0.131896  0  3.967739  0  0  -0.133929  0  3.989589  0  0  -0.086724  -0.130331  0  3.952818  0
C  C69  1  0.13180248  0.52280323  0.57373745  1  0  -0.114969  0  3.730173  0  0  -0.132627  0  3.969386  0  0  -0.134596  0  3.991313  0  0  -0.086648  -0.131126  0  3.954446  0
C  C70  1  0.60896015  0.05102607  0.47725593  1  0  -0.114365  0  3.728966  0  0  -0.132025  0  3.968405  0  0  -0.134006  0  3.990323  0  0  -0.086472  -0.130493  0  3.953418  0
C  C71  1  0.10896083  0.47725545  0.05102602  1  0  -0.114305  0  3.728895  0  0  -0.13195  0  3.968332  0  0  -0.133931  0  3.99025  0  0  -0.086432  -0.13042  0  3.953346  0
C  C72  1  0.05808659  0.94898204  0.42621047  1  0  -0.113955  0  3.728588  0  0  -0.131797  0  3.967674  0  0  -0.13383  0  3.989525  0  0  -0.08671  -0.130232  0  3.952752  0
C  C73  1  0.63180315  0.57373844  0.52280362  1  0  -0.114925  0  3.730132  0  0  -0.132565  0  3.969345  0  0  -0.134538  0  3.991277  0  0  -0.08662  -0.131065  0  3.954405  0
C  C74  1  0.44400559  0.31993530  0.92936276  1  0  -0.071867  0  3.773973  0  0  -0.084304  0  4.025528  0  0  -0.086429  0  4.046156  0  0  -0.091743  -0.082863  0  4.011478  0
C  C75  1  0.12410405  0.60943200  0.68003128  1  0  -0.073122  0  3.775464  0  0  -0.085494  0  4.026799  0  0  -0.08765  0  4.047379  0  0  -0.091078  -0.084053  0  4.012816  0
C  C76  1  0.51459334  0.07065750  0.39060202  1  0  -0.071924  0  3.77311  0  0  -0.084088  0  4.024113  0  0  -0.086229  0  4.044734  0  0  -0.091393  -0.082584  0  4.010117  0
C  C77  1  0.01459334  0.39060253  0.07065690  1  0  -0.071917  0  3.773115  0  0  -0.084078  0  4.024104  0  0  -0.086219  0  4.044725  0  0  -0.091381  -0.082572  0  4.010112  0
C  C78  1  0.94400596  0.92936163  0.31993450  1  0  -0.072049  0  3.77401  0  0  -0.084479  0  4.025562  0  0  -0.086611  0  4.046194  0  0  -0.09182  -0.083045  0  4.01152  0
C  C79  1  0.62410261  0.68003126  0.60943196  1  0  -0.073139  0  3.775493  0  0  -0.085512  0  4.026822  0  0  -0.087668  0  4.047403  0  0  -0.09109  -0.084071  0  4.012841  0
C  C80  1  0.26878564  0.26196745  0.84166027  1  0  -0.057415  0  3.71076  0  0  -0.074102  0  3.962371  0  0  -0.075021  0  3.982206  0  0  -0.080951  -0.073232  0  3.948775  0
C  C81  1  0.00689263  0.57964108  0.73799174  1  0  -0.055248  0  3.712839  0  0  -0.072034  0  3.964797  0  0  -0.072866  0  3.984581  0  0  -0.082252  -0.071261  0  3.951253  0
C  C82  1  0.42706978  0.15834749  0.42034291  1  0  -0.056026  0  3.710352  0  0  -0.072814  0  3.961544  0  0  -0.073686  0  3.981356  0  0  -0.081356  -0.071978  0  3.947956  0
C  C83  1  0.92707005  0.42034206  0.15834695  1  0  -0.056058  0  3.710451  0  0  -0.072819  0  3.961643  0  0  -0.073692  0  3.981456  0  0  -0.081358  -0.071989  0  3.948048  0
C  C84  1  0.76878340  0.84166029  0.26196651  1  0  -0.057323  0  3.710691  0  0  -0.073989  0  3.962287  0  0  -0.074907  0  3.982124  0  0  -0.080904  -0.073118  0  3.948691  0
C  C85  1  0.50689309  0.73799156  0.57964069  1  0  -0.055251  0  3.712946  0  0  -0.072037  0  3.964901  0  0  -0.072868  0  3.984684  0  0  -0.082247  -0.071264  0  3.951357  0
C  C86  1  0.20836946  0.31216525  0.77399799  1  0  -0.075476  0  3.774989  0  0  -0.08581  0  4.021983  0  0  -0.088737  0  4.04343  0  0  -0.089415  -0.083836  0  4.007314  0
C  C87  1  0.89628386  0.46177677  0.68780223  1  0  -0.077728  0  3.77877  0  0  -0.088419  0  4.02597  0  0  -0.091312  0  4.047441  0  0  -0.090083  -0.086469  0  4.011316  0
C  C88  1  0.43431019  0.22601343  0.53817840  1  0  -0.077424  0  3.778189  0  0  -0.08809  0  4.02515  0  0  -0.090955  0  4.046605  0  0  -0.089533  -0.086134  0  4.010515  0
C  C89  1  0.93431237  0.53817834  0.22601354  1  0  -0.077387  0  3.778176  0  0  -0.088042  0  4.025116  0  0  -0.090907  0  4.046572  0  0  -0.089486  -0.086086  0  4.010483  0
C  C90  1  0.70836850  0.77399584  0.31216301  1  0  -0.075414  0  3.775031  0  0  -0.085774  0  4.022023  0  0  -0.088701  0  4.043474  0  0  -0.089405  -0.083801  0  4.007354  0
C  C91  1  0.39628626  0.68780318  0.46177676  1  0  -0.077723  0  3.778875  0  0  -0.08841  0  4.026063  0  0  -0.091303  0  4.047535  0  0  -0.090086  -0.086459  0  4.011409  0
C  C92  1  0.32088349  0.41928471  0.79437991  1  0  -0.109127  0  3.7171  0  0  -0.126459  0  3.956268  0  0  -0.127849  0  3.977618  0  0  -0.086326  -0.12533  0  3.941796  0
C  C93  1  0.90163577  0.37508153  0.58069690  1  0  -0.109639  0  3.719556  0  0  -0.126825  0  3.958778  0  0  -0.128227  0  3.980102  0  0  -0.085535  -0.125655  0  3.944269  0
C  C94  1  0.52629619  0.20557632  0.62487762  1  0  -0.108567  0  3.718293  0  0  -0.125531  0  3.957851  0  0  -0.126939  0  3.97913  0  0  -0.085848  -0.124417  0  3.943409  0
C  C95  1  0.02629670  0.62487789  0.20557541  1  0  -0.108618  0  3.718376  0  0  -0.125592  0  3.957945  0  0  -0.127001  0  3.979224  0  0  -0.085935  -0.124477  0  3.943502  0
C  C96  1  0.82088230  0.79437651  0.41928248  1  0  -0.109076  0  3.717154  0  0  -0.12639  0  3.956329  0  0  -0.127781  0  3.977677  0  0  -0.086286  -0.125261  0  3.941858  0
C  C97  1  0.40163723  0.58069674  0.37508096  1  0  -0.109651  0  3.719518  0  0  -0.126824  0  3.958747  0  0  -0.128226  0  3.98007  0  0  -0.085547  -0.125655  0  3.944238  0
O  O98  1  0.88369903  0.80354410  0.96640735  1  0  -0.689463  0  1.988985  0  0  -0.638488  0  2.231679  0  0  -0.663884  0  2.223331  0  0  -0.382153  -0.620713  0  2.236862  0
O  O99  1  0.07992158  0.16297818  0.19651313  1  0  -0.691169  0  1.987281  0  0  -0.640207  0  2.230126  0  0  -0.66557  0  2.221736  0  0  -0.382468  -0.622465  0  2.235352  0
O  O100  1  0.91711042  0.03355243  0.83705457  1  0  -0.690783  0  1.988665  0  0  -0.639594  0  2.231081  0  0  -0.664976  0  2.222709  0  0  -0.382411  -0.621842  0  2.236287  0
O  O101  1  0.41710942  0.83705405  0.03355083  1  0  -0.690832  0  1.988615  0  0  -0.639641  0  2.231023  0  0  -0.665021  0  2.222647  0  0  -0.38242  -0.621891  0  2.236231  0
O  O102  1  0.38369839  0.96640754  0.80354181  1  0  -0.689437  0  1.989068  0  0  -0.638439  0  2.231762  0  0  -0.663837  0  2.223416  0  0  -0.382104  -0.620667  0  2.236947  0
O  O103  1  0.57992392  0.19651382  0.16297900  1  0  -0.691208  0  1.987217  0  0  -0.64025  0  2.230069  0  0  -0.665615  0  2.22168  0  0  -0.382489  -0.62251  0  2.235295  0
O  O104  1  0.65698159  0.85965537  0.89577630  1  0  -0.82438  0  2.045079  0  0  -0.765401  0  2.298093  0  0  -0.790867  0  2.285766  0  0  -0.434364  -0.746994  0  2.305684  0
O  O105  1  0.79715422  0.03612979  0.14043816  1  0  -0.823956  0  2.043748  0  0  -0.764903  0  2.296731  0  0  -0.790237  0  2.284217  0  0  -0.434808  -0.746611  0  2.304485  0
O  O106  1  0.76124115  0.10424902  0.96387876  1  0  -0.825391  0  2.043198  0  0  -0.766857  0  2.296785  0  0  -0.792152  0  2.28413  0  0  -0.435605  -0.748476  0  2.304376  0
O  O107  1  0.26124209  0.96387881  0.10424849  1  0  -0.8254  0  2.043194  0  0  -0.766863  0  2.296767  0  0  -0.792165  0  2.284127  0  0  -0.43559  -0.748483  0  2.304361  0
O  O108  1  0.15698131  0.89577726  0.85965552  1  0  -0.824372  0  2.045101  0  0  -0.765376  0  2.298107  0  0  -0.790842  0  2.285782  0  0  -0.434344  -0.746967  0  2.305699  0
O  O109  1  0.29715442  0.14043700  0.03613006  1  0  -0.823999  0  2.04367  0  0  -0.764948  0  2.29666  0  0  -0.790282  0  2.284144  0  0  -0.43483  -0.746656  0  2.304414  0
