# generated using pymatgen
data_CdH13C12N3Cl2
_symmetry_space_group_name_H-M   'P 1'
_cell_length_a   8.89933562
_cell_length_b   9.00118958
_cell_length_c   9.42031344
_cell_angle_alpha   68.06949796
_cell_angle_beta   86.90932167
_cell_angle_gamma   74.85944809
_symmetry_Int_Tables_number   1
_chemical_formula_structural   CdH13C12N3Cl2
_chemical_formula_sum   'Cd2 H26 C24 N6 Cl4'
_cell_volume   674.90381422
_cell_formula_units_Z   2
loop_
 _symmetry_equiv_pos_site_id
 _symmetry_equiv_pos_as_xyz
  1  'x, y, z'
loop_
 _atom_site_type_symbol
 _atom_site_label
 _atom_site_symmetry_multiplicity
 _atom_site_fract_x
 _atom_site_fract_y
 _atom_site_fract_z
 _atom_site_occupancy
 _atom_site_pbe_bader_spin_density
 _atom_site_pbe_cm5_charge
 _atom_site_pbe_ddec_charge
 _atom_site_pbe_ddec_spin_density
 _atom_site_pbe_ddec_sum_bond_order
 _atom_site_pbe_magmom
Cd  Cd0  1  0.50000041  0.50000053  0.50000077  1  0  0.602303  0.764051  0  2.400479  0
Cd  Cd1  1  0.49999976  0.49999955  0.00000083  1  0  0.684463  0.715674  0  2.303017  0
H  H2  1  0.62138122  0.23277462  0.27834578  1  0  0.254808  0.231827  0  1.044702  0
H  H3  1  0.37861850  0.76722643  0.72165368  1  0  0.254795  0.231784  0  1.044744  0
H  H4  1  0.17750167  0.55132946  0.78914125  1  0  0.103847  0.078007  0  1.026382  0
H  H5  1  0.82249721  0.44867036  0.21085975  1  0  0.103855  0.078021  0  1.026407  0
H  H6  1  0.96997074  0.40145236  0.80350800  1  0  0.1009  0.110378  0  1.027264  0
H  H7  1  0.03003101  0.59854494  0.19649166  1  0  0.100903  0.110364  0  1.027251  0
H  H8  1  0.98327228  0.13685549  0.02511860  1  0  0.104225  0.096458  0  1.012391  0
H  H9  1  0.01672693  0.86314307  0.97487966  1  0  0.104202  0.096377  0  1.01245  0
H  H10  1  0.19328852  0.03628477  0.23455153  1  0  0.100435  0.11944  0  1.030624  0
H  H11  1  0.80671234  0.96371624  0.76544577  1  0  0.100419  0.119428  0  1.03062  0
H  H12  1  0.36807669  0.27743730  0.31602276  1  0  0.10405  0.100231  0  1.027034  0
H  H13  1  0.63192244  0.72256622  0.68397583  1  0  0.104029  0.100198  0  1.027014  0
H  H14  1  0.42018381  0.06931792  0.32750150  1  0  0.099439  0.089447  0  1.003624  0
H  H15  1  0.57981560  0.93068437  0.67249858  1  0  0.099438  0.089443  0  1.003598  0
H  H16  1  0.74942700  0.14642152  0.07315017  1  0  0.097293  0.082264  0  1.018095  0
H  H17  1  0.25057330  0.85357707  0.92685228  1  0  0.097295  0.082267  0  1.018061  0
H  H18  1  0.58015449  0.09180285  0.04865788  1  0  0.10132  0.087103  0  0.993135  0
H  H19  1  0.41984664  0.90819696  0.95134408  1  0  0.101312  0.087099  0  0.993103  0
H  H20  1  0.51871522  0.83661927  0.23759904  1  0  0.104704  0.082541  0  1.03309  0
H  H21  1  0.48128477  0.16338055  0.76240297  1  0  0.104695  0.082487  0  1.033103  0
H  H22  1  0.83971054  0.50695270  0.58437631  1  0  0.103219  0.077192  0  1.050481  0
H  H23  1  0.16029061  0.49304709  0.41562354  1  0  0.103217  0.077202  0  1.050495  0
H  H24  1  0.01008281  0.70829265  0.52788635  1  0  0.094041  0.112114  0  1.047948  0
H  H25  1  0.98991720  0.29170716  0.47211461  1  0  0.094032  0.112099  0  1.04796  0
H  H26  1  0.91834517  0.98633385  0.32247031  1  0  0.106125  0.109548  0  0.993426  0
H  H27  1  0.08165454  0.01366720  0.67753021  1  0  0.106118  0.10955  0  0.993447  0
C  C28  1  0.28856638  0.24628669  0.12252242  1  0  0.118442  0.237455  0  3.936772  0
C  C29  1  0.71143364  0.75371311  0.87747748  1  0  0.118471  0.23745  0  3.936989  0
C  C30  1  0.17311807  0.43906718  0.88738932  1  0  0.044875  0.100846  0  3.955338  0
C  C31  1  0.82688140  0.56093016  0.11261255  1  0  0.044892  0.100829  0  3.955305  0
C  C32  1  0.06062010  0.35458768  0.89406681  1  0  -0.087599  -0.129844  0  3.975971  0
C  C33  1  0.93938108  0.64541209  0.10592986  1  0  -0.087623  -0.129802  0  3.9759  0
C  C34  1  0.06746275  0.20757038  0.01915439  1  0  -0.07  -0.024018  0  3.978736  0
C  C35  1  0.93253646  0.79242817  0.98084282  1  0  -0.070001  -0.024021  0  3.978738  0
C  C36  1  0.18289627  0.15156586  0.13520153  1  0  -0.085779  -0.176212  0  3.925322  0
C  C37  1  0.81710294  0.84843268  0.86479567  1  0  -0.085735  -0.176131  0  3.925327  0
C  C38  1  0.40964126  0.19854399  0.24913708  1  0  -0.074311  -0.120792  0  3.917484  0
C  C39  1  0.59035845  0.80145707  0.75086344  1  0  -0.074291  -0.120762  0  3.917453  0
C  C40  1  0.65248341  0.10072892  0.13455730  1  0  -0.073795  -0.077583  0  3.947517  0
C  C41  1  0.34751659  0.89927090  0.86544472  1  0  -0.073794  -0.077583  0  3.947418  0
C  C42  1  0.71200171  0.93453489  0.26064122  1  0  -0.009747  0.048416  0  3.962449  0
C  C43  1  0.28799799  0.06546617  0.73936035  1  0  -0.009779  0.048397  0  3.962378  0
C  C44  1  0.62750645  0.81527139  0.29970002  1  0  0.040337  0.033935  0  3.931598  0
C  C45  1  0.37249182  0.18473092  0.70030117  1  0  0.040413  0.034054  0  3.931464  0
C  C46  1  0.80858496  0.62961740  0.49364535  1  0  0.038668  0.075559  0  3.96273  0
C  C47  1  0.19141649  0.37038115  0.50635388  1  0  0.038705  0.075538  0  3.962782  0
C  C48  1  0.90041637  0.74076173  0.46333689  1  0  -0.086791  -0.121439  0  3.969524  0
C  C49  1  0.09958507  0.25923682  0.53666339  1  0  -0.086758  -0.121351  0  3.969561  0
C  C50  1  0.85002155  0.89585168  0.34664764  1  0  -0.063148  -0.063661  0  3.910253  0
C  C51  1  0.14997733  0.10414814  0.65335337  1  0  -0.063169  -0.063739  0  3.910332  0
N  N52  1  0.28385287  0.38605781  0.99951269  1  0  -0.326434  -0.276785  0  3.462208  0
N  N53  1  0.71614686  0.61394322  0.00048571  1  0  -0.326468  -0.276804  0  3.462369  0
N  N54  1  0.55950605  0.22834260  0.19020973  1  0  -0.486157  -0.307984  0  3.469088  0
N  N55  1  0.44049367  0.77165844  0.80978974  1  0  -0.486136  -0.307936  0  3.469087  0
N  N56  1  0.67375189  0.66741080  0.41454368  1  0  -0.334916  -0.228735  0  3.571208  0
N  N57  1  0.32624925  0.33258900  0.58545723  1  0  -0.334987  -0.228776  0  3.571245  0
Cl  Cl58  1  0.36644748  0.61306888  0.21338167  1  0  -0.317199  -0.526442  0  1.23608  0
Cl  Cl59  1  0.63355223  0.38693217  0.78661885  1  0  -0.317196  -0.526443  0  1.236097  0
Cl  Cl60  1  0.28547940  0.75740323  0.52260979  1  0  -0.344232  -0.559108  0  1.061707  0
Cl  Cl61  1  0.71452031  0.24259783  0.47739073  1  0  -0.344239  -0.559128  0  1.061715  0
