# generated using pymatgen
data_CoH22C14(NO4)2
_symmetry_space_group_name_H-M   'P 1'
_cell_length_a   7.01960882
_cell_length_b   8.84846261
_cell_length_c   11.06705964
_cell_angle_alpha   79.96146948
_cell_angle_beta   66.34981833
_cell_angle_gamma   62.27194381
_symmetry_Int_Tables_number   1
_chemical_formula_structural   CoH22C14(NO4)2
_chemical_formula_sum   'Co1 H22 C14 N2 O8'
_cell_volume   557.29921183
_cell_formula_units_Z   1
loop_
 _symmetry_equiv_pos_site_id
 _symmetry_equiv_pos_as_xyz
  1  'x, y, z'
loop_
 _atom_site_type_symbol
 _atom_site_label
 _atom_site_symmetry_multiplicity
 _atom_site_fract_x
 _atom_site_fract_y
 _atom_site_fract_z
 _atom_site_occupancy
 _atom_site_pbe_cm5_charge
 _atom_site_pbe_ddec_charge
 _atom_site_pbe_ddec_spin_density
 _atom_site_pbe_ddec_sum_bond_order
 _atom_site_pbe_magmom
Co  Co0  1  0.49999305  0.00000213  0.99998874  1  0.58316  0.85938  1.029133  2.716308  0.964
H  H1  1  0.78791535  0.08842561  0.98977328  1  0.278698  0.350995  -0.000393  1.016492  0.0
H  H2  1  0.21206717  0.91158431  0.01018543  1  0.278571  0.350901  -0.000393  1.016638  0.0
H  H3  1  0.98954129  0.96767186  0.87260608  1  0.279913  0.367011  0.000915  0.980032  0.002
H  H4  1  0.01041942  0.03232367  0.12736108  1  0.279934  0.367095  0.000916  0.979913  0.002
H  H5  1  0.25029977  0.97527056  0.40384064  1  0.103883  0.110898  -7.1e-05  1.002199  0.0
H  H6  1  0.74967462  0.02476049  0.59613474  1  0.103719  0.110699  -7.1e-05  1.002288  0.0
H  H7  1  0.82980472  0.06369134  0.35358510  1  0.102983  0.105952  3.6e-05  1.017449  0.0
H  H8  1  0.17015631  0.93636237  0.64640435  1  0.102985  0.105954  3.7e-05  1.017583  0.0
H  H9  1  0.11373516  0.25723257  0.20365169  1  0.130928  0.059632  -0.000178  0.989845  0.0
H  H10  1  0.88629033  0.74274584  0.79635319  1  0.13092  0.059574  -0.000178  0.98992  0.0
H  H11  1  0.28207718  0.64296683  0.06226967  1  0.111394  0.136101  -0.000107  0.995425  0.0
H  H12  1  0.71793164  0.35702545  0.93775556  1  0.111325  0.136009  -0.000107  0.995523  0.0
H  H13  1  0.04124938  0.70893968  0.01516721  1  0.109373  0.126219  -0.000199  1.011637  0.0
H  H14  1  0.95876976  0.29103739  0.98485104  1  0.10941  0.126257  -0.0002  1.011577  0.0
H  H15  1  0.30130856  0.52172367  0.94024950  1  0.113524  0.136007  -1.9e-05  0.991287  0.0
H  H16  1  0.69872058  0.47824777  0.05977885  1  0.113503  0.135897  -1.9e-05  0.991371  0.0
H  H17  1  0.76052220  0.67221507  0.23556682  1  0.109327  0.133693  -0.000165  0.996127  0.0
H  H18  1  0.23951314  0.32776826  0.76447685  1  0.109434  0.133814  -0.000165  0.995992  0.0
H  H19  1  0.97145904  0.65080518  0.29686634  1  0.108128  0.126481  -8.5e-05  0.97596  0.0
H  H20  1  0.02860124  0.34916262  0.70316069  1  0.108056  0.126431  -8.5e-05  0.975972  0.0
H  H21  1  0.87621000  0.48705530  0.32746916  1  0.110391  0.118616  3.4e-05  0.988379  0.0
H  H22  1  0.12383384  0.51292160  0.67256877  1  0.110475  0.118517  3.4e-05  0.98857  0.0
C  C23  1  0.58960430  0.04748623  0.21972171  1  0.206799  0.542936  -0.007072  4.201158  -0.004
C  C24  1  0.41038360  0.95251915  0.78026071  1  0.20659  0.542496  -0.007075  4.201648  -0.004
C  C25  1  0.54320774  0.02336640  0.36433723  1  -0.018242  -0.029884  -0.003737  3.987184  -0.002
C  C26  1  0.45676329  0.97666072  0.63565112  1  -0.018172  -0.029836  -0.003735  3.987285  -0.002
C  C27  1  0.35830408  0.98609702  0.44717648  1  -0.089168  -0.10535  -0.001365  3.985224  -0.001
C  C28  1  0.64167127  0.01392006  0.55280659  1  -0.089044  -0.105125  -0.001366  3.985094  -0.001
C  C29  1  0.68466614  0.03689888  0.41840135  1  -0.090179  -0.108136  -0.001724  3.993784  -0.001
C  C30  1  0.31530176  0.96313718  0.58158400  1  -0.090247  -0.108162  -0.001725  3.994105  -0.001
C  C31  1  0.18571971  0.32516344  0.11819596  1  0.17829  0.275443  -0.007192  4.076038  -0.004
C  C32  1  0.81427928  0.67482968  0.88181063  1  0.17835  0.27565  -0.007193  4.076292  -0.004
C  C33  1  0.18725166  0.59731038  0.03133669  1  -0.13705  -0.279702  -8e-06  3.86135  0.0
C  C34  1  0.81276784  0.40267410  0.96868426  1  -0.137064  -0.279515  -8e-06  3.861505  0.0
C  C35  1  0.91628105  0.58054110  0.25564397  1  -0.12352  -0.273313  3e-06  3.897063  0.0
C  C36  1  0.08376059  0.41943473  0.74439006  1  -0.123742  -0.27333  3e-06  3.89715  0.0
N  N37  1  0.10013902  0.49293456  0.13416451  1  -0.276437  0.044436  -0.003287  3.72301  -0.003
N  N38  1  0.89987800  0.50704875  0.86585713  1  -0.276362  0.044267  -0.003287  3.72327  -0.003
O  O39  1  0.71311006  0.12374142  0.15235664  1  -0.315109  -0.55415  -0.003585  2.243927  -0.003
O  O40  1  0.28686170  0.87627714  0.84762257  1  -0.315009  -0.553906  -0.003586  2.244116  -0.003
O  O41  1  0.49629254  0.98620997  0.17475346  1  -0.303377  -0.519348  -0.008716  2.473358  -0.006
O  O42  1  0.50370815  0.01378623  0.82522706  1  -0.303238  -0.519095  -0.008714  2.473344  -0.006
O  O43  1  0.33988868  0.24650585  0.01225682  1  -0.28648  -0.415369  -0.001911  2.520067  -0.001
O  O44  1  0.66008977  0.75349830  0.98773876  1  -0.28645  -0.41533  -0.001911  2.520184  -0.001
O  O45  1  0.82285013  0.04692266  0.90154079  1  -0.595614  -0.77886  0.024261  2.103176  0.038
O  O46  1  0.17711887  0.95308888  0.09842356  1  -0.595562  -0.778952  0.024258  2.103032  0.038
