# generated using pymatgen
data_CuH11C11(NO2)2
_symmetry_space_group_name_H-M   'P 1'
_cell_length_a   8.59457757
_cell_length_b   13.22180859
_cell_length_c   15.34150767
_cell_angle_alpha   115.52078861
_cell_angle_beta   95.09947636
_cell_angle_gamma   89.99552758
_symmetry_Int_Tables_number   1
_chemical_formula_structural   CuH11C11(NO2)2
_chemical_formula_sum   'Cu4 H44 C44 N8 O16'
_cell_volume   1565.60137994
_cell_formula_units_Z   4
loop_
 _symmetry_equiv_pos_site_id
 _symmetry_equiv_pos_as_xyz
  1  'x, y, z'
loop_
 _atom_site_type_symbol
 _atom_site_label
 _atom_site_symmetry_multiplicity
 _atom_site_fract_x
 _atom_site_fract_y
 _atom_site_fract_z
 _atom_site_occupancy
 _atom_site_pbe_bader_charge
 _atom_site_pbe_bader_spin_density
 _atom_site_pbe_cm5_charge
 _atom_site_pbe_ddec_charge
 _atom_site_pbe_ddec_spin_density
 _atom_site_pbe_ddec_sum_bond_order
 _atom_site_pbe_magmom
Cu  Cu0  1  0.03904208  0.50581012  0.42235267  1  1.060086  0.536267  0.674903  0.746455  0.689995  2.385571  0.534
Cu  Cu1  1  0.46088939  0.08343578  0.57766314  1  1.059908  -0.536386  0.674886  0.746722  -0.689506  2.386139  -0.534
Cu  Cu2  1  0.96095846  0.49419014  0.57764656  1  1.0599  -0.536278  0.674934  0.746616  -0.689998  2.385304  -0.534
Cu  Cu3  1  0.53910642  0.91656153  0.42233229  1  1.060107  0.536368  0.674922  0.746751  0.689496  2.386438  0.534
H  H4  1  0.16748391  0.35211172  0.23000785  1  0.10018  -6e-05  0.116818  0.093695  -1.8e-05  0.992501  0.0
H  H5  1  0.33259181  0.12201739  0.77005396  1  0.100383  6e-05  0.116908  0.093757  1.9e-05  0.991702  0.0
H  H6  1  0.83251313  0.64789163  0.76999447  1  0.10013  6e-05  0.116877  0.093836  1.8e-05  0.992459  0.0
H  H7  1  0.66741238  0.87798277  0.22994769  1  0.100421  -6e-05  0.1169  0.093748  -1.9e-05  0.991739  0.0
H  H8  1  0.32582044  0.36812290  0.10514455  1  0.08989  -3.4e-05  0.109194  0.114379  -2.1e-05  1.004374  0.0
H  H9  1  0.17434561  0.26290348  0.89500685  1  0.073693  3.4e-05  0.109768  0.115343  2.1e-05  1.003795  0.0
H  H10  1  0.67417670  0.63187874  0.89485774  1  0.089806  3.4e-05  0.109217  0.114428  2.1e-05  1.004308  0.0
H  H11  1  0.82565732  0.73709897  0.10499542  1  0.073841  -3.4e-05  0.109723  0.115243  -2e-05  1.003725  0.0
H  H12  1  0.27540550  0.72693866  0.25017913  1  0.123916  6.5e-05  0.10921  0.127887  0.000109  1.027937  0.0
H  H13  1  0.22442701  0.47667865  0.74989727  1  0.134611  -6.1e-05  0.109021  0.127906  -0.000107  1.02744  0.0
H  H14  1  0.72460006  0.27306336  0.74982774  1  0.123939  -6.5e-05  0.109211  0.127875  -0.000109  1.027921  0.0
H  H15  1  0.77557236  0.52332155  0.25010191  1  0.134561  6.2e-05  0.108981  0.127846  0.000107  1.027512  0.0
H  H16  1  0.12086634  0.69492585  0.36682346  1  0.108894  -1.6e-05  0.119071  0.095943  2e-06  0.992732  0.0
H  H17  1  0.37900422  0.32808627  0.63325907  1  0.115878  1.6e-05  0.119007  0.095669  -2e-06  0.993381  0.0
H  H18  1  0.87914029  0.30507662  0.63318219  1  0.108887  1.6e-05  0.119066  0.095942  -2e-06  0.992672  0.0
H  H19  1  0.62099413  0.67191295  0.36674163  1  0.115905  -1.6e-05  0.118996  0.09567  2e-06  0.993333  0.0
H  H20  1  0.40988273  0.65103149  0.10193681  1  0.076841  -6e-06  0.116699  0.079253  -2e-06  0.983867  0.0
H  H21  1  0.09024830  0.54902325  0.89807491  1  0.106179  7e-06  0.116777  0.079028  2e-06  0.982276  0.0
H  H22  1  0.59011571  0.34896733  0.89806517  1  0.076916  6e-06  0.116676  0.079163  2e-06  0.983772  0.0
H  H23  1  0.90975560  0.45098007  0.10192486  1  0.106428  -7e-06  0.116849  0.079159  -2e-06  0.982325  0.0
H  H24  1  0.28177984  0.75455951  0.58769467  1  0.077023  -0.000395  0.106157  0.12917  -0.0002  0.987575  0.0
H  H25  1  0.21838751  0.16669122  0.41216629  1  0.080722  0.000392  0.106214  0.129393  0.000199  0.987427  0.0
H  H26  1  0.71822196  0.24543911  0.41230459  1  0.077  0.000395  0.106167  0.129199  0.0002  0.987619  0.0
H  H27  1  0.78160607  0.83330752  0.58783225  1  0.080645  -0.000392  0.10617  0.129297  -0.000198  0.98747  0.0
H  H28  1  0.39807895  0.83559381  0.69781449  1  0.070878  0.001457  0.097216  0.111909  0.000713  0.970663  0.001
H  H29  1  0.10204439  0.13765980  0.30207147  1  0.02698  -0.001531  0.09744  0.112188  -0.000714  0.970721  -0.001
H  H30  1  0.60192753  0.16440699  0.30218696  1  0.070796  -0.001456  0.097201  0.111932  -0.000712  0.970689  -0.001
H  H31  1  0.89795385  0.86233591  0.69792404  1  0.027021  0.001532  0.09741  0.112156  0.000715  0.970635  0.001
H  H32  1  0.51597891  0.64427985  0.51899815  1  0.038637  0.000534  0.093453  0.092582  0.000414  1.002387  0.0
H  H33  1  0.98423421  0.12525139  0.48095662  1  0.042182  -0.000526  0.093426  0.092689  -0.000414  1.002479  0.0
H  H34  1  0.48402303  0.35571523  0.48100009  1  0.038632  -0.000533  0.09343  0.092558  -0.000414  1.002359  0.0
H  H35  1  0.01576179  0.87474251  0.51903876  1  0.042191  0.000527  0.093403  0.0927  0.000414  1.002401  0.0
H  H36  1  0.62616134  0.71439223  0.63283821  1  0.037266  -0.000855  0.090709  0.088521  -0.000469  1.001287  -0.001
H  H37  1  0.87396449  0.08153544  0.36714643  1  0.039935  0.000848  0.090762  0.088896  0.000467  1.000338  0.001
H  H38  1  0.37384288  0.28560284  0.36715918  1  0.037292  0.000855  0.090725  0.08856  0.000469  1.001239  0.001
H  H39  1  0.12602908  0.91846135  0.63285015  1  0.040025  -0.000848  0.090729  0.08871  -0.000468  1.000465  -0.001
H  H40  1  0.52158277  0.53161186  0.61232875  1  0.065055  -0.000607  0.105809  0.131615  -0.000348  0.989465  0.0
H  H41  1  0.97828334  0.91929955  0.38772440  1  0.085898  0.000603  0.10595  0.131553  0.000349  0.989881  0.0
H  H42  1  0.47841431  0.46838705  0.38766997  1  0.065382  0.000607  0.105819  0.13166  0.000348  0.989459  0.0
H  H43  1  0.02171023  0.08069660  0.61227153  1  0.085958  -0.000602  0.105946  0.131612  -0.000349  0.989886  0.0
H  H44  1  0.43851886  0.63972752  0.70993323  1  0.030684  0.002133  0.096133  0.111269  0.001043  0.975943  0.001
H  H45  1  0.06139341  0.92960974  0.29004284  1  -0.003997  -0.002146  0.0962  0.111494  -0.001045  0.975615  -0.001
H  H46  1  0.56148294  0.36027110  0.29006603  1  0.030751  -0.002132  0.096153  0.111309  -0.001042  0.97592  -0.001
H  H47  1  0.93860269  0.07038571  0.70995577  1  -0.003851  0.002147  0.096214  0.111554  0.001045  0.975586  0.001
C  C48  1  0.19424753  0.43301779  0.23047044  1  0.475936  -0.000662  0.042835  0.085446  -0.00045  3.964466  0.0
C  C49  1  0.30578805  0.20248475  0.76961716  1  0.464249  0.000664  0.042507  0.085287  0.000449  3.965465  0.0
C  C50  1  0.80575185  0.56698567  0.76953200  1  0.476013  0.000663  0.042786  0.085328  0.00045  3.964404  0.0
C  C51  1  0.69421594  0.79751686  0.23038258  1  0.464162  -0.000663  0.042528  0.085325  -0.000449  3.965295  0.0
C  C52  1  0.28206978  0.44204448  0.16231483  1  -0.004818  0.000265  -0.077227  -0.159611  0.000164  3.941252  0.0
C  C53  1  0.21802854  0.27964806  0.83781476  1  0.02421  -0.000267  -0.077799  -0.161355  -0.000165  3.941471  0.0
C  C54  1  0.71792974  0.55795871  0.83768985  1  -0.004835  -0.000265  -0.077246  -0.159657  -0.000164  3.94119  0.0
C  C55  1  0.78197346  0.72035040  0.16218771  1  0.024062  0.000267  -0.077744  -0.161249  0.000164  3.941426  0.0
C  C56  1  0.31240670  0.54887929  0.16712012  1  -0.06198  -0.000671  0.004632  0.099678  -0.000427  4.018898  0.0
C  C57  1  0.18763544  0.38168042  0.83297921  1  -0.025008  0.000672  0.004423  0.099983  0.000427  4.018724  0.0
C  C58  1  0.68759749  0.45112216  0.83288284  1  -0.061605  0.000671  0.004532  0.099473  0.000427  4.018713  0.0
C  C59  1  0.81236846  0.61832159  0.16701925  1  -0.025398  -0.000672  0.004453  0.100156  -0.000427  4.018769  0.0
C  C60  1  0.25364330  0.64183058  0.24170864  1  0.018733  0.000394  -0.074926  -0.158737  0.000259  3.901269  0.0
C  C61  1  0.24627611  0.40003665  0.75837446  1  -0.039219  -0.000394  -0.075035  -0.15951  -0.000258  3.902046  0.0
C  C62  1  0.74636207  0.35817288  0.75829633  1  0.019054  -0.000394  -0.074897  -0.158649  -0.000259  3.901253  0.0
C  C63  1  0.75372346  0.59996276  0.24162727  1  -0.038719  0.000394  -0.075039  -0.159561  0.000258  3.901869  0.0
C  C64  1  0.16768377  0.62484712  0.30733570  1  0.48964  -0.000693  0.05052  0.109374  -0.00045  3.924936  0.0
C  C65  1  0.33225091  0.31747210  0.69274204  1  0.468049  0.000695  0.050431  0.109616  0.00045  3.924962  0.0
C  C66  1  0.83231931  0.37515701  0.69267077  1  0.489415  0.000693  0.050563  0.109425  0.00045  3.924903  0.0
C  C67  1  0.66774958  0.68252934  0.30725753  1  0.468123  -0.000695  0.050436  0.109638  -0.00045  3.925019  0.0
C  C68  1  0.39939064  0.56579219  0.09696082  1  0.647338  0.000339  0.079148  0.061726  0.000238  3.916609  0.0
C  C69  1  0.10069863  0.46877171  0.90312235  1  0.6228  -0.00034  0.079024  0.062636  -0.000238  3.916833  0.0
C  C70  1  0.60060175  0.43422134  0.90305171  1  0.647427  -0.000339  0.079261  0.061889  -0.000238  3.916993  0.0
C  C71  1  0.89929467  0.53122532  0.09688960  1  0.622155  0.00034  0.078908  0.062478  0.000238  3.915904  0.0
C  C72  1  0.44353127  0.86535133  0.57599660  1  1.535687  0.000115  0.216247  0.627746  3.5e-05  4.117174  0.0
C  C73  1  0.05674730  0.28929633  0.42392211  1  1.561015  -0.000182  0.215649  0.627895  -3.7e-05  4.1172  0.0
C  C74  1  0.55646810  0.13465148  0.42400519  1  1.535825  -0.000113  0.216243  0.627843  -3.3e-05  4.117047  0.0
C  C75  1  0.94325094  0.71070199  0.57607601  1  1.56135  0.000184  0.215726  0.627978  3.9e-05  4.117038  0.0
C  C76  1  0.40221640  0.78613816  0.61937299  1  -0.072472  -0.000893  -0.161742  -0.285678  -0.000717  3.899437  -0.001
C  C77  1  0.09795350  0.16665657  0.38052058  1  -0.043261  0.000952  -0.161875  -0.286427  0.000698  3.898565  0.001
C  C78  1  0.59778657  0.21386116  0.38062698  1  -0.072433  0.000884  -0.161808  -0.285849  0.000711  3.899589  0.001
C  C79  1  0.90204231  0.83334074  0.61947484  1  -0.043047  -0.000958  -0.16181  -0.286266  -0.000702  3.898474  -0.001
C  C80  1  0.50713927  0.68641997  0.59740304  1  0.016587  -0.003267  -0.165815  -0.102011  -0.002046  3.930649  -0.003
C  C81  1  0.99301140  0.08895565  0.40254707  1  0.004312  0.003282  -0.165516  -0.102026  0.002048  3.929641  0.003
C  C82  1  0.49286370  0.31357870  0.40259628  1  0.016643  0.003267  -0.16579  -0.101962  0.002046  3.930579  0.003
C  C83  1  0.00698329  0.91104237  0.59744992  1  0.004093  -0.003283  -0.165419  -0.101811  -0.002049  3.929546  -0.003
C  C84  1  0.44333246  0.60239396  0.63093104  1  -0.005553  -0.000888  -0.159856  -0.288177  -0.000649  3.896153  -0.001
C  C85  1  0.05665991  0.97134163  0.36904955  1  0.013841  0.000905  -0.1606  -0.288621  0.000648  3.895923  0.001
C  C86  1  0.55666812  0.39760513  0.36906786  1  -0.006149  0.000879  -0.159889  -0.288314  0.000644  3.89618  0.001
C  C87  1  0.94333483  0.02865652  0.63094840  1  0.013669  -0.000914  -0.160654  -0.288849  -0.000654  3.896038  -0.001
C  C88  1  0.28030956  0.55597120  0.58238878  1  1.541035  0.000479  0.213919  0.624003  0.00042  4.115354  0.001
C  C89  1  0.21965295  0.97334736  0.41758618  1  1.550551  -0.000527  0.213523  0.622653  -0.000426  4.116554  -0.001
C  C90  1  0.71968884  0.44403010  0.41761485  1  1.541209  -0.000475  0.213941  0.624026  -0.000418  4.115352  -0.001
C  C91  1  0.78033941  0.02665380  0.58241396  1  1.550491  0.000529  0.213553  0.622756  0.000428  4.116381  0.001
N  N92  1  0.13691000  0.52251546  0.30185673  1  -1.218474  -0.001373  -0.332749  -0.244351  -0.000589  3.496157  0.0
N  N93  1  0.36304869  0.22060315  0.69821637  1  -1.20421  0.001362  -0.331607  -0.24316  0.000584  3.495958  0.0
N  N94  1  0.86309298  0.47748776  0.69814716  1  -1.218437  0.001373  -0.332799  -0.244493  0.000589  3.496211  0.0
N  N95  1  0.63695209  0.77939578  0.30178573  1  -1.204205  -0.001361  -0.331625  -0.243207  -0.000584  3.495869  0.0
N  N96  1  0.46251096  0.48311551  0.03003804  1  -0.78169  -0.000504  -0.214159  -0.179708  -0.000339  3.329466  0.0
N  N97  1  0.03751977  0.45307363  0.97000169  1  -0.758344  0.000504  -0.214132  -0.180076  0.000339  3.332345  0.0
N  N98  1  0.53749682  0.51687856  0.96995919  1  -0.761737  0.000503  -0.21415  -0.179492  0.000339  3.330215  0.0
N  N99  1  0.96249303  0.54693031  0.02999116  1  -0.7762  -0.000505  -0.214035  -0.180083  -0.000339  3.331008  0.0
O  O100  1  0.48964701  0.82244359  0.49127444  1  -1.124188  0.079019  -0.31251  -0.526986  0.051621  2.345457  0.072
O  O101  1  0.01069111  0.33110775  0.50865362  1  -1.126048  -0.079052  -0.31249  -0.526996  -0.051632  2.343748  -0.072
O  O102  1  0.51035687  0.17755386  0.50871946  1  -1.124326  -0.079003  -0.312429  -0.526922  -0.051612  2.345496  -0.072
O  O103  1  0.98931273  0.66889218  0.49134193  1  -1.125962  0.079064  -0.31254  -0.527075  0.051639  2.343521  0.072
O  O104  1  0.25214309  0.54151956  0.49483834  1  -1.114898  0.078324  -0.310837  -0.521087  0.051024  2.379975  0.071
O  O105  1  0.24779824  0.04637544  0.50514836  1  -1.123659  -0.078255  -0.310577  -0.520503  -0.050993  2.380817  -0.071
O  O106  1  0.74785627  0.45848129  0.50516149  1  -1.114977  -0.078326  -0.310815  -0.521055  -0.051025  2.380154  -0.071
O  O107  1  0.75219401  0.95362353  0.49484788  1  -1.123557  0.078254  -0.310556  -0.520527  0.050991  2.380636  0.071
O  O108  1  0.42373124  0.96912697  0.62759153  1  -1.112782  -0.089228  -0.31719  -0.534776  -0.058133  2.359568  -0.081
O  O109  1  0.07657777  0.34151489  0.37235088  1  -1.120275  0.089211  -0.316513  -0.534364  0.058083  2.359541  0.081
O  O110  1  0.57626699  0.03086745  0.37240268  1  -1.112805  0.089241  -0.317216  -0.534856  0.058141  2.359345  0.081
O  O111  1  0.92342256  0.65848292  0.62764254  1  -1.12071  -0.089206  -0.316584  -0.534446  -0.058081  2.359741  -0.081
O  O112  1  0.18426295  0.53710535  0.63288668  1  -1.118147  -0.082575  -0.315864  -0.530011  -0.053921  2.35845  -0.075
O  O113  1  0.31573957  0.90400301  0.36707311  1  -1.121936  0.082625  -0.315629  -0.529318  0.053947  2.357818  0.075
O  O114  1  0.81573643  0.46289681  0.36711445  1  -1.118049  0.082575  -0.31588  -0.530014  0.05392  2.3583  0.075
O  O115  1  0.68425858  0.09599636  0.63292439  1  -1.121971  -0.082627  -0.315667  -0.529373  -0.053948  2.357832  -0.075
