# generated using pymatgen
data_Zn2H18C33N2O11
_symmetry_space_group_name_H-M   'P 1'
_cell_length_a   9.64155295
_cell_length_b   10.89396854
_cell_length_c   10.84746727
_cell_angle_alpha   79.63556118
_cell_angle_beta   74.57509398
_cell_angle_gamma   81.14692000
_symmetry_Int_Tables_number   1
_chemical_formula_structural   Zn2H18C33N2O11
_chemical_formula_sum   'Zn2 H18 C33 N2 O11'
_cell_volume   1073.62250410
_cell_formula_units_Z   1
loop_
 _symmetry_equiv_pos_site_id
 _symmetry_equiv_pos_as_xyz
  1  'x, y, z'
loop_
 _atom_site_type_symbol
 _atom_site_label
 _atom_site_symmetry_multiplicity
 _atom_site_fract_x
 _atom_site_fract_y
 _atom_site_fract_z
 _atom_site_occupancy
 _atom_site_pbe_bader_charge
 _atom_site_pbe_bader_spin_density
 _atom_site_pbe_cm5_charge
 _atom_site_pbe_ddec_charge
 _atom_site_pbe_ddec_spin_density
 _atom_site_pbe_ddec_sum_bond_order
 _atom_site_pbe_magmom
Zn  Zn0  1  0.35484383  0.51394626  0.53769933  1  1.294896  0  0.677136  0.838323  0  2.386735  0
Zn  Zn1  1  0.66738033  0.48524857  0.46987746  1  1.303895  0  0.684665  0.860067  0  2.339654  0
H  H2  1  0.13265953  0.88379130  0.09411764  1  0.051204  0  0.096618  0.082991  0  1.020332  0
H  H3  1  0.45182750  0.11430177  0.30423847  1  0.084353  0  0.102325  0.093039  0  0.983841  0
H  H4  1  0.69056940  0.92561111  0.30996141  1  0.079737  0  0.102066  0.097026  0  0.989948  0
H  H5  1  0.76221505  0.04208137  0.49877642  1  0.078112  0  0.096624  0.087492  0  0.997209  0
H  H6  1  0.67625150  0.38169444  0.88595760  1  0.087954  0  0.100367  0.101696  0  1.014784  0
H  H7  1  0.26743380  0.65334168  0.79209562  1  0.119035  0  0.106114  0.118226  0  1.031536  0
H  H8  1  0.09592906  0.81911370  0.89593336  1  0.056905  0  0.104409  0.103915  0  0.986016  0
H  H9  1  0.61470012  0.94658637  0.78580057  1  0.0333  0  0.091412  0.018099  0  0.958966  0
H  H10  1  0.24647191  0.88128233  0.24217947  1  0.020861  0  0.08399  0.002433  0  0.993054  0
H  H11  1  0.93158935  0.76486185  0.31976271  1  0.047574  0  0.104383  0.036374  0  0.971695  0
H  H12  1  0.67866035  0.41362591  0.10893985  1  0.105226  0  0.109894  0.117668  0  0.985026  0
H  H13  1  0.77728539  0.26312238  0.60098893  1  0.158756  0  0.111642  0.131399  0  1.051713  0
H  H14  1  0.87050095  0.11183797  0.76893935  1  0.04282  0  0.107892  0.101183  0  0.988879  0
H  H15  1  0.08059454  0.15400109  0.84216917  1  0.054079  0  0.11036  0.104178  0  0.982244  0
H  H16  1  0.20389822  0.34616753  0.74306963  1  0.18281  0  0.116579  0.140923  0  1.019744  0
H  H17  1  0.13298622  0.67949959  0.42916915  1  0.152256  0  0.131643  0.108695  0  0.990426  0
H  H18  1  0.34793113  0.07173456  0.69038309  1  0.039793  0  0.095849  0.084502  0  1.010889  0
H  H19  1  0.27572388  0.95552403  0.50417062  1  0.084427  0  0.09648  0.086061  0  0.993748  0
C  C20  1  0.48488966  0.48056177  0.75141555  1  1.560183  0  0.218945  0.601808  0  4.161017  0
C  C21  1  0.38565872  0.60585052  0.94129468  1  0.042288  0  0.007762  0.063001  0  3.920649  0
C  C22  1  0.48664992  0.51090290  0.88029910  1  -0.045516  0  -0.002869  -0.052  0  3.908427  0
C  C23  1  0.52376314  0.26125263  0.49343646  1  1.575683  0  0.216498  0.598204  0  4.173778  0
C  C24  1  0.59586359  0.44911118  0.93676939  1  0.010041  0  -0.081248  -0.087501  0  3.998235  0
C  C25  1  0.59973597  0.46902925  0.05971127  1  -0.055336  0  -0.075041  -0.078915  0  3.966792  0
C  C26  1  0.50097712  0.55714360  0.12427902  1  -0.010053  0  -0.002097  -0.053598  0  3.906819  0
C  C27  1  0.86926941  0.28029774  0.63330549  1  0.047935  0  -0.077605  -0.143824  0  3.926817  0
C  C28  1  0.92226785  0.19704145  0.72602356  1  -0.067828  0  -0.074981  -0.063963  0  3.997614  0
C  C29  1  0.04213860  0.22064328  0.76724869  1  0.012746  0  -0.071003  -0.052895  0  3.988586  0
C  C30  1  0.11123396  0.32628428  0.71335344  1  -0.057941  0  -0.07417  -0.14187  0  3.916812  0
C  C31  1  0.61495257  0.96022722  0.39414457  1  -0.007554  0  -0.072623  -0.063532  0  3.645196  0
C  C32  1  0.06043017  0.41265872  0.61663183  1  0.450005  0  0.133112  0.183272  0  3.921853  0
C  C33  1  0.93630148  0.39096614  0.57695749  1  0.466247  0  0.133372  0.188972  0  3.91467  0
C  C34  1  0.95448539  0.57657661  0.43426890  1  0.537463  0  0.136408  0.143322  0  3.933919  0
C  C35  1  0.49659035  0.54938586  0.26460058  1  1.598473  0  0.218517  0.604369  0  4.176796  0
C  C36  1  0.07551565  0.59785475  0.47427862  1  0.555292  0  0.079612  0.050872  0  3.867566  0
C  C37  1  0.51828572  0.73646575  0.50667599  1  1.580339  0  0.222766  0.612656  0  4.158537  0
C  C38  1  0.42323507  0.03915256  0.60479790  1  -0.010861  0  -0.068504  -0.080139  0  3.617309  0
C  C39  1  0.55610400  0.93500348  0.60827654  1  -0.032888  0  -0.004928  0.010912  0  3.666352  0
C  C40  1  0.51624384  0.87395595  0.50264514  1  0.018269  0  -0.001  -0.041042  0  3.636781  0
C  C41  1  0.38390214  0.97646496  0.50145855  1  -0.041279  0  -0.074978  -0.062095  0  3.650267  0
C  C42  1  0.65454090  0.02293110  0.49731561  1  -0.049616  0  -0.07219  -0.084734  0  3.622123  0
C  C43  1  0.48153700  0.06203243  0.39117375  1  -0.04126  0  -0.067939  -0.057392  0  3.606506  0
C  C44  1  0.60194399  0.87622189  0.72630906  1  0.941027  0  0.096698  0.266498  0  4.007714  0
C  C45  1  0.34041675  0.81233127  0.20376575  1  0.922309  0  0.08688  0.259745  0  4.029808  0
C  C46  1  0.91625841  0.66492505  0.32202447  1  1.008208  0  0.110325  0.246128  0  3.971497  0
C  C47  1  0.52249236  0.12452661  0.49581685  1  -0.002051  0  -0.009144  -0.028111  0  3.666114  0
C  C48  1  0.27590405  0.67559171  0.88332993  1  -0.095826  0  -0.071297  -0.083037  0  3.909688  0
C  C49  1  0.18150170  0.76937531  0.94054876  1  0.007695  0  -0.095336  -0.089257  0  4.044551  0
C  C50  1  0.20028584  0.80354361  0.05338456  1  -0.046554  0  -0.082273  -0.10442  0  4.024118  0
C  C51  1  0.31029129  0.74268670  0.11078151  1  -0.045947  0  -0.024261  -0.042584  0  3.997237  0
C  C52  1  0.39941355  0.63512755  0.06156842  1  0.068119  0  0.01445  0.05049  0  3.878486  0
N  N53  1  0.88627284  0.47477665  0.48407390  1  -1.174653  0  -0.271165  -0.217997  0  3.378834  0
N  N54  1  0.13000806  0.51639599  0.56023463  1  -1.219403  0  -0.291608  -0.194222  0  3.440691  0
O  O55  1  0.36300586  0.47399632  0.72833271  1  -1.167079  0  -0.319526  -0.560589  0  2.351843  0
O  O56  1  0.45553448  0.80872195  0.23308611  1  -1.077457  0  -0.252566  -0.331917  0  2.164625  0
O  O57  1  0.88261943  0.62880815  0.23535205  1  -1.027532  0  -0.223915  -0.285708  0  2.148309  0
O  O58  1  0.60726482  0.46373512  0.67268108  1  -1.170396  0  -0.310909  -0.560415  0  2.369776  0
O  O59  1  0.40160573  0.32764795  0.51285691  1  -1.170762  0  -0.315563  -0.548947  0  2.341194  0
O  O60  1  0.64737420  0.30004497  0.47353125  1  -1.161279  0  -0.314254  -0.544892  0  2.345037  0
O  O61  1  0.37167551  0.56132388  0.34239390  1  -1.170979  0  -0.32021  -0.56919  0  2.368806  0
O  O62  1  0.61612442  0.51952908  0.29622226  1  -1.156066  0  -0.305996  -0.535167  0  2.388062  0
O  O63  1  0.39694697  0.69158971  0.54326151  1  -1.161786  0  -0.315942  -0.552666  0  2.321545  0
O  O64  1  0.64247907  0.67490718  0.47405252  1  -1.154858  0  -0.306333  -0.541764  0  2.356001  0
O  O65  1  0.62784552  0.76365031  0.76064852  1  -1.057555  0  -0.254316  -0.340155  0  2.157199  0
