# generated using pymatgen
data_MnH2C6SO4
_symmetry_space_group_name_H-M   'P 1'
_cell_length_a   4.59879718
_cell_length_b   6.08634276
_cell_length_c   13.33162833
_cell_angle_alpha   86.62146217
_cell_angle_beta   80.09074642
_cell_angle_gamma   70.21494355
_symmetry_Int_Tables_number   1
_chemical_formula_structural   MnH2C6SO4
_chemical_formula_sum   'Mn2 H4 C12 S2 O8'
_cell_volume   345.88464419
_cell_formula_units_Z   2
loop_
 _symmetry_equiv_pos_site_id
 _symmetry_equiv_pos_as_xyz
  1  'x, y, z'
loop_
 _atom_site_type_symbol
 _atom_site_label
 _atom_site_symmetry_multiplicity
 _atom_site_fract_x
 _atom_site_fract_y
 _atom_site_fract_z
 _atom_site_occupancy
 _atom_site_hle17_ddec_charge
 _atom_site_hle17_ddec_spin_density
 _atom_site_hle17_ddec_sum_bond_order
 _atom_site_hle17_magmom
 _atom_site_hse06_10hf_ddec_charge
 _atom_site_hse06_10hf_ddec_spin_density
 _atom_site_hse06_10hf_ddec_sum_bond_order
 _atom_site_hse06_10hf_magmom
 _atom_site_hse06_ddec_charge
 _atom_site_hse06_ddec_spin_density
 _atom_site_hse06_ddec_sum_bond_order
 _atom_site_hse06_magmom
 _atom_site_pbe_cm5_charge
 _atom_site_pbe_ddec_charge
 _atom_site_pbe_ddec_spin_density
 _atom_site_pbe_ddec_sum_bond_order
 _atom_site_pbe_magmom
Mn  Mn0  1  0.77719967  0.75022343  0.44547655  1  1.283923  4.768136  1.729342  4.669  1.141425  4.683016  2.223924  4.523  1.195183  4.734004  2.149956  4.593  0.632038  1.099573  4.627979  2.278375  4.449
Mn  Mn1  1  0.22281956  0.24976384  0.55452480  1  1.283874  4.768149  1.729371  4.669  1.141363  4.683028  2.223908  4.523  1.195126  4.734009  2.149942  4.593  0.632034  1.099508  4.627997  2.278356  4.449
H  H2  1  0.34020763  0.47165034  0.85666326  1  0.133177  -0.000285  0.953761  0.0  0.138772  -7.4e-05  1.019303  0.0  0.142088  -0.000124  1.017427  0.0  0.10877  0.136394  -4e-06  1.020711  0.0
H  H3  1  0.80199085  0.02782374  0.85682059  1  0.13335  -0.000276  0.956108  0.0  0.138899  -5.9e-05  1.021641  0.0  0.142238  -0.000115  1.019762  0.0  0.108976  0.136454  1.8e-05  1.023089  0.0
H  H4  1  0.65977902  0.52835973  0.14333189  1  0.132974  -0.000289  0.953795  0.0  0.138581  -7.4e-05  1.019329  0.0  0.141899  -0.000124  1.017453  0.0  0.108727  0.136204  -4e-06  1.020738  0.0
H  H5  1  0.19798123  0.97219335  0.14317942  1  0.133333  -0.000269  0.956139  0.0  0.13888  -5.9e-05  1.021665  0.0  0.142242  -0.000115  1.01976  0.0  0.108987  0.136439  1.8e-05  1.023116  0.0
C  C6  1  0.45562511  0.60025183  0.83571012  1  -0.168198  0.00379  3.671685  0.003  -0.195168  0.005882  3.951083  0.005  -0.193302  0.003962  3.967235  0.003  -0.091251  -0.196382  0.00868  3.940249  0.007
C  C7  1  0.70792207  0.89901060  0.83582037  1  -0.170252  0.003818  3.674086  0.003  -0.19689  0.005948  3.953994  0.005  -0.195112  0.004014  3.970192  0.003  -0.092536  -0.198025  0.008759  3.943222  0.007
C  C8  1  0.54435668  0.39974255  0.16429465  1  -0.168042  0.003785  3.671741  0.003  -0.194897  0.005877  3.951254  0.005  -0.193033  0.003958  3.967407  0.003  -0.091194  -0.196102  0.008674  3.940389  0.007
C  C9  1  0.29205293  0.10099950  0.16418202  1  -0.170173  0.003808  3.674075  0.003  -0.196843  0.005949  3.953786  0.005  -0.195093  0.004014  3.969973  0.003  -0.092511  -0.197982  0.00876  3.943028  0.007
C  C10  1  0.55871397  0.66154021  0.73831717  1  -0.05614  -0.001407  3.725038  0.0  -0.046049  -0.000398  3.966654  0.0  -0.05179  -0.00126  3.985741  0.0  -0.015674  -0.042591  0.000381  3.954883  0.0
C  C11  1  0.70367793  0.83728153  0.73838832  1  -0.05459  -0.001385  3.723003  0.0  -0.046353  -0.000358  3.966312  0.0  -0.052082  -0.001236  3.985384  0.0  -0.015981  -0.042904  0.000433  3.954527  0.0
C  C12  1  0.44128626  0.33844890  0.26167585  1  -0.055806  -0.001395  3.725115  0.0  -0.046196  -0.000394  3.967178  0.0  -0.051937  -0.001258  3.986262  0.0  -0.015704  -0.042728  0.000384  3.955411  0.0
C  C13  1  0.29632633  0.16273194  0.26161202  1  -0.054748  -0.001387  3.723141  0.0  -0.046163  -0.000359  3.966132  0.0  -0.051889  -0.001236  3.985203  0.0  -0.016014  -0.042727  0.000432  3.954369  0.0
C  C14  1  0.53561976  0.53471217  0.64999096  1  0.713899  0.018953  3.80559  0.019  0.655112  0.030523  4.100958  0.028  0.693653  0.02268  4.090604  0.022  0.242583  0.62722  0.03895  4.107772  0.034
C  C15  1  0.81539033  0.96411139  0.65006659  1  0.711613  0.018887  3.806142  0.019  0.652844  0.03046  4.101664  0.028  0.69141  0.022636  4.09131  0.022  0.241452  0.624956  0.038864  4.108471  0.034
C  C16  1  0.46440242  0.46527858  0.35000589  1  0.713823  0.018951  3.805143  0.019  0.65515  0.030532  4.100516  0.028  0.693688  0.022688  4.090163  0.022  0.242604  0.627251  0.038965  4.10734  0.034
C  C17  1  0.18461768  0.03588115  0.34993260  1  0.711272  0.018897  3.806579  0.019  0.65251  0.030467  4.101959  0.028  0.691082  0.02264  4.09161  0.022  0.241345  0.624622  0.038873  4.108766  0.034
S  S18  1  0.53599911  0.74980103  0.92619919  1  0.144572  0.002437  2.713765  0.002  0.153791  0.005673  3.06228  0.003  0.150481  0.003617  3.068469  0.002  0.072237  0.155697  0.008405  3.058179  0.005
S  S19  1  0.46396961  0.25021259  0.07380130  1  0.144513  0.002436  2.713724  0.002  0.153717  0.005672  3.06223  0.003  0.150408  0.003615  3.068426  0.002  0.072214  0.155629  0.008404  3.058125  0.005
O  O20  1  0.32149327  0.44434435  0.66118371  1  -0.617494  0.041012  2.038615  0.03  -0.551506  0.051484  2.299622  0.037  -0.582543  0.044323  2.288017  0.03  -0.288172  -0.528395  0.058999  2.30718  0.045
O  O21  1  0.01832439  0.05443785  0.66128105  1  -0.61594  0.041003  2.039514  0.03  -0.54905  0.05139  2.299502  0.037  -0.580165  0.044256  2.288017  0.03  -0.286573  -0.525933  0.058869  2.307008  0.045
O  O22  1  0.67854259  0.55564458  0.33881794  1  -0.617401  0.041028  2.038432  0.03  -0.551462  0.05149  2.299411  0.037  -0.582498  0.04433  2.287799  0.03  -0.288134  -0.528349  0.059006  2.306975  0.045
O  O23  1  0.98167818  0.94555123  0.33871850  1  -0.615898  0.041007  2.039669  0.03  -0.549044  0.051393  2.299628  0.037  -0.580159  0.044261  2.288143  0.03  -0.286599  -0.525928  0.058872  2.307136  0.045
O  O24  1  0.74090158  0.51150617  0.56818267  1  -0.719023  0.052633  2.14912  0.023  -0.648068  0.068244  2.454494  0.032  -0.680231  0.061616  2.432503  0.027  -0.307924  -0.623201  0.074819  2.468896  0.037
O  O25  1  0.69163654  0.98764356  0.56823215  1  -0.718786  0.05266  2.1483  0.023  -0.647682  0.068247  2.453881  0.032  -0.679761  0.061613  2.431649  0.027  -0.307934  -0.622793  0.074825  2.468284  0.037
O  O26  1  0.25910632  0.48850205  0.43181854  1  -0.719248  0.052648  2.149302  0.023  -0.648175  0.068249  2.454536  0.032  -0.680334  0.061621  2.432537  0.027  -0.307957  -0.6233  0.074822  2.468934  0.037
O  O27  1  0.30838059  0.01234545  0.43176831  1  -0.718585  0.052651  2.148497  0.023  -0.647499  0.068241  2.454059  0.032  -0.67957  0.061607  2.431787  0.027  -0.307811  -0.622608  0.074818  2.468458  0.037
