# generated using pymatgen
data_KH4C14BrN4O
_symmetry_space_group_name_H-M   'P 1'
_cell_length_a   7.95975342
_cell_length_b   9.62627873
_cell_length_c   18.50445365
_cell_angle_alpha   89.99994331
_cell_angle_beta   102.34295281
_cell_angle_gamma   90.00032681
_symmetry_Int_Tables_number   1
_chemical_formula_structural   KH4C14BrN4O
_chemical_formula_sum   'K4 H16 C56 Br4 N16 O4'
_cell_volume   1385.09008510
_cell_formula_units_Z   4
loop_
 _symmetry_equiv_pos_site_id
 _symmetry_equiv_pos_as_xyz
  1  'x, y, z'
loop_
 _atom_site_type_symbol
 _atom_site_label
 _atom_site_symmetry_multiplicity
 _atom_site_fract_x
 _atom_site_fract_y
 _atom_site_fract_z
 _atom_site_occupancy
 _atom_site_hle17_bader_spin_density
 _atom_site_hle17_ddec_charge
 _atom_site_hle17_ddec_spin_density
 _atom_site_hle17_ddec_sum_bond_order
 _atom_site_hle17_magmom
 _atom_site_hse06_10hf_bader_spin_density
 _atom_site_hse06_10hf_ddec_charge
 _atom_site_hse06_10hf_ddec_spin_density
 _atom_site_hse06_10hf_ddec_sum_bond_order
 _atom_site_hse06_10hf_magmom
 _atom_site_hse06_bader_spin_density
 _atom_site_hse06_ddec_charge
 _atom_site_hse06_ddec_spin_density
 _atom_site_hse06_ddec_sum_bond_order
 _atom_site_hse06_magmom
 _atom_site_pbe_bader_spin_density
 _atom_site_pbe_cm5_charge
 _atom_site_pbe_ddec_charge
 _atom_site_pbe_ddec_spin_density
 _atom_site_pbe_ddec_sum_bond_order
 _atom_site_pbe_magmom
K  K0  1  0.92615321  0.13216561  0.90169139  1  0  0.928841  0  0.437943  0  0  0.87625  0  0.627703  0  0  0.88956  0  0.607053  0  0  0.823887  0.866292  0  0.642647  0
K  K1  1  0.57382674  0.63216662  0.09830549  1  0  0.928867  0  0.437948  0  0  0.876278  0  0.627689  0  0  0.889592  0  0.607037  0  0  0.823889  0.866325  0  0.642632  0
K  K2  1  0.07383453  0.86782557  0.09830551  1  0  0.928852  0  0.437942  0  0  0.876267  0  0.627678  0  0  0.889577  0  0.607029  0  0  0.823898  0.866309  0  0.642624  0
K  K3  1  0.42616485  0.36782663  0.90169286  1  0  0.928854  0  0.437916  0  0  0.876273  0  0.627648  0  0  0.889585  0  0.606997  0  0  0.823887  0.866317  0  0.642591  0
H  H4  1  0.72378614  0.18019112  0.73100443  1  0  0.102097  0  0.974259  0  0  0.106972  0  1.045388  0  0  0.110376  0  1.042403  0  0  0.107831  0.104563  0  1.047559  0
H  H5  1  0.77622626  0.68018654  0.26900085  1  0  0.10211  0  0.974216  0  0  0.107016  0  1.045317  0  0  0.110425  0  1.042329  0  0  0.107838  0.104604  0  1.047494  0
H  H6  1  0.27622346  0.81980525  0.26899451  1  0  0.10205  0  0.974302  0  0  0.106948  0  1.045406  0  0  0.110359  0  1.042412  0  0  0.107834  0.104537  0  1.047577  0
H  H7  1  0.22377815  0.31980256  0.73100463  1  0  0.1021  0  0.974217  0  0  0.106972  0  1.045349  0  0  0.11038  0  1.042356  0  0  0.107852  0.104561  0  1.047518  0
H  H8  1  0.87326419  0.59281099  0.67556668  1  0  0.085669  0  0.987316  0  0  0.092535  0  1.05547  0  0  0.093757  0  1.056524  0  0  0.098501  0.091627  0  1.054889  0
H  H9  1  0.62673991  0.09280235  0.32443408  1  0  0.085693  0  0.987423  0  0  0.092603  0  1.055525  0  0  0.093825  0  1.05658  0  0  0.098513  0.091694  0  1.054948  0
H  H10  1  0.12673896  0.40719473  0.32443490  1  0  0.085688  0  0.987345  0  0  0.092573  0  1.055477  0  0  0.093794  0  1.056532  0  0  0.098516  0.091664  0  1.054897  0
H  H11  1  0.37326200  0.90718986  0.67555982  1  0  0.08566  0  0.987326  0  0  0.092571  0  1.055436  0  0  0.093793  0  1.05649  0  0  0.098525  0.091662  0  1.054857  0
H  H12  1  0.94454947  0.50192567  0.56206020  1  0  0.104824  0  0.960812  0  0  0.109872  0  1.030712  0  0  0.114078  0  1.027983  0  0  0.097786  0.106505  0  1.03337  0
H  H13  1  0.55544115  0.00192169  0.43793720  1  0  0.104862  0  0.96079  0  0  0.109895  0  1.030697  0  0  0.114093  0  1.027966  0  0  0.097806  0.106528  0  1.033358  0
H  H14  1  0.05544983  0.49808732  0.43793994  1  0  0.104841  0  0.960727  0  0  0.109858  0  1.030692  0  0  0.11406  0  1.027961  0  0  0.097765  0.106491  0  1.03335  0
H  H15  1  0.44455433  0.99808715  0.56205718  1  0  0.104863  0  0.960746  0  0  0.109873  0  1.030698  0  0  0.114082  0  1.027969  0  0  0.097756  0.106504  0  1.033359  0
H  H16  1  0.80581355  0.08729986  0.61874189  1  0  0.122427  0  0.948818  0  0  0.130672  0  1.011001  0  0  0.134271  0  1.009083  0  0  0.10462  0.128029  0  1.012651  0
H  H17  1  0.69418665  0.58729780  0.38125959  1  0  0.122374  0  0.948832  0  0  0.130577  0  1.011063  0  0  0.134178  0  1.009148  0  0  0.104622  0.127936  0  1.012708  0
H  H18  1  0.19419735  0.91270586  0.38125500  1  0  0.122408  0  0.948925  0  0  0.13064  0  1.011119  0  0  0.134238  0  1.009203  0  0  0.10463  0.127998  0  1.012767  0
H  H19  1  0.30580490  0.41270792  0.61874577  1  0  0.122389  0  0.948918  0  0  0.130627  0  1.011121  0  0  0.134223  0  1.009203  0  0  0.104629  0.127985  0  1.01277  0
C  C20  1  0.74742840  0.44151952  0.78007979  1  0  0.396532  0  3.723391  0  0  0.383811  0  3.980733  0  0  0.406322  0  3.981453  0  0  0.170218  0.368251  0  3.980028  0
C  C21  1  0.75257040  0.94152531  0.21992353  1  0  0.396635  0  3.723055  0  0  0.383999  0  3.980334  0  0  0.406457  0  3.981141  0  0  0.170216  0.368431  0  3.979636  0
C  C22  1  0.25257090  0.55847373  0.21992143  1  0  0.396491  0  3.723291  0  0  0.383824  0  3.980622  0  0  0.406321  0  3.981376  0  0  0.170149  0.36826  0  3.979921  0
C  C23  1  0.24743405  0.05846794  0.78007546  1  0  0.396508  0  3.723153  0  0  0.383732  0  3.980585  0  0  0.406285  0  3.981244  0  0  0.17017  0.36817  0  3.979882  0
C  C24  1  0.78092470  0.59190584  0.80446862  1  0  0.031526  0  3.709939  0  0  0.017392  0  3.958369  0  0  0.028032  0  3.972552  0  0  0.031836  0.010867  0  3.948221  0
C  C25  1  0.71907554  0.09190722  0.19553125  1  0  0.031404  0  3.710012  0  0  0.017336  0  3.958532  0  0  0.028001  0  3.972706  0  0  0.031797  0.010788  0  3.948369  0
C  C26  1  0.21907332  0.40809053  0.19553140  1  0  0.031494  0  3.709895  0  0  0.017408  0  3.958327  0  0  0.028048  0  3.972524  0  0  0.031813  0.010862  0  3.948171  0
C  C27  1  0.28092763  0.90809019  0.80446709  1  0  0.031647  0  3.709643  0  0  0.017606  0  3.958164  0  0  0.02824  0  3.972336  0  0  0.03189  0.011058  0  3.948008  0
C  C28  1  0.90554378  0.61004807  0.87060938  1  0  -0.158951  0  3.919076  0  0  -0.142175  0  4.161615  0  0  -0.155838  0  4.181784  0  0  -0.016701  -0.133203  0  4.148165  0
C  C29  1  0.59445916  0.11004069  0.12938965  1  0  -0.158858  0  3.919028  0  0  -0.142237  0  4.161801  0  0  -0.155898  0  4.181977  0  0  -0.016724  -0.13324  0  4.148324  0
C  C30  1  0.09445039  0.38995141  0.12938758  1  0  -0.159002  0  3.918947  0  0  -0.142274  0  4.161566  0  0  -0.155944  0  4.181752  0  0  -0.016727  -0.133283  0  4.148094  0
C  C31  1  0.40554397  0.88995984  0.87061571  1  0  -0.159131  0  3.918808  0  0  -0.142507  0  4.161611  0  0  -0.156179  0  4.181782  0  0  -0.016752  -0.133523  0  4.148151  0
C  C32  1  0.68455178  0.69640190  0.76165392  1  0  -0.148202  0  3.941788  0  0  -0.129824  0  4.181814  0  0  -0.1409  0  4.201147  0  0  -0.0203  -0.122445  0  4.168461  0
C  C33  1  0.81544401  0.19640054  0.23835034  1  0  -0.148085  0  3.941459  0  0  -0.129883  0  4.181686  0  0  -0.140952  0  4.201008  0  0  -0.020257  -0.122445  0  4.168255  0
C  C34  1  0.31545009  0.30359655  0.23834646  1  0  -0.148194  0  3.941538  0  0  -0.12989  0  4.181631  0  0  -0.140964  0  4.200965  0  0  -0.020288  -0.12247  0  4.168222  0
C  C35  1  0.18455400  0.80359479  0.76165076  1  0  -0.148035  0  3.941543  0  0  -0.12976  0  4.181697  0  0  -0.140845  0  4.201038  0  0  -0.02024  -0.122335  0  4.168277  0
C  C36  1  0.00326570  0.49598835  0.90431103  1  0  0.323706  0  3.839755  0  0  0.305673  0  4.110825  0  0  0.319261  0  4.130248  0  0  0.195868  0.296357  0  4.098027  0
C  C37  1  0.49673715  0.99598201  0.09568651  1  0  0.323826  0  3.839692  0  0  0.305846  0  4.110794  0  0  0.319432  0  4.130216  0  0  0.195934  0.29652  0  4.097995  0
C  C38  1  0.99672202  0.50401737  0.09568857  1  0  0.323915  0  3.839565  0  0  0.3059  0  4.110632  0  0  0.319491  0  4.130049  0  0  0.195959  0.296579  0  4.097832  0
C  C39  1  0.50327114  0.00402891  0.90431717  1  0  0.324058  0  3.839408  0  0  0.306079  0  4.110492  0  0  0.319671  0  4.129909  0  0  0.196058  0.29676  0  4.097695  0
C  C40  1  0.94709816  0.73801555  0.90712501  1  0  0.336578  0  3.815289  0  0  0.319087  0  4.084822  0  0  0.333263  0  4.103093  0  0  0.201504  0.309372  0  4.072886  0
C  C41  1  0.55289411  0.23800907  0.09287242  1  0  0.336466  0  3.815259  0  0  0.319012  0  4.084838  0  0  0.333179  0  4.103113  0  0  0.201514  0.30929  0  4.072901  0
C  C42  1  0.05288830  0.26198705  0.09287178  1  0  0.33648  0  3.815465  0  0  0.318996  0  4.085009  0  0  0.333173  0  4.103282  0  0  0.201458  0.309274  0  4.073067  0
C  C43  1  0.44710259  0.76199976  0.90713289  1  0  0.336535  0  3.815278  0  0  0.319076  0  4.084867  0  0  0.333254  0  4.103141  0  0  0.201484  0.309358  0  4.072927  0
C  C44  1  0.71362563  0.83942503  0.77616663  1  0  0.29872  0  3.821456  0  0  0.280991  0  4.094735  0  0  0.293091  0  4.114073  0  0  0.186342  0.272802  0  4.081833  0
C  C45  1  0.78637245  0.33942564  0.22383615  1  0  0.2988  0  3.821177  0  0  0.281152  0  4.09448  0  0  0.29325  0  4.113816  0  0  0.186469  0.272942  0  4.081572  0
C  C46  1  0.28637621  0.16057030  0.22383861  1  0  0.298703  0  3.821413  0  0  0.281004  0  4.094705  0  0  0.293108  0  4.114038  0  0  0.186352  0.272802  0  4.081795  0
C  C47  1  0.21361913  0.66057073  0.77616274  1  0  0.298605  0  3.821562  0  0  0.280911  0  4.094866  0  0  0.293015  0  4.114203  0  0  0.186325  0.272708  0  4.08195  0
C  C48  1  0.55382608  0.66423137  0.69908527  1  0  0.264746  0  3.815282  0  0  0.249023  0  4.088798  0  0  0.258679  0  4.107973  0  0  0.174851  0.2426  0  4.076048  0
C  C49  1  0.94617850  0.16422948  0.30091766  1  0  0.264546  0  3.815178  0  0  0.24888  0  4.088753  0  0  0.25853  0  4.107925  0  0  0.174732  0.242438  0  4.075991  0
C  C50  1  0.44618222  0.33577227  0.30091571  1  0  0.264531  0  3.81506  0  0  0.248824  0  4.088631  0  0  0.258481  0  4.1078  0  0  0.174667  0.24239  0  4.075871  0
C  C51  1  0.05382852  0.83576793  0.69908157  1  0  0.264688  0  3.815051  0  0  0.24901  0  4.08859  0  0  0.258671  0  4.107757  0  0  0.17481  0.242572  0  4.075828  0
C  C52  1  0.79286990  0.39296718  0.71184361  1  0  -0.065741  0  3.775275  0  0  -0.05192  0  4.011982  0  0  -0.063591  0  4.039705  0  0  -0.023285  -0.044402  0  3.993483  0
C  C53  1  0.70713757  0.89296328  0.28815893  1  0  -0.065595  0  3.775057  0  0  -0.05188  0  4.01189  0  0  -0.063548  0  4.039648  0  0  -0.023232  -0.044356  0  3.993388  0
C  C54  1  0.20713841  0.60702919  0.28815683  1  0  -0.065663  0  3.775161  0  0  -0.052002  0  4.012036  0  0  -0.06368  0  4.039783  0  0  -0.023262  -0.044479  0  3.993534  0
C  C55  1  0.29286688  0.10702893  0.71184061  1  0  -0.065792  0  3.775174  0  0  -0.051987  0  4.011942  0  0  -0.063679  0  4.03967  0  0  -0.0233  -0.044466  0  3.993442  0
C  C56  1  0.77381688  0.25022768  0.69441197  1  0  -0.025188  0  3.670801  0  0  -0.048205  0  3.919738  0  0  -0.045441  0  3.939951  0  0  -0.066529  -0.049828  0  3.906064  0
C  C57  1  0.72619602  0.75022903  0.30559169  1  0  -0.02522  0  3.670811  0  0  -0.04825  0  3.919773  0  0  -0.045487  0  3.939994  0  0  -0.066523  -0.049876  0  3.9061  0
C  C58  1  0.22619658  0.74977181  0.30558679  1  0  -0.025089  0  3.670521  0  0  -0.048051  0  3.91941  0  0  -0.04529  0  3.939634  0  0  -0.066464  -0.049674  0  3.905738  0
C  C59  1  0.27380712  0.24976942  0.69441151  1  0  -0.025078  0  3.670556  0  0  -0.048063  0  3.919485  0  0  -0.045293  0  3.939689  0  0  -0.06646  -0.049687  0  3.905812  0
C  C60  1  0.81777170  0.19795530  0.63117628  1  0  -0.123444  0  3.728824  0  0  -0.143248  0  3.979876  0  0  -0.149758  0  4.001567  0  0  -0.09211  -0.138904  0  3.965452  0
C  C61  1  0.68223698  0.69795529  0.36882701  1  0  -0.123357  0  3.728901  0  0  -0.143118  0  3.979956  0  0  -0.149632  0  4.001653  0  0  -0.092139  -0.138774  0  3.965532  0
C  C62  1  0.18223662  0.80204938  0.36882199  1  0  -0.123554  0  3.72881  0  0  -0.143376  0  3.979899  0  0  -0.149887  0  4.00159  0  0  -0.092219  -0.139033  0  3.965477  0
C  C63  1  0.31776486  0.30205043  0.63117769  1  0  -0.123527  0  3.72888  0  0  -0.143385  0  3.979992  0  0  -0.149889  0  4.001677  0  0  -0.092249  -0.13904  0  3.96557  0
C  C64  1  0.87761555  0.28955475  0.58341834  1  0  0.116984  0  3.714364  0  0  0.129916  0  3.97906  0  0  0.136985  0  3.999265  0  0  -0.001754  0.124947  0  3.965258  0
C  C65  1  0.62238477  0.78955021  0.41658305  1  0  0.11694  0  3.71433  0  0  0.129897  0  3.978979  0  0  0.136967  0  3.999181  0  0  -0.001712  0.124929  0  3.965177  0
C  C66  1  0.12238633  0.71045201  0.41657934  1  0  0.117077  0  3.714211  0  0  0.130011  0  3.978899  0  0  0.137083  0  3.999099  0  0  -0.001688  0.125043  0  3.965098  0
C  C67  1  0.37761710  0.21045759  0.58341895  1  0  0.117047  0  3.714158  0  0  0.130014  0  3.978804  0  0  0.137084  0  3.999009  0  0  -0.001696  0.125045  0  3.965005  0
C  C68  1  0.89783530  0.43147463  0.59941184  1  0  -0.121904  0  3.743595  0  0  -0.1404  0  3.993399  0  0  -0.146006  0  4.01311  0  0  -0.094624  -0.136756  0  3.980321  0
C  C69  1  0.60216473  0.93147210  0.40058890  1  0  -0.121889  0  3.743509  0  0  -0.140389  0  3.993351  0  0  -0.145978  0  4.013043  0  0  -0.094644  -0.136745  0  3.980279  0
C  C70  1  0.10216915  0.56853109  0.40058770  1  0  -0.1219  0  3.743628  0  0  -0.140395  0  3.993414  0  0  -0.145991  0  4.013111  0  0  -0.094574  -0.136749  0  3.980337  0
C  C71  1  0.39783458  0.06853258  0.59940962  1  0  -0.121982  0  3.743416  0  0  -0.140491  0  3.993284  0  0  -0.146104  0  4.012999  0  0  -0.094604  -0.136845  0  3.980211  0
C  C72  1  0.85713985  0.48231135  0.66371807  1  0  -0.033295  0  3.705213  0  0  -0.055247  0  3.952564  0  0  -0.053227  0  3.974915  0  0  -0.072896  -0.05616  0  3.937087  0
C  C73  1  0.64286439  0.98230706  0.33628412  1  0  -0.033421  0  3.705305  0  0  -0.055364  0  3.952643  0  0  -0.053339  0  3.974988  0  0  -0.072903  -0.056265  0  3.937135  0
C  C74  1  0.14286716  0.51769125  0.33628387  1  0  -0.033317  0  3.705405  0  0  -0.055225  0  3.95274  0  0  -0.0532  0  3.97509  0  0  -0.072897  -0.056138  0  3.937258  0
C  C75  1  0.35713751  0.01768827  0.66371194  1  0  -0.0332  0  3.705243  0  0  -0.055174  0  3.952579  0  0  -0.05315  0  3.974932  0  0  -0.072877  -0.056077  0  3.937074  0
Br  Br76  1  0.93227684  0.21992784  0.49588179  1  0  -0.017832  0  1.367085  0  0  -0.012541  0  1.632453  0  0  -0.020855  0  1.62712  0  0  0.079608  -0.00571  0  1.635879  0
Br  Br77  1  0.56772174  0.71991042  0.50411515  1  0  -0.017853  0  1.36714  0  0  -0.012565  0  1.632484  0  0  -0.020881  0  1.627158  0  0  0.079577  -0.005727  0  1.635903  0
Br  Br78  1  0.06772506  0.78008411  0.50411534  1  0  -0.017839  0  1.367066  0  0  -0.012547  0  1.632428  0  0  -0.020862  0  1.627098  0  0  0.079596  -0.005711  0  1.635847  0
Br  Br79  1  0.43228654  0.28010776  0.49588907  1  0  -0.017854  0  1.367113  0  0  -0.012567  0  1.632464  0  0  -0.020884  0  1.627139  0  0  0.079593  -0.005729  0  1.635883  0
N  N80  1  0.08672191  0.40205710  0.93196494  1  0  -0.520892  0  2.646216  0  0  -0.495167  0  2.885504  0  0  -0.508174  0  2.895977  0  0  -0.440792  -0.486203  0  2.878764  0
N  N81  1  0.41326871  0.90205354  0.06803097  1  0  -0.521015  0  2.646241  0  0  -0.495286  0  2.88551  0  0  -0.508295  0  2.895982  0  0  -0.440846  -0.486321  0  2.878775  0
N  N82  1  0.91326453  0.59794239  0.06803400  1  0  -0.521068  0  2.646318  0  0  -0.49534  0  2.885589  0  0  -0.508347  0  2.896056  0  0  -0.440908  -0.486377  0  2.878854  0
N  N83  1  0.58672931  0.09794907  0.93196851  1  0  -0.52116  0  2.646408  0  0  -0.495437  0  2.885684  0  0  -0.508447  0  2.896151  0  0  -0.440995  -0.486474  0  2.87895  0
N  N84  1  0.98582846  0.84181689  0.93949781  1  0  -0.522133  0  2.630393  0  0  -0.496669  0  2.87049  0  0  -0.509976  0  2.880087  0  0  -0.437833  -0.487646  0  2.86439  0
N  N85  1  0.51417221  0.34181133  0.06050682  1  0  -0.52205  0  2.630428  0  0  -0.496574  0  2.870515  0  0  -0.509875  0  2.88011  0  0  -0.43779  -0.487553  0  2.864418  0
N  N86  1  0.01416696  0.15817533  0.06050575  1  0  -0.522031  0  2.630408  0  0  -0.496564  0  2.870476  0  0  -0.50987  0  2.880073  0  0  -0.437734  -0.48754  0  2.864377  0
N  N87  1  0.48581938  0.65817777  0.93949260  1  0  -0.522124  0  2.63019  0  0  -0.496647  0  2.870281  0  0  -0.509956  0  2.879878  0  0  -0.437809  -0.487625  0  2.864182  0
N  N88  1  0.73969877  0.95797660  0.78723830  1  0  -0.452259  0  2.63988  0  0  -0.427621  0  2.881748  0  0  -0.440355  0  2.895219  0  0  -0.372004  -0.419254  0  2.873295  0
N  N89  1  0.76027830  0.45797192  0.21275922  1  0  -0.452387  0  2.639749  0  0  -0.427756  0  2.881573  0  0  -0.440492  0  2.895042  0  0  -0.372134  -0.419387  0  2.873133  0
N  N90  1  0.26028639  0.04202392  0.21275945  1  0  -0.452228  0  2.639862  0  0  -0.427584  0  2.8817  0  0  -0.440319  0  2.895169  0  0  -0.372004  -0.419217  0  2.873255  0
N  N91  1  0.23970299  0.54202134  0.78723925  1  0  -0.452208  0  2.639945  0  0  -0.427574  0  2.881815  0  0  -0.44031  0  2.895287  0  0  -0.371997  -0.419208  0  2.873365  0
N  N92  1  0.44399313  0.64128772  0.64729185  1  0  -0.391061  0  2.596771  0  0  -0.369962  0  2.831631  0  0  -0.377326  0  2.842321  0  0  -0.308034  -0.36503  0  2.824742  0
N  N93  1  0.05601238  0.14129636  0.35270938  1  0  -0.390894  0  2.596761  0  0  -0.369793  0  2.831615  0  0  -0.377154  0  2.842303  0  0  -0.307925  -0.364861  0  2.824732  0
N  N94  1  0.55601002  0.35870554  0.35271081  1  0  -0.390817  0  2.596678  0  0  -0.369725  0  2.83155  0  0  -0.377088  0  2.842239  0  0  -0.307834  -0.364793  0  2.824666  0
N  N95  1  0.94398694  0.85870728  0.64728860  1  0  -0.39108  0  2.596615  0  0  -0.369998  0  2.831482  0  0  -0.377364  0  2.842169  0  0  -0.308024  -0.365068  0  2.824598  0
O  O96  1  0.68791940  0.36378318  0.82222859  1  0  -0.531733  0  1.955137  0  0  -0.489177  0  2.168592  0  0  -0.506192  0  2.163732  0  0  -0.326  -0.476649  0  2.17149  0
O  O97  1  0.81208016  0.86377894  0.17777052  1  0  -0.531917  0  1.954744  0  0  -0.489383  0  2.168171  0  0  -0.506383  0  2.16334  0  0  -0.326056  -0.476851  0  2.171071  0
O  O98  1  0.31208505  0.63621319  0.17776986  1  0  -0.531808  0  1.954873  0  0  -0.48927  0  2.168334  0  0  -0.506281  0  2.163483  0  0  -0.326033  -0.476739  0  2.171231  0
O  O99  1  0.18791401  0.13620808  0.82222644  1  0  -0.531798  0  1.954695  0  0  -0.48921  0  2.168179  0  0  -0.506242  0  2.163296  0  0  -0.325995  -0.47668  0  2.171074  0
