# generated using pymatgen
data_Cu3H8C12I2N5
_symmetry_space_group_name_H-M   'P 1'
_cell_length_a   11.53558765
_cell_length_b   11.53756749
_cell_length_c   13.38400000
_cell_angle_alpha   68.62748502
_cell_angle_beta   68.62363668
_cell_angle_gamma   81.57392520
_symmetry_Int_Tables_number   1
_chemical_formula_structural   Cu3H8C12I2N5
_chemical_formula_sum   'Cu12 H32 C48 I8 N20'
_cell_volume   1544.50345332
_cell_formula_units_Z   4
loop_
 _symmetry_equiv_pos_site_id
 _symmetry_equiv_pos_as_xyz
  1  'x, y, z'
loop_
 _atom_site_type_symbol
 _atom_site_label
 _atom_site_symmetry_multiplicity
 _atom_site_fract_x
 _atom_site_fract_y
 _atom_site_fract_z
 _atom_site_occupancy
 _atom_site_hle17_bader_spin_density
 _atom_site_hle17_ddec_charge
 _atom_site_hle17_ddec_spin_density
 _atom_site_hle17_ddec_sum_bond_order
 _atom_site_hle17_magmom
 _atom_site_hse06_10hf_bader_spin_density
 _atom_site_hse06_10hf_ddec_charge
 _atom_site_hse06_10hf_ddec_spin_density
 _atom_site_hse06_10hf_ddec_sum_bond_order
 _atom_site_hse06_10hf_magmom
 _atom_site_hse06_bader_spin_density
 _atom_site_hse06_ddec_charge
 _atom_site_hse06_ddec_spin_density
 _atom_site_hse06_ddec_sum_bond_order
 _atom_site_hse06_magmom
 _atom_site_pbe_bader_charge
 _atom_site_pbe_bader_spin_density
 _atom_site_pbe_cm5_charge
 _atom_site_pbe_ddec_charge
 _atom_site_pbe_ddec_spin_density
 _atom_site_pbe_ddec_sum_bond_order
 _atom_site_pbe_magmom
Cu  Cu0  1  0.63739796  0.36260205  0.74999947  1  0  0.465376  0  1.687626  0  0  0.346055  0  2.120753  0  0  0.358849  0  2.08023  0  0.574896  0  0.473277  0.339129  0  2.14562  0
Cu  Cu1  1  0.36260229  0.63739829  0.24999930  1  0  0.465314  0  1.687642  0  0  0.34601  0  2.120776  0  0  0.358801  0  2.080251  0  0.574901  0  0.473263  0.339082  0  2.145653  0
Cu  Cu2  1  0.49554490  0.98683524  0.61552373  1  0  0.319095  0  2.074134  0  0  0.217039  0  2.557369  0  0  0.222336  0  2.508232  0  0.53438  0  0.374286  0.216453  0  2.588785  0
Cu  Cu3  1  0.01315948  0.50443477  0.88457368  1  0  0.318789  0  2.074607  0  0  0.2166  0  2.557951  0  0  0.221887  0  2.508812  0  0.534163  0  0.374003  0.216073  0  2.589226  0
Cu  Cu4  1  0.50445630  0.01316417  0.38447578  1  0  0.319095  0  2.074166  0  0  0.217051  0  2.557402  0  0  0.22235  0  2.508267  0  0.53434  0  0.374298  0.216476  0  2.58882  0
Cu  Cu5  1  0.98683893  0.49556464  0.11542746  1  0  0.318817  0  2.07461  0  0  0.21663  0  2.557949  0  0  0.221959  0  2.508815  0  0.534206  0  0.374018  0.216115  0  2.589233  0
Cu  Cu6  1  0.24725621  0.19175175  0.66308061  1  0  0.378855  0  1.929923  0  0  0.267412  0  2.401508  0  0  0.273491  0  2.355185  0  0.554212  0  0.400792  0.265772  0  2.431552  0
Cu  Cu7  1  0.80826745  0.75273883  0.83684961  1  0  0.378977  0  1.929358  0  0  0.26749  0  2.400861  0  0  0.2736  0  2.354534  0  0.554241  0  0.400757  0.265791  0  2.430999  0
Cu  Cu8  1  0.75274497  0.80824859  0.33691637  1  0  0.378865  0  1.929961  0  0  0.267438  0  2.401533  0  0  0.273513  0  2.355209  0  0.554251  0  0.400796  0.265788  0  2.431592  0
Cu  Cu9  1  0.19173094  0.24726150  0.16314974  1  0  0.378913  0  1.929388  0  0  0.267441  0  2.400895  0  0  0.273541  0  2.354567  0  0.554238  0  0.400732  0.265746  0  2.43103  0
Cu  Cu10  1  0.00000021  0.49999924  0.50000029  1  0  0.297681  0  1.761702  0  0  0.193693  0  2.226939  0  0  0.223535  0  2.169087  0  0.252207  0  0.16181  0.173846  0  2.266234  0
Cu  Cu11  1  0.49999987  0.99999941  0.00000056  1  0  0.297562  0  1.761781  0  0  0.193593  0  2.226967  0  0  0.223434  0  2.169123  0  0.252058  0  0.16178  0.17375  0  2.266252  0
H  H12  1  0.63174989  0.94197355  0.77476197  1  0  0.072274  0  0.99322  0  0  0.076158  0  1.069616  0  0  0.079719  0  1.065047  0  0.117166  0  0.097821  0.073675  0  1.072587  0
H  H13  1  0.05804426  0.36822256  0.72523930  1  0  0.072297  0  0.99306  0  0  0.076186  0  1.069459  0  0  0.079757  0  1.064874  0  0.116902  0  0.097794  0.073696  0  1.072443  0
H  H14  1  0.36824942  0.05802772  0.22523755  1  0  0.072252  0  0.993241  0  0  0.076172  0  1.069593  0  0  0.079737  0  1.065021  0  0.117163  0  0.097864  0.073689  0  1.072565  0
H  H15  1  0.94195692  0.63177778  0.27475843  1  0  0.072271  0  0.993119  0  0  0.07618  0  1.069498  0  0  0.079752  0  1.064915  0  0.116934  0  0.097798  0.07369  0  1.072483  0
H  H16  1  0.21607046  0.33129177  0.81980130  1  0  0.079054  0  0.969396  0  0  0.082408  0  1.046101  0  0  0.086094  0  1.042  0  0.10223  0  0.099341  0.079838  0  1.048755  0
H  H17  1  0.66873741  0.78392066  0.68019203  1  0  0.078899  0  0.969531  0  0  0.082401  0  1.046085  0  0  0.086087  0  1.041985  0  0.102853  0  0.09929  0.07983  0  1.048742  0
H  H18  1  0.78392609  0.66870764  0.18020117  1  0  0.079079  0  0.969394  0  0  0.082437  0  1.046099  0  0  0.086122  0  1.041999  0  0.102249  0  0.099358  0.079866  0  1.048756  0
H  H19  1  0.33126472  0.21607875  0.31980794  1  0  0.078923  0  0.969529  0  0  0.082431  0  1.046068  0  0  0.086114  0  1.041971  0  0.102872  0  0.0993  0.07986  0  1.048724  0
H  H20  1  0.03323573  0.15004752  0.55206220  1  0  0.103541  0  0.968058  0  0  0.110489  0  1.03343  0  0  0.114012  0  1.032858  0  0.128561  0  0.09367  0.107658  0  1.034323  0
H  H21  1  0.84989704  0.96683765  0.94794233  1  0  0.103548  0  0.967904  0  0  0.11047  0  1.0333  0  0  0.114009  0  1.032709  0  0.12686  0  0.093695  0.107644  0  1.034189  0
H  H22  1  0.96676455  0.84995095  0.44793939  1  0  0.103575  0  0.968034  0  0  0.110516  0  1.033406  0  0  0.114059  0  1.032815  0  0.128565  0  0.093686  0.107685  0  1.034299  0
H  H23  1  0.15010601  0.03316269  0.05205855  1  0  0.103505  0  0.967932  0  0  0.110448  0  1.033318  0  0  0.113971  0  1.03274  0  0.126832  0  0.093689  0.107621  0  1.034206  0
H  H24  1  0.52668810  0.55479968  0.56228904  1  0  0.102232  0  0.965782  0  0  0.11197  0  1.030601  0  0  0.114926  0  1.02826  0  0.101184  0  0.095695  0.109698  0  1.032498  0
H  H25  1  0.44517864  0.47336185  0.93767937  1  0  0.102373  0  0.965615  0  0  0.112148  0  1.030359  0  0  0.115102  0  1.028023  0  0.101888  0  0.095854  0.109877  0  1.032256  0
H  H26  1  0.47330843  0.44520066  0.43771165  1  0  0.102219  0  0.96582  0  0  0.111954  0  1.030642  0  0  0.11491  0  1.028303  0  0.10113  0  0.095676  0.109684  0  1.032538  0
H  H27  1  0.55482349  0.52663755  0.06232060  1  0  0.102363  0  0.965627  0  0  0.112135  0  1.030373  0  0  0.115089  0  1.028037  0  0.101903  0  0.095851  0.109863  0  1.032269  0
H  H28  1  0.01832741  0.92448555  0.66646621  1  0  0.070943  0  0.960718  0  0  0.076119  0  1.033781  0  0  0.07949  0  1.030493  0  0.108982  0  0.099422  0.07357  0  1.036464  0
H  H29  1  0.07550599  0.98172670  0.83351616  1  0  0.070923  0  0.960843  0  0  0.076111  0  1.033862  0  0  0.079497  0  1.030541  0  0.109865  0  0.099377  0.07355  0  1.036573  0
H  H30  1  0.98167194  0.07551293  0.33353642  1  0  0.070919  0  0.960729  0  0  0.076096  0  1.033788  0  0  0.07947  0  1.030494  0  0.108966  0  0.099413  0.073549  0  1.036471  0
H  H31  1  0.92449704  0.01827457  0.16648368  1  0  0.070949  0  0.960842  0  0  0.076117  0  1.03387  0  0  0.079503  0  1.030553  0  0.109856  0  0.099403  0.07356  0  1.036575  0
H  H32  1  0.38847517  0.74439464  0.57084606  1  0  0.108414  0  0.963736  0  0  0.114425  0  1.03057  0  0  0.1179  0  1.029857  0  0.126967  0  0.099068  0.111476  0  1.031932  0
H  H33  1  0.25554566  0.61155864  0.92915505  1  0  0.108259  0  0.964107  0  0  0.114203  0  1.030975  0  0  0.11768  0  1.030265  0  0.12678  0  0.099008  0.111248  0  1.032343  0
H  H34  1  0.61152324  0.25560477  0.42915433  1  0  0.108414  0  0.963718  0  0  0.114405  0  1.030586  0  0  0.11788  0  1.029873  0  0.126957  0  0.099052  0.111458  0  1.031946  0
H  H35  1  0.74445554  0.38844076  0.07084446  1  0  0.108281  0  0.964032  0  0  0.114204  0  1.030944  0  0  0.117681  0  1.030232  0  0.126776  0  0.099023  0.111252  0  1.032307  0
H  H36  1  0.83605676  0.27745011  0.55060056  1  0  0.095047  0  0.956458  0  0  0.100408  0  1.030234  0  0  0.10519  0  1.02394  0  0.092525  0  0.096859  0.096903  0  1.034676  0
H  H37  1  0.72249356  0.16397593  0.94943048  1  0  0.09506  0  0.956749  0  0  0.100389  0  1.030614  0  0  0.105162  0  1.024341  0  0.092087  0  0.0968  0.096889  0  1.035047  0
H  H38  1  0.16394537  0.72254930  0.44939866  1  0  0.095063  0  0.95644  0  0  0.100403  0  1.03023  0  0  0.105185  0  1.023935  0  0.092515  0  0.096853  0.096898  0  1.03467  0
H  H39  1  0.27750950  0.83602348  0.05056919  1  0  0.095048  0  0.95676  0  0  0.100386  0  1.030606  0  0  0.10516  0  1.024331  0  0.092034  0  0.096795  0.096887  0  1.035036  0
H  H40  1  0.16863491  0.71521508  0.70236414  1  0  0.066488  0  0.964713  0  0  0.07182  0  1.037631  0  0  0.075215  0  1.034168  0  0.084382  0  0.099055  0.06917  0  1.040405  0
H  H41  1  0.28473648  0.83135616  0.79767002  1  0  0.066603  0  0.964557  0  0  0.071928  0  1.037465  0  0  0.075327  0  1.034014  0  0.084102  0  0.099094  0.069281  0  1.040237  0
H  H42  1  0.83136255  0.28478525  0.29763775  1  0  0.066516  0  0.964685  0  0  0.071858  0  1.037599  0  0  0.075253  0  1.034137  0  0.08442  0  0.099093  0.06921  0  1.04037  0
H  H43  1  0.71526474  0.16864231  0.20233052  1  0  0.066571  0  0.964581  0  0  0.071904  0  1.037481  0  0  0.075304  0  1.034029  0  0.084073  0  0.099074  0.069257  0  1.040255  0
C  C44  1  0.45020703  0.31534061  0.67632621  1  0  0.303519  0  3.791945  0  0  0.278268  0  4.044635  0  0  0.29058  0  4.062855  0  0.989966  0  0.205289  0.27031  0  4.032342  0
C  C45  1  0.68467132  0.54980657  0.82363707  1  0  0.30334  0  3.792506  0  0  0.278457  0  4.044781  0  0  0.290774  0  4.063012  0  0.991186  0  0.20529  0.270475  0  4.032465  0
C  C46  1  0.54979044  0.68465879  0.32367521  1  0  0.303469  0  3.791889  0  0  0.278203  0  4.044616  0  0  0.290523  0  4.062836  0  0.989697  0  0.205301  0.270254  0  4.032321  0
C  C47  1  0.31532986  0.45019377  0.17636140  1  0  0.303393  0  3.79232  0  0  0.278512  0  4.044555  0  0  0.290819  0  4.06279  0  0.991168  0  0.205325  0.270536  0  4.032243  0
C  C48  1  0.71941529  0.99014443  0.72281171  1  0  0.08124  0  3.694549  0  0  0.044336  0  3.942827  0  0  0.052964  0  3.954697  0  0.491804  0  0.030359  0.038387  0  3.93513  0
C  C49  1  0.00985846  0.28058151  0.77719855  1  0  0.081391  0  3.694456  0  0  0.044576  0  3.942529  0  0  0.053204  0  3.954385  0  0.491847  0  0.030498  0.038632  0  3.93484  0
C  C50  1  0.28058496  0.00985591  0.27718780  1  0  0.08129  0  3.694585  0  0  0.04436  0  3.942845  0  0  0.052982  0  3.954724  0  0.491856  0  0.030344  0.038409  0  3.935159  0
C  C51  1  0.99014179  0.71941883  0.22279947  1  0  0.081419  0  3.694515  0  0  0.044564  0  3.942566  0  0  0.053188  0  3.954432  0  0.491822  0  0.03049  0.038619  0  3.934879  0
C  C52  1  0.59977505  0.18090448  0.66244889  1  0  0.298172  0  3.785662  0  0  0.274774  0  4.038896  0  0  0.286191  0  4.057817  0  0.970907  0  0.206663  0.267318  0  4.0262  0
C  C53  1  0.81908207  0.40022819  0.83757718  1  0  0.298091  0  3.785602  0  0  0.274609  0  4.038971  0  0  0.286027  0  4.057892  0  0.969828  0  0.206672  0.267149  0  4.026286  0
C  C54  1  0.40022521  0.81909586  0.33754988  1  0  0.298136  0  3.785637  0  0  0.274746  0  4.038891  0  0  0.286161  0  4.057814  0  0.970892  0  0.206661  0.267298  0  4.026198  0
C  C55  1  0.18091912  0.59977214  0.16242055  1  0  0.298225  0  3.785478  0  0  0.274722  0  4.038844  0  0  0.286139  0  4.057765  0  0.969967  0  0.206757  0.267261  0  4.026159  0
C  C56  1  0.37843993  0.42846200  0.68544608  1  0  -0.046779  0  3.812349  0  0  -0.024286  0  4.046785  0  0  -0.029736  0  4.066083  0  0.03166  0  -0.009199  -0.021367  0  4.034263  0
C  C57  1  0.57153574  0.62157838  0.81452691  1  0  -0.046447  0  3.8125  0  0  -0.024132  0  4.047031  0  0  -0.029597  0  4.066328  0  0.032439  0  -0.00918  -0.021131  0  4.034416  0
C  C58  1  0.62155756  0.57153648  0.31455489  1  0  -0.046724  0  3.812256  0  0  -0.024197  0  4.046657  0  0  -0.029667  0  4.065977  0  0.031507  0  -0.009176  -0.021277  0  4.034135  0
C  C59  1  0.42846544  0.37842195  0.18547455  1  0  -0.046523  0  3.81252  0  0  -0.024132  0  4.046937  0  0  -0.029598  0  4.066239  0  0.032526  0  -0.009182  -0.021153  0  4.03435  0
C  C60  1  0.25595608  0.42111568  0.76044748  1  0  0.086574  0  3.675583  0  0  0.049975  0  3.922783  0  0  0.058149  0  3.935542  0  0.494638  0  0.034276  0.044317  0  3.915006  0
C  C61  1  0.57889842  0.74404836  0.73954192  1  0  0.086552  0  3.675446  0  0  0.049864  0  3.922812  0  0  0.058054  0  3.935556  0  0.493618  0  0.034189  0.044178  0  3.914993  0
C  C62  1  0.74404043  0.57888559  0.23955591  1  0  0.086546  0  3.675606  0  0  0.049937  0  3.922784  0  0  0.058114  0  3.935555  0  0.494617  0  0.034238  0.044284  0  3.91501  0
C  C63  1  0.42110276  0.25595198  0.26045880  1  0  0.08653  0  3.675401  0  0  0.0498  0  3.922804  0  0  0.057999  0  3.935538  0  0.493611  0  0.034165  0.04413  0  3.914988  0
C  C64  1  0.94200905  0.10749529  0.59954238  1  0  -0.105362  0  3.734018  0  0  -0.113084  0  3.975169  0  0  -0.121404  0  3.997911  0  0.014259  0  -0.087081  -0.107413  0  3.959833  0
C  C65  1  0.89246576  0.05803982  0.90046989  1  0  -0.105286  0  3.733974  0  0  -0.112977  0  3.975151  0  0  -0.121311  0  3.997893  0  0.016471  0  -0.087145  -0.107306  0  3.959808  0
C  C66  1  0.05799121  0.89250412  0.40045892  1  0  -0.105376  0  3.73399  0  0  -0.113098  0  3.975146  0  0  -0.121432  0  3.997878  0  0.014251  0  -0.087093  -0.107425  0  3.959811  0
C  C67  1  0.10753822  0.94196051  0.09953069  1  0  -0.105188  0  3.73406  0  0  -0.112886  0  3.975215  0  0  -0.121205  0  3.997963  0  0.016466  0  -0.087126  -0.107216  0  3.959873  0
C  C68  1  0.42966205  0.54634564  0.61793200  1  0  -0.036807  0  3.66791  0  0  -0.067282  0  3.919797  0  0  -0.06122  0  3.934132  0  -0.065599  0  -0.07335  -0.071001  0  3.910095  0
C  C69  1  0.45363078  0.57036639  0.88204151  1  0  -0.037147  0  3.668051  0  0  -0.06765  0  3.920018  0  0  -0.061578  0  3.934353  0  -0.06634  0  -0.073529  -0.071397  0  3.910296  0
C  C70  1  0.57033451  0.45365283  0.38206926  1  0  -0.036769  0  3.66782  0  0  -0.067245  0  3.919668  0  0  -0.061179  0  3.934008  0  -0.065396  0  -0.073322  -0.07097  0  3.909972  0
C  C71  1  0.54637044  0.42963208  0.11795903  1  0  -0.037102  0  3.668069  0  0  -0.067625  0  3.920014  0  0  -0.061556  0  3.934351  0  -0.066385  0  -0.073533  -0.071366  0  3.9103  0
C  C72  1  0.71902229  0.11684016  0.66025940  1  0  -0.040364  0  3.812742  0  0  -0.019592  0  4.043781  0  0  -0.025097  0  4.064679  0  -0.007713  0  -0.008538  -0.016462  0  4.029841  0
C  C73  1  0.88314193  0.28098736  0.83977129  1  0  -0.040186  0  3.811931  0  0  -0.019431  0  4.043062  0  0  -0.02493  0  4.063958  0  -0.006899  0  -0.008492  -0.016308  0  4.029135  0
C  C74  1  0.28097796  0.88316018  0.33973937  1  0  -0.040348  0  3.812725  0  0  -0.019578  0  4.043778  0  0  -0.025085  0  4.06468  0  -0.007699  0  -0.008518  -0.016449  0  4.02984  0
C  C75  1  0.11685830  0.71901391  0.16022645  1  0  -0.040252  0  3.812019  0  0  -0.019438  0  4.043098  0  0  -0.024938  0  4.063995  0  -0.006879  0  -0.008488  -0.016315  0  4.029169  0
C  C76  1  0.93438761  0.98104252  0.66343781  1  0  0.1207  0  3.677431  0  0  0.091131  0  3.924471  0  0  0.098993  0  3.940379  0  0.355377  0  0.03509  0.08546  0  3.914152  0
C  C77  1  0.01894117  0.06564585  0.83655651  1  0  0.120813  0  3.677431  0  0  0.091252  0  3.924441  0  0  0.099114  0  3.940359  0  0.354515  0  0.035222  0.085579  0  3.914129  0
C  C78  1  0.06561173  0.01895689  0.33656378  1  0  0.120718  0  3.677349  0  0  0.091155  0  3.924371  0  0  0.099017  0  3.940284  0  0.355378  0  0.035093  0.085484  0  3.914056  0
C  C79  1  0.98106000  0.93435542  0.16344318  1  0  0.120742  0  3.677564  0  0  0.091198  0  3.924565  0  0  0.099061  0  3.940476  0  0.354564  0  0.035188  0.085523  0  3.914251  0
C  C80  1  0.35342574  0.65085661  0.62253790  1  0  -0.096069  0  3.716413  0  0  -0.105311  0  3.961702  0  0  -0.113448  0  3.985031  0  -0.057841  0  -0.087036  -0.100016  0  3.946277  0
C  C81  1  0.34910290  0.64659142  0.87745269  1  0  -0.095832  0  3.716151  0  0  -0.104933  0  3.961357  0  0  -0.113061  0  3.98465  0  -0.057699  0  -0.086957  -0.099646  0  3.945952  0
C  C82  1  0.64657265  0.34914373  0.37746145  1  0  -0.096161  0  3.716439  0  0  -0.105383  0  3.961726  0  0  -0.113519  0  3.985049  0  -0.05796  0  -0.087051  -0.100088  0  3.946305  0
C  C83  1  0.65089828  0.35340891  0.12254728  1  0  -0.095869  0  3.716082  0  0  -0.104978  0  3.96131  0  0  -0.113106  0  3.984608  0  -0.057724  0  -0.086988  -0.09969  0  3.945904  0
C  C84  1  0.83319805  0.17788478  0.59890643  1  0  -0.04177  0  3.684538  0  0  -0.066096  0  3.929445  0  0  -0.060139  0  3.943103  0  -0.040964  0  -0.071038  -0.069627  0  3.919565  0
C  C85  1  0.82207130  0.16683179  0.90112832  1  0  -0.042018  0  3.684681  0  0  -0.066389  0  3.929578  0  0  -0.060445  0  3.943249  0  -0.041185  0  -0.07108  -0.069918  0  3.919699  0
C  C86  1  0.16680221  0.82211462  0.40109337  1  0  -0.041819  0  3.684551  0  0  -0.066122  0  3.929461  0  0  -0.060166  0  3.943125  0  -0.040964  0  -0.071052  -0.069654  0  3.919582  0
C  C87  1  0.17793083  0.83316761  0.09887239  1  0  -0.04206  0  3.684799  0  0  -0.066472  0  3.929725  0  0  -0.060528  0  3.943392  0  -0.041207  0  -0.071119  -0.070002  0  3.919846  0
C  C88  1  0.23067590  0.63524708  0.69606233  1  0  0.115089  0  3.690576  0  0  0.088429  0  3.932913  0  0  0.095252  0  3.94982  0  0.473392  0  0.036179  0.083802  0  3.921796  0
C  C89  1  0.36471868  0.76932762  0.80395225  1  0  0.114923  0  3.690315  0  0  0.088293  0  3.932646  0  0  0.0951  0  3.949578  0  0.472486  0  0.036087  0.083662  0  3.921509  0
C  C90  1  0.76932062  0.36475419  0.30393882  1  0  0.115177  0  3.690519  0  0  0.088488  0  3.932879  0  0  0.095314  0  3.949788  0  0.473323  0  0.036157  0.083868  0  3.921761  0
C  C91  1  0.63528252  0.23067178  0.19604875  1  0  0.114928  0  3.690299  0  0  0.088309  0  3.932626  0  0  0.095114  0  3.949557  0  0.472455  0  0.036109  0.08368  0  3.921495  0
I  I92  1  0.29154721  0.02118629  0.55831733  1  0  -0.432648  0  1.653718  0  0  -0.370356  0  2.13213  0  0  -0.386475  0  2.087201  0  -0.45682  0  -0.179494  -0.359267  0  2.162177  0
I  I93  1  0.97880590  0.70846358  0.94167770  1  0  -0.432394  0  1.653726  0  0  -0.370039  0  2.132076  0  0  -0.386171  0  2.087158  0  -0.45674  0  -0.179379  -0.358959  0  2.162101  0
I  I94  1  0.70845492  0.97881312  0.44168039  1  0  -0.432654  0  1.653725  0  0  -0.370381  0  2.132166  0  0  -0.386502  0  2.087237  0  -0.45687  0  -0.179508  -0.359294  0  2.162217  0
I  I95  1  0.02119249  0.29153676  0.05832315  1  0  -0.432393  0  1.653746  0  0  -0.370059  0  2.132126  0  0  -0.38619  0  2.087202  0  -0.456753  0  -0.179395  -0.358983  0  2.162154  0
I  I96  1  0.20463819  0.40643235  0.48260088  1  0  -0.430821  0  1.613588  0  0  -0.357246  0  2.086497  0  0  -0.37912  0  2.040188  0  -0.418536  0  -0.188395  -0.342363  0  2.118218  0
I  I97  1  0.59353587  0.79538322  0.01738863  1  0  -0.430848  0  1.61328  0  0  -0.357188  0  2.085957  0  0  -0.379059  0  2.039657  0  -0.418498  0  -0.188426  -0.342295  0  2.117683  0
I  I98  1  0.79536489  0.59356612  0.51739833  1  0  -0.430843  0  1.613621  0  0  -0.357287  0  2.08657  0  0  -0.379161  0  2.040262  0  -0.418526  0  -0.18841  -0.342405  0  2.118294  0
I  I99  1  0.40646440  0.20461618  0.98261118  1  0  -0.430872  0  1.613296  0  0  -0.357216  0  2.085983  0  0  -0.379088  0  2.039681  0  -0.418481  0  -0.188441  -0.342327  0  2.11771  0
N  N100  1  0.56877071  0.29311828  0.67790494  1  0  -0.473115  0  3.386108  0  0  -0.394092  0  3.683023  0  0  -0.414725  0  3.691238  0  -1.225759  0  -0.408489  -0.380915  0  3.677279  0
N  N101  1  0.70686882  0.43124898  0.82208740  1  0  -0.47316  0  3.38623  0  0  -0.394356  0  3.683276  0  0  -0.414986  0  3.691484  0  -1.225479  0  -0.408608  -0.381178  0  3.677537  0
N  N102  1  0.43122675  0.70688206  0.32209546  1  0  -0.473026  0  3.386102  0  0  -0.394043  0  3.683084  0  0  -0.414675  0  3.691294  0  -1.225512  0  -0.408495  -0.380887  0  3.677361  0
N  N103  1  0.29313329  0.56875135  0.17791004  1  0  -0.473148  0  3.386056  0  0  -0.394357  0  3.683101  0  0  -0.41498  0  3.691301  0  -1.225523  0  -0.408603  -0.381176  0  3.677366  0
N  N104  1  0.18307752  0.52239285  0.76723276  1  0  -0.276544  0  3.392106  0  0  -0.198093  0  3.675047  0  0  -0.210087  0  3.683904  0  -1.228347  0  -0.364133  -0.19073  0  3.669218  0
N  N105  1  0.47759515  0.81692324  0.73278393  1  0  -0.276471  0  3.392102  0  0  -0.198133  0  3.675202  0  0  -0.210136  0  3.684086  0  -1.228119  0  -0.364101  -0.190748  0  3.669341  0
N  N106  1  0.81692086  0.47760842  0.23276781  1  0  -0.276661  0  3.392099  0  0  -0.1982  0  3.675054  0  0  -0.210205  0  3.683929  0  -1.228193  0  -0.364164  -0.19085  0  3.669249  0
N  N107  1  0.52240605  0.18307617  0.26721633  1  0  -0.276392  0  3.391954  0  0  -0.198062  0  3.675061  0  0  -0.210066  0  3.683949  0  -1.228087  0  -0.364069  -0.19069  0  3.669217  0
N  N108  1  0.40993361  0.22195711  0.66068357  1  0  -0.261858  0  3.279712  0  0  -0.203802  0  3.592163  0  0  -0.213539  0  3.597396  0  -0.750008  0  -0.289603  -0.198077  0  3.588674  0
N  N109  1  0.77807257  0.59005679  0.83928591  1  0  -0.262024  0  3.279935  0  0  -0.204031  0  3.59223  0  0  -0.213784  0  3.597479  0  -0.750173  0  -0.289574  -0.198303  0  3.588751  0
N  N110  1  0.59006572  0.77804323  0.33931624  1  0  -0.261851  0  3.279624  0  0  -0.203789  0  3.592079  0  0  -0.213525  0  3.597305  0  -0.749955  0  -0.289598  -0.198061  0  3.588588  0
N  N111  1  0.22192768  0.40994354  0.16071286  1  0  -0.261991  0  3.279873  0  0  -0.204013  0  3.592174  0  0  -0.213756  0  3.597418  0  -0.75018  0  -0.289589  -0.198282  0  3.588699  0
N  N112  1  0.82440461  0.92271506  0.72713359  1  0  -0.283597  0  3.410094  0  0  -0.203861  0  3.699452  0  0  -0.215753  0  3.706897  0  -1.202396  0  -0.370515  -0.19632  0  3.694511  0
N  N113  1  0.07728435  0.17560884  0.77285609  1  0  -0.283752  0  3.410409  0  0  -0.204021  0  3.699744  0  0  -0.215911  0  3.7072  0  -1.20201  0  -0.370554  -0.196494  0  3.69482  0
N  N114  1  0.17559471  0.07728528  0.27286771  1  0  -0.283592  0  3.410078  0  0  -0.203859  0  3.699442  0  0  -0.21575  0  3.706887  0  -1.202437  0  -0.370523  -0.196327  0  3.694519  0
N  N115  1  0.92271680  0.82439336  0.22714181  1  0  -0.283713  0  3.410553  0  0  -0.203973  0  3.699885  0  0  -0.215861  0  3.707337  0  -1.20198  0  -0.370545  -0.196442  0  3.694957  0
N  N116  1  0.50583028  0.13622710  0.65115001  1  0  -0.256991  0  3.262924  0  0  -0.20187  0  3.571037  0  0  -0.210896  0  3.576334  0  -0.732204  0  -0.284379  -0.196666  0  3.567434  0
N  N117  1  0.86378468  0.49415160  0.84886588  1  0  -0.256775  0  3.262853  0  0  -0.201544  0  3.570867  0  0  -0.210575  0  3.576179  0  -0.732424  0  -0.284282  -0.196338  0  3.567261  0
N  N118  1  0.49416904  0.86377324  0.34884905  1  0  -0.256999  0  3.262882  0  0  -0.201894  0  3.571013  0  0  -0.210916  0  3.576307  0  -0.732202  0  -0.284395  -0.19669  0  3.567413  0
N  N119  1  0.13621651  0.50584874  0.15113260  1  0  -0.256835  0  3.262912  0  0  -0.201609  0  3.570946  0  0  -0.21065  0  3.576275  0  -0.732506  0  -0.284293  -0.196406  0  3.567349  0
