# generated using pymatgen
data_Hg3H16C32N4(O2F3)6
_symmetry_space_group_name_H-M   'P 1'
_cell_length_a   9.31133447
_cell_length_b   10.70119302
_cell_length_c   11.85700024
_cell_angle_alpha   110.25968297
_cell_angle_beta   102.42846652
_cell_angle_gamma   101.35646523
_symmetry_Int_Tables_number   1
_chemical_formula_structural   Hg3H16C32N4(O2F3)6
_chemical_formula_sum   'Hg3 H16 C32 N4 O12 F18'
_cell_volume   1033.79337807
_cell_formula_units_Z   1
loop_
 _symmetry_equiv_pos_site_id
 _symmetry_equiv_pos_as_xyz
  1  'x, y, z'
loop_
 _atom_site_type_symbol
 _atom_site_label
 _atom_site_symmetry_multiplicity
 _atom_site_fract_x
 _atom_site_fract_y
 _atom_site_fract_z
 _atom_site_occupancy
 _atom_site_hle17_bader_spin_density
 _atom_site_hle17_ddec_charge
 _atom_site_hle17_ddec_spin_density
 _atom_site_hle17_ddec_sum_bond_order
 _atom_site_hle17_magmom
 _atom_site_hse06_10hf_bader_spin_density
 _atom_site_hse06_10hf_ddec_charge
 _atom_site_hse06_10hf_ddec_spin_density
 _atom_site_hse06_10hf_ddec_sum_bond_order
 _atom_site_hse06_10hf_magmom
 _atom_site_hse06_bader_spin_density
 _atom_site_hse06_ddec_charge
 _atom_site_hse06_ddec_spin_density
 _atom_site_hse06_ddec_sum_bond_order
 _atom_site_hse06_magmom
 _atom_site_pbe_bader_spin_density
 _atom_site_pbe_cm5_charge
 _atom_site_pbe_ddec_charge
 _atom_site_pbe_ddec_spin_density
 _atom_site_pbe_ddec_sum_bond_order
 _atom_site_pbe_magmom
Hg  Hg0  1  0.00000246  0.00000143  0.99999902  1  0  1.025685  0  1.572153  0  0  0.864948  0  2.00266  0  0  0.945382  0  1.948802  0  0  0.660942  0.808796  0  2.038573  0
Hg  Hg1  1  0.98526226  0.38048257  0.27902615  1  0  0.988994  0  1.741704  0  0  0.8076  0  2.192691  0  0  0.869123  0  2.150954  0  0  0.695606  0.764447  0  2.220939  0
Hg  Hg2  1  0.01474196  0.61951018  0.72097592  1  0  0.989005  0  1.741874  0  0  0.807567  0  2.192876  0  0  0.869098  0  2.151114  0  0  0.69561  0.764429  0  2.221133  0
H  H3  1  0.83997834  0.67082448  0.01534374  1  0  0.129948  0  0.978578  0  0  0.14137  0  1.037072  0  0  0.144236  0  1.035656  0  0  0.110916  0.139436  0  1.037993  0
H  H4  1  0.16001790  0.32917443  0.98466139  1  0  0.129888  0  0.978599  0  0  0.14131  0  1.037097  0  0  0.144175  0  1.035683  0  0  0.110914  0.139375  0  1.038015  0
H  H5  1  0.59121647  0.50201008  0.87048938  1  0  0.10507  0  0.932584  0  0  0.113565  0  0.993421  0  0  0.116355  0  0.99107  0  0  0.108603  0.111407  0  0.995264  0
H  H6  1  0.40878251  0.49798682  0.12951138  1  0  0.105033  0  0.932576  0  0  0.113534  0  0.993409  0  0  0.116316  0  0.991077  0  0  0.108582  0.111374  0  0.995254  0
H  H7  1  0.50077507  0.27480915  0.89060328  1  0  0.113518  0  0.951871  0  0  0.120605  0  1.01463  0  0  0.123818  0  1.013468  0  0  0.107225  0.118197  0  1.015698  0
H  H8  1  0.49922751  0.72518880  0.10940015  1  0  0.113533  0  0.951862  0  0  0.120632  0  1.014606  0  0  0.123848  0  1.013444  0  0  0.107234  0.118223  0  1.015674  0
H  H9  1  0.67370107  0.22775769  0.05632957  1  0  0.098086  0  0.94338  0  0  0.104976  0  1.008451  0  0  0.107775  0  1.005323  0  0  0.117329  0.102921  0  1.010639  0
H  H10  1  0.32629958  0.77224124  0.94367636  1  0  0.09808  0  0.943409  0  0  0.105035  0  1.008399  0  0  0.107833  0  1.005277  0  0  0.117381  0.102983  0  1.010584  0
H  H11  1  0.05057722  0.79539842  0.12694311  1  0  0.111298  0  0.961259  0  0  0.124657  0  1.020353  0  0  0.126813  0  1.019408  0  0  0.110174  0.123019  0  1.021322  0
H  H12  1  0.94942203  0.20460267  0.87305735  1  0  0.111284  0  0.961317  0  0  0.12465  0  1.020403  0  0  0.1268  0  1.019467  0  0  0.110176  0.123012  0  1.021366  0
H  H13  1  0.30469299  0.94664452  0.27755367  1  0  0.112098  0  0.942992  0  0  0.119187  0  1.006112  0  0  0.122744  0  1.002638  0  0  0.108488  0.116575  0  1.008653  0
H  H14  1  0.69530591  0.05335552  0.72244723  1  0  0.112069  0  0.94304  0  0  0.119181  0  1.006157  0  0  0.122739  0  1.00268  0  0  0.108474  0.116567  0  1.008706  0
H  H15  1  0.43796246  0.87065686  0.44209532  1  0  0.110862  0  0.94076  0  0  0.120508  0  0.998574  0  0  0.123359  0  0.997967  0  0  0.108417  0.118369  0  0.99923  0
H  H16  1  0.56203639  0.12934315  0.55790725  1  0  0.110868  0  0.94077  0  0  0.120512  0  0.998578  0  0  0.123364  0  0.997971  0  0  0.10843  0.118372  0  0.999236  0
H  H17  1  0.30098222  0.64650856  0.44614986  1  0  0.090873  0  0.943631  0  0  0.095507  0  1.012886  0  0  0.097751  0  1.010283  0  0  0.110684  0.093704  0  1.014962  0
H  H18  1  0.69901782  0.35349151  0.55384957  1  0  0.090873  0  0.9436  0  0  0.0955  0  1.012849  0  0  0.097774  0  1.010198  0  0  0.110675  0.093698  0  1.014919  0
C  C19  1  0.89088017  0.54029041  0.11393120  1  0  0.174816  0  3.744121  0  0  0.16447  0  3.99235  0  0  0.172206  0  4.013779  0  0  0.121167  0.159312  0  3.977786  0
C  C20  1  0.10912158  0.45971172  0.88607173  1  0  0.174884  0  3.744069  0  0  0.164579  0  3.99223  0  0  0.172316  0  4.013657  0  0  0.121212  0.159427  0  3.977664  0
C  C21  1  0.80164542  0.57234307  0.02291812  1  0  -0.118226  0  3.643881  0  0  -0.139393  0  3.890911  0  0  -0.145968  0  3.910569  0  0  -0.07206  -0.135216  0  3.877585  0
C  C22  1  0.19835483  0.42765797  0.97708672  1  0  -0.118109  0  3.643798  0  0  -0.139292  0  3.890814  0  0  -0.145866  0  3.91047  0  0  -0.072045  -0.135112  0  3.877477  0
C  C23  1  0.66060309  0.47733639  0.94168821  1  0  0.016381  0  3.686165  0  0  -0.002987  0  3.937631  0  0  0.000766  0  3.956654  0  0  -0.058281  -0.005137  0  3.924722  0
C  C24  1  0.33939765  0.52266260  0.05831353  1  0  0.016375  0  3.686113  0  0  -0.002994  0  3.937578  0  0  0.000757  0  3.956605  0  0  -0.058286  -0.005147  0  3.924664  0
C  C25  1  0.61033616  0.35156347  0.95233107  1  0  -0.109437  0  3.71274  0  0  -0.123197  0  3.966207  0  0  -0.131193  0  3.98928  0  0  -0.076003  -0.118136  0  3.950831  0
C  C26  1  0.38966381  0.64843656  0.04767087  1  0  -0.109441  0  3.712624  0  0  -0.123207  0  3.966095  0  0  -0.131208  0  3.989172  0  0  -0.075998  -0.11814  0  3.95071  0
C  C27  1  0.70418363  0.32491820  0.04433292  1  0  0.140501  0  3.676948  0  0  0.10481  0  3.929385  0  0  0.112608  0  3.949223  0  0  0.05336  0.099824  0  3.915844  0
C  C28  1  0.29581489  0.67508077  0.95566926  1  0  0.140549  0  3.676921  0  0  0.104785  0  3.929391  0  0  0.11258  0  3.949227  0  0  0.05335  0.099803  0  3.915851  0
C  C29  1  0.04253293  0.63780693  0.20301512  1  0  0.170364  0  3.76978  0  0  0.161397  0  4.019023  0  0  0.168332  0  4.040995  0  0  0.119058  0.156896  0  4.003983  0
C  C30  1  0.95747034  0.36219312  0.79698825  1  0  0.170328  0  3.76982  0  0  0.161345  0  4.019089  0  0  0.16828  0  4.041063  0  0  0.119037  0.15684  0  4.004053  0
C  C31  1  0.10965610  0.76336465  0.19673723  1  0  -0.109513  0  3.65508  0  0  -0.128554  0  3.898244  0  0  -0.135328  0  3.920673  0  0  -0.069519  -0.124303  0  3.883387  0
C  C32  1  0.89034643  0.23663646  0.80326466  1  0  -0.109571  0  3.655065  0  0  -0.128613  0  3.898248  0  0  -0.135384  0  3.920679  0  0  -0.069563  -0.124356  0  3.883381  0
C  C33  1  0.25272149  0.84902800  0.28282918  1  0  0.009216  0  3.682168  0  0  -0.009107  0  3.93131  0  0  -0.005926  0  3.94974  0  0  -0.05813  -0.01095  0  3.918698  0
C  C34  1  0.74727923  0.15097098  0.71717341  1  0  0.009312  0  3.682138  0  0  -0.009048  0  3.931276  0  0  -0.005865  0  3.949711  0  0  -0.058109  -0.010896  0  3.918676  0
C  C35  1  0.32554395  0.80796384  0.37368429  1  0  -0.100528  0  3.696608  0  0  -0.118078  0  3.952872  0  0  -0.124776  0  3.973836  0  0  -0.07597  -0.113786  0  3.938936  0
C  C36  1  0.67445788  0.19203515  0.62631850  1  0  -0.100573  0  3.696692  0  0  -0.118104  0  3.952934  0  0  -0.124799  0  3.9739  0  0  -0.075984  -0.113813  0  3.938994  0
C  C37  1  0.25139309  0.68271163  0.37593477  1  0  0.14547  0  3.693547  0  0  0.110002  0  3.953787  0  0  0.117817  0  3.972841  0  0  0.052392  0.10478  0  3.940984  0
C  C38  1  0.74860655  0.31728736  0.62406678  1  0  0.145471  0  3.693424  0  0  0.110029  0  3.953648  0  0  0.117851  0  3.972657  0  0  0.05241  0.104813  0  3.94083  0
C  C39  1  0.14660782  0.35603696  0.50877904  1  0  0.495669  0  3.979297  0  0  0.441034  0  4.282467  0  0  0.473003  0  4.277824  0  0  0.195217  0.419272  0  4.285502  0
C  C40  1  0.85337173  0.64393292  0.49119866  1  0  0.495998  0  3.978917  0  0  0.441246  0  4.282207  0  0  0.473249  0  4.277503  0  0  0.195371  0.419481  0  4.285234  0
C  C41  1  0.20639974  0.27127551  0.58289682  1  0  0.683504  0  3.64749  0  0  0.611526  0  3.994115  0  0  0.637788  0  3.968504  0  0  0.298247  0.592464  0  4.013091  0
C  C42  1  0.79360485  0.72872149  0.41710076  1  0  0.68305  0  3.647752  0  0  0.611086  0  3.994383  0  0  0.637348  0  3.968757  0  0  0.298071  0.592028  0  4.013354  0
C  C43  1  0.25679373  0.21714549  0.19643689  1  0  0.496484  0  3.998065  0  0  0.440154  0  4.303206  0  0  0.47208  0  4.299156  0  0  0.190788  0.418637  0  4.305402  0
C  C44  1  0.74320460  0.78284934  0.80356225  1  0  0.496293  0  3.998299  0  0  0.44009  0  4.30324  0  0  0.472064  0  4.299082  0  0  0.190779  0.418571  0  4.305438  0
C  C45  1  0.41740032  0.30544128  0.29398067  1  0  0.687143  0  3.64452  0  0  0.613899  0  3.992352  0  0  0.640827  0  3.965393  0  0  0.297544  0.59434  0  4.012253  0
C  C46  1  0.58259899  0.69455667  0.70602048  1  0  0.687358  0  3.644182  0  0  0.613999  0  3.992096  0  0  0.640997  0  3.965006  0  0  0.297611  0.594439  0  4.011993  0
C  C47  1  0.80101205  0.01440596  0.16049618  1  0  0.501277  0  4.006109  0  0  0.449956  0  4.303237  0  0  0.481369  0  4.299764  0  0  0.187852  0.428906  0  4.304972  0
C  C48  1  0.19898980  0.98561299  0.83949947  1  0  0.500772  0  4.006763  0  0  0.449683  0  4.303497  0  0  0.481072  0  4.300069  0  0  0.187664  0.428626  0  4.305255  0
C  C49  1  0.68888812  0.03444931  0.24091200  1  0  0.67436  0  3.649405  0  0  0.608108  0  3.986759  0  0  0.634448  0  3.960722  0  0  0.295032  0.588858  0  4.006182  0
C  C50  1  0.31112067  0.96556754  0.75908928  1  0  0.674739  0  3.648913  0  0  0.608418  0  3.986225  0  0  0.634751  0  3.960214  0  0  0.295065  0.589149  0  4.005657  0
N  N51  1  0.83988337  0.41751267  0.12243862  1  0  -0.316699  0  3.296063  0  0  -0.229601  0  3.552216  0  0  -0.255084  0  3.576791  0  0  -0.297544  -0.212639  0  3.535374  0
N  N52  1  0.16011403  0.58248947  0.87756099  1  0  -0.316818  0  3.296184  0  0  -0.229701  0  3.552331  0  0  -0.255186  0  3.57691  0  0  -0.297601  -0.212752  0  3.53551  0
N  N53  1  0.11429749  0.60109126  0.29243126  1  0  -0.344663  0  3.292956  0  0  -0.269657  0  3.556093  0  0  -0.293392  0  3.579478  0  0  -0.307404  -0.253356  0  3.53956  0
N  N54  1  0.88570397  0.39890666  0.70757281  1  0  -0.344613  0  3.292891  0  0  -0.269648  0  3.556084  0  0  -0.293376  0  3.579457  0  0  -0.307409  -0.253354  0  3.539562  0
O  O55  1  0.07300680  0.27480574  0.39209474  1  0  -0.526483  0  2.088376  0  0  -0.457601  0  2.337149  0  0  -0.491876  0  2.331745  0  0  -0.287144  -0.434205  0  2.340267  0
O  O56  1  0.92699213  0.72516633  0.60788799  1  0  -0.526724  0  2.088015  0  0  -0.45771  0  2.336772  0  0  -0.491992  0  2.331344  0  0  -0.287221  -0.434311  0  2.339885  0
O  O57  1  0.17124267  0.48321783  0.56332691  1  0  -0.542159  0  2.024081  0  0  -0.513473  0  2.273809  0  0  -0.536255  0  2.263458  0  0  -0.305081  -0.497507  0  2.280311  0
O  O58  1  0.82871978  0.51676433  0.43665837  1  0  -0.542164  0  2.024238  0  0  -0.513446  0  2.273981  0  0  -0.536232  0  2.263612  0  0  -0.305086  -0.497485  0  2.280484  0
O  O59  1  0.22731849  0.08612866  0.16333595  1  0  -0.50857  0  2.01571  0  0  -0.45812  0  2.259009  0  0  -0.489836  0  2.252971  0  0  -0.279503  -0.436638  0  2.26267  0
O  O60  1  0.77268401  0.91386521  0.83665942  1  0  -0.508558  0  2.015653  0  0  -0.458126  0  2.258865  0  0  -0.489843  0  2.252814  0  0  -0.279533  -0.436642  0  2.262529  0
O  O61  1  0.17669375  0.28233144  0.15536085  1  0  -0.575637  0  2.070023  0  0  -0.535323  0  2.326152  0  0  -0.561621  0  2.31847  0  0  -0.307193  -0.516676  0  2.330385  0
O  O62  1  0.82330264  0.71765717  0.84463344  1  0  -0.575487  0  2.070073  0  0  -0.535242  0  2.32618  0  0  -0.561503  0  2.318432  0  0  -0.307166  -0.516591  0  2.330415  0
O  O63  1  0.83788487  0.90419842  0.13309841  1  0  -0.529749  0  1.974592  0  0  -0.498028  0  2.202897  0  0  -0.523765  0  2.1974  0  0  -0.299408  -0.47985  0  2.205544  0
O  O64  1  0.16213691  0.09582793  0.86690486  1  0  -0.529568  0  1.974803  0  0  -0.497926  0  2.20297  0  0  -0.523653  0  2.197489  0  0  -0.299349  -0.479739  0  2.205609  0
O  O65  1  0.83895074  0.11298240  0.12581833  1  0  -0.595731  0  2.077539  0  0  -0.542298  0  2.333205  0  0  -0.575964  0  2.326602  0  0  -0.30796  -0.51861  0  2.336548  0
O  O66  1  0.16103755  0.88702821  0.87416716  1  0  -0.595549  0  2.077831  0  0  -0.5422  0  2.333373  0  0  -0.575865  0  2.326801  0  0  -0.307873  -0.518502  0  2.336709  0
F  F67  1  0.28546056  0.19028874  0.52278172  1  0  -0.236955  0  1.166776  0  0  -0.206707  0  1.335977  0  0  -0.21606  0  1.319977  0  0  -0.103484  -0.199848  0  1.347115  0
F  F68  1  0.71454218  0.80970294  0.47722143  1  0  -0.236808  0  1.166753  0  0  -0.206559  0  1.335947  0  0  -0.215914  0  1.319949  0  0  -0.103414  -0.199699  0  1.347082  0
F  F69  1  0.08610346  0.18618754  0.59437196  1  0  -0.237235  0  1.157147  0  0  -0.196279  0  1.311109  0  0  -0.20544  0  1.29635  0  0  -0.100779  -0.189641  0  1.321502  0
F  F70  1  0.91391150  0.81381551  0.40564798  1  0  -0.237147  0  1.157327  0  0  -0.19613  0  1.311232  0  0  -0.205295  0  1.296474  0  0  -0.100693  -0.189493  0  1.321626  0
F  F71  1  0.30220132  0.35647869  0.70124816  1  0  -0.247739  0  1.178063  0  0  -0.204922  0  1.338914  0  0  -0.215075  0  1.324867  0  0  -0.101503  -0.197543  0  1.348714  0
F  F72  1  0.69781064  0.64353726  0.29874498  1  0  -0.247622  0  1.178088  0  0  -0.20486  0  1.338965  0  0  -0.215023  0  1.324934  0  0  -0.101518  -0.197478  0  1.348759  0
F  F73  1  0.46922577  0.24677599  0.37305686  1  0  -0.24067  0  1.209156  0  0  -0.202039  0  1.378755  0  0  -0.211302  0  1.36218  0  0  -0.094801  -0.195283  0  1.390345  0
F  F74  1  0.53076436  0.75322805  0.62695133  1  0  -0.240673  0  1.209057  0  0  -0.201997  0  1.378656  0  0  -0.211204  0  1.362062  0  0  -0.094753  -0.195234  0  1.390244  0
F  F75  1  0.52089140  0.32067857  0.23010335  1  0  -0.248276  0  1.169164  0  0  -0.207716  0  1.334  0  0  -0.217451  0  1.318383  0  0  -0.100946  -0.200626  0  1.345023  0
F  F76  1  0.47910827  0.67931725  0.76990057  1  0  -0.248342  0  1.168993  0  0  -0.207775  0  1.333863  0  0  -0.21745  0  1.318211  0  0  -0.100991  -0.200685  0  1.344887  0
F  F77  1  0.41706823  0.43546042  0.36663840  1  0  -0.248547  0  1.183681  0  0  -0.211509  0  1.351583  0  0  -0.220993  0  1.335513  0  0  -0.105064  -0.204657  0  1.362939  0
F  F78  1  0.58292017  0.56453753  0.63335573  1  0  -0.24866  0  1.183674  0  0  -0.211581  0  1.351595  0  0  -0.22155  0  1.336014  0  0  -0.105121  -0.204723  0  1.362947  0
F  F79  1  0.67766127  0.94728862  0.30103462  1  0  -0.238629  0  1.179831  0  0  -0.211977  0  1.352583  0  0  -0.220077  0  1.335349  0  0  -0.103609  -0.206017  0  1.364678  0
F  F80  1  0.32237529  0.05273978  0.69898124  1  0  -0.238636  0  1.179841  0  0  -0.211974  0  1.352602  0  0  -0.22007  0  1.335372  0  0  -0.10351  -0.205998  0  1.364692  0
F  F81  1  0.73040242  0.16683130  0.33019387  1  0  -0.237615  0  1.206024  0  0  -0.207262  0  1.385783  0  0  -0.217231  0  1.369833  0  0  -0.100372  -0.199946  0  1.397007  0
F  F82  1  0.26959404  0.83318769  0.66979576  1  0  -0.237699  0  1.205765  0  0  -0.207355  0  1.38555  0  0  -0.21732  0  1.3696  0  0  -0.100402  -0.20003  0  1.396777  0
F  F83  1  0.54381516  0.00788467  0.16318447  1  0  -0.255716  0  1.140568  0  0  -0.212003  0  1.295097  0  0  -0.221233  0  1.279237  0  0  -0.106828  -0.205245  0  1.306324  0
F  F84  1  0.45618906  0.99210808  0.83681760  1  0  -0.255842  0  1.140348  0  0  -0.212145  0  1.294924  0  0  -0.221369  0  1.279065  0  0  -0.106877  -0.205376  0  1.306152  0
