# generated using pymatgen
data_KH12C10SN2O
_symmetry_space_group_name_H-M   'P 1'
_cell_length_a   6.38043933
_cell_length_b   11.94225523
_cell_length_c   14.91490000
_cell_angle_alpha   96.79363468
_cell_angle_beta   90.00000000
_cell_angle_gamma   90.00000000
_symmetry_Int_Tables_number   1
_chemical_formula_structural   KH12C10SN2O
_chemical_formula_sum   'K4 H48 C40 S4 N8 O4'
_cell_volume   1128.48863986
_cell_formula_units_Z   4
loop_
 _symmetry_equiv_pos_site_id
 _symmetry_equiv_pos_as_xyz
  1  'x, y, z'
loop_
 _atom_site_type_symbol
 _atom_site_label
 _atom_site_symmetry_multiplicity
 _atom_site_fract_x
 _atom_site_fract_y
 _atom_site_fract_z
 _atom_site_occupancy
 _atom_site_hle17_bader_spin_density
 _atom_site_hle17_ddec_charge
 _atom_site_hle17_ddec_spin_density
 _atom_site_hle17_ddec_sum_bond_order
 _atom_site_hle17_magmom
 _atom_site_hse06_10hf_bader_spin_density
 _atom_site_hse06_10hf_ddec_charge
 _atom_site_hse06_10hf_ddec_spin_density
 _atom_site_hse06_10hf_ddec_sum_bond_order
 _atom_site_hse06_10hf_magmom
 _atom_site_hse06_bader_spin_density
 _atom_site_hse06_ddec_charge
 _atom_site_hse06_ddec_spin_density
 _atom_site_hse06_ddec_sum_bond_order
 _atom_site_hse06_magmom
 _atom_site_pbe_bader_charge
 _atom_site_pbe_bader_spin_density
 _atom_site_pbe_cm5_charge
 _atom_site_pbe_ddec_charge
 _atom_site_pbe_ddec_spin_density
 _atom_site_pbe_ddec_sum_bond_order
 _atom_site_pbe_magmom
K  K0  1  0.95629308  0.00002446  0.74999729  1  0  0.865243  0  0.594657  0  0  0.784737  0  0.817774  0  0  0.799562  0  0.799605  0  0.844429  0  0.847249  0.77377  0  0.830687  0
K  K1  1  0.04371329  0.99999877  0.25000109  1  0  0.865266  0  0.594641  0  0  0.784711  0  0.817857  0  0  0.799538  0  0.799685  0  0.84441  0  0.847301  0.773745  0  0.830767  0
K  K2  1  0.99999854  0.99995661  0.49999073  1  0  0.89451  0  0.497364  0  0  0.815126  0  0.701629  0  0  0.829374  0  0.684411  0  0.864898  0  0.76895  0.804514  0  0.713984  0
K  K3  1  0.00000157  0.00000675  0.00000198  1  0  0.894517  0  0.497442  0  0  0.815117  0  0.70173  0  0  0.829359  0  0.684514  0  0.864831  0  0.768967  0.804491  0  0.714085  0
H  H4  1  0.77829123  0.33184059  0.62478923  1  0  0.088348  0  0.991633  0  0  0.102043  0  1.052667  0  0  0.104926  0  1.051257  0  0.063379  0  0.094533  0.099996  0  1.053746  0
H  H5  1  0.77826772  0.66812866  0.87522013  1  0  0.088391  0  0.991604  0  0  0.102087  0  1.052591  0  0  0.104962  0  1.051192  0  0.063252  0  0.094586  0.100047  0  1.053646  0
H  H6  1  0.22169947  0.66816240  0.37520991  1  0  0.088248  0  0.991562  0  0  0.101994  0  1.052557  0  0  0.104883  0  1.051129  0  0.063145  0  0.094513  0.099955  0  1.053614  0
H  H7  1  0.22173708  0.33185324  0.12478238  1  0  0.088365  0  0.991446  0  0  0.101963  0  1.05259  0  0  0.10485  0  1.051156  0  0.062915  0  0.094523  0.099915  0  1.053667  0
H  H8  1  0.51345367  0.48536378  0.65049648  1  0  0.075788  0  0.98323  0  0  0.088404  0  1.044701  0  0  0.090898  0  1.044061  0  0.035189  0  0.089386  0.086634  0  1.045206  0
H  H9  1  0.51341919  0.51461307  0.84949415  1  0  0.075885  0  0.983088  0  0  0.08843  0  1.044642  0  0  0.090924  0  1.043997  0  0.035023  0  0.089408  0.086655  0  1.045151  0
H  H10  1  0.48651979  0.51462488  0.34950331  1  0  0.075915  0  0.983025  0  0  0.08845  0  1.044608  0  0  0.090949  0  1.043962  0  0.035094  0  0.08942  0.086678  0  1.045115  0
H  H11  1  0.48658248  0.48536883  0.15049629  1  0  0.075776  0  0.983114  0  0  0.08836  0  1.04464  0  0  0.090845  0  1.044009  0  0.035113  0  0.089362  0.086589  0  1.045144  0
H  H12  1  0.13991513  0.44189334  0.67444768  1  0  0.072662  0  0.986807  0  0  0.084464  0  1.054144  0  0  0.086766  0  1.053527  0  0.021287  0  0.08962  0.082826  0  1.054629  0
H  H13  1  0.13988065  0.55809616  0.82555421  1  0  0.072662  0  0.986638  0  0  0.084388  0  1.054085  0  0  0.086686  0  1.053471  0  0.020754  0  0.089549  0.08272  0  1.0546  0
H  H14  1  0.86006773  0.55808941  0.32554754  1  0  0.072701  0  0.986669  0  0  0.08453  0  1.054003  0  0  0.086831  0  1.053393  0  0.020981  0  0.089659  0.082901  0  1.054478  0
H  H15  1  0.86011632  0.44189418  0.17443770  1  0  0.072746  0  0.9869  0  0  0.084521  0  1.054262  0  0  0.086819  0  1.053649  0  0.021117  0  0.089642  0.08291  0  1.054716  0
H  H16  1  0.02110200  0.24143973  0.67294586  1  0  0.094898  0  0.985737  0  0  0.10478  0  1.051659  0  0  0.108566  0  1.048981  0  0.059513  0  0.099713  0.102068  0  1.053633  0
H  H17  1  0.02109416  0.75856157  0.82707190  1  0  0.094887  0  0.985598  0  0  0.104743  0  1.051555  0  0  0.108519  0  1.048881  0  0.059667  0  0.099729  0.102027  0  1.05354  0
H  H18  1  0.97889184  0.75854302  0.32704399  1  0  0.094831  0  0.9858  0  0  0.104716  0  1.05172  0  0  0.108496  0  1.049043  0  0.059846  0  0.099706  0.102003  0  1.053699  0
H  H19  1  0.97892632  0.24144226  0.17294275  1  0  0.094992  0  0.985526  0  0  0.104898  0  1.051416  0  0  0.108678  0  1.048743  0  0.059538  0  0.099729  0.102182  0  1.053393  0
H  H20  1  0.23934089  0.77533111  0.65887165  1  0  0.04927  0  0.940744  0  0  0.061171  0  1.007766  0  0  0.061515  0  1.008018  0  0.043695  0  0.09569  0.060751  0  1.007902  0
H  H21  1  0.23935186  0.22467694  0.84113735  1  0  0.049241  0  0.940762  0  0  0.061141  0  1.007803  0  0  0.061479  0  1.008061  0  0.043775  0  0.095659  0.060721  0  1.00794  0
H  H22  1  0.76065295  0.22468200  0.34111973  1  0  0.049227  0  0.940731  0  0  0.06111  0  1.007766  0  0  0.06145  0  1.008021  0  0.043469  0  0.095678  0.060691  0  1.007899  0
H  H23  1  0.76064668  0.77533533  0.15885462  1  0  0.049328  0  0.940741  0  0  0.061227  0  1.007732  0  0  0.061565  0  1.00799  0  0.044005  0  0.095704  0.060806  0  1.00787  0
H  H24  1  0.23966531  0.79948107  0.54243416  1  0  0.049476  0  0.953435  0  0  0.058343  0  1.027995  0  0  0.058718  0  1.028021  0  0.052194  0  0.096571  0.057946  0  1.028181  0
H  H25  1  0.23966531  0.20052360  0.95757050  1  0  0.049411  0  0.953453  0  0  0.058366  0  1.027933  0  0  0.058748  0  1.027949  0  0.052187  0  0.09655  0.057975  0  1.028114  0
H  H26  1  0.76031128  0.20052107  0.45755752  1  0  0.049454  0  0.953426  0  0  0.058302  0  1.028  0  0  0.058678  0  1.028023  0  0.052193  0  0.09654  0.057909  0  1.028183  0
H  H27  1  0.76035046  0.79948276  0.04241957  1  0  0.049522  0  0.953552  0  0  0.05844  0  1.027999  0  0  0.058825  0  1.028011  0  0.052218  0  0.096562  0.058045  0  1.028181  0
H  H28  1  0.22120577  0.58259355  0.58842606  1  0  0.081846  0  0.949357  0  0  0.10276  0  1.005747  0  0  0.102839  0  1.007165  0  0.047186  0  0.097152  0.102622  0  1.004862  0
H  H29  1  0.22119167  0.41741281  0.91158882  1  0  0.08168  0  0.949336  0  0  0.102587  0  1.005779  0  0  0.102663  0  1.007195  0  0.046994  0  0.097047  0.102451  0  1.00489  0
H  H30  1  0.77877866  0.41741366  0.41157482  1  0  0.081773  0  0.949215  0  0  0.102686  0  1.005622  0  0  0.102764  0  1.007038  0  0.04753  0  0.097134  0.102548  0  1.004738  0
H  H31  1  0.77879433  0.58259692  0.08840828  1  0  0.081748  0  0.949436  0  0  0.102657  0  1.005835  0  0  0.102738  0  1.007249  0  0.047616  0  0.097051  0.102518  0  1.004951  0
H  H32  1  0.07426918  0.62137195  0.49565319  1  0  0.068967  0  0.957399  0  0  0.086536  0  1.020349  0  0  0.086756  0  1.021716  0  0.057711  0  0.091024  0.086322  0  1.019446  0
H  H33  1  0.07424254  0.37862345  0.00435529  1  0  0.068972  0  0.957388  0  0  0.086526  0  1.020381  0  0  0.086749  0  1.021751  0  0.057608  0  0.091052  0.086313  0  1.019473  0
H  H34  1  0.92571212  0.37863104  0.50434796  1  0  0.068918  0  0.957472  0  0  0.086524  0  1.020371  0  0  0.086748  0  1.021726  0  0.057698  0  0.091049  0.08631  0  1.019469  0
H  H35  1  0.92576384  0.62137533  0.99564413  1  0  0.069071  0  0.957225  0  0  0.086528  0  1.020315  0  0  0.086753  0  1.021683  0  0.05762  0  0.091045  0.086313  0  1.019409  0
H  H36  1  0.91387908  0.61835047  0.68950575  1  0  0.073168  0  0.944046  0  0  0.090791  0  1.006896  0  0  0.090971  0  1.008192  0  0.025926  0  0.092049  0.090614  0  1.006009  0
H  H37  1  0.91386967  0.38164999  0.81050119  1  0  0.073175  0  0.943907  0  0  0.090792  0  1.00678  0  0  0.090959  0  1.008083  0  0.026089  0  0.091987  0.090615  0  1.005893  0
H  H38  1  0.08611476  0.38167107  0.31050051  1  0  0.073139  0  0.944107  0  0  0.09079  0  1.006951  0  0  0.090969  0  1.008249  0  0.025926  0  0.092039  0.090618  0  1.006054  0
H  H39  1  0.08609909  0.61836059  0.18950805  1  0  0.07309  0  0.944193  0  0  0.090774  0  1.006984  0  0  0.090952  0  1.00828  0  0.025929  0  0.092026  0.090596  0  1.006098  0
H  H40  1  0.79677899  0.55423476  0.58755698  1  0  0.078449  0  0.950107  0  0  0.100009  0  1.00673  0  0  0.100285  0  1.007614  0  0.037297  0  0.096832  0.099739  0  1.006202  0
H  H41  1  0.79675861  0.44575642  0.91244842  1  0  0.078464  0  0.950065  0  0  0.099977  0  1.006755  0  0  0.10025  0  1.007641  0  0.037571  0  0.096823  0.099707  0  1.006228  0
H  H42  1  0.20320544  0.44576570  0.41245332  1  0  0.078418  0  0.950208  0  0  0.099959  0  1.006855  0  0  0.100234  0  1.00774  0  0.036978  0  0.096785  0.099688  0  1.006329  0
H  H43  1  0.20322112  0.55424066  0.08756558  1  0  0.078385  0  0.950085  0  0  0.099937  0  1.006738  0  0  0.100211  0  1.007625  0  0.037257  0  0.096784  0.099667  0  1.00621  0
H  H44  1  0.69947691  0.73482482  0.54150828  1  0  0.051688  0  0.935096  0  0  0.063619  0  1.001701  0  0  0.063457  0  1.003001  0  0.049049  0  0.096421  0.063549  0  1.001082  0
H  H45  1  0.69947691  0.26516046  0.95849120  1  0  0.051739  0  0.935044  0  0  0.063619  0  1.001672  0  0  0.063467  0  1.002965  0  0.049016  0  0.09644  0.063553  0  1.001047  0
H  H46  1  0.30051379  0.26517564  0.45848928  1  0  0.051656  0  0.935171  0  0  0.063641  0  1.001676  0  0  0.063486  0  1.00297  0  0.049154  0  0.096416  0.063571  0  1.001056  0
H  H47  1  0.30053103  0.73482651  0.04151314  1  0  0.051762  0  0.935113  0  0  0.063624  0  1.001783  0  0  0.063475  0  1.003072  0  0.049112  0  0.096428  0.063558  0  1.001157  0
H  H48  1  0.67277029  0.76604740  0.66169132  1  0  0.051764  0  0.942722  0  0  0.061367  0  1.014572  0  0  0.061316  0  1.015118  0  0.044902  0  0.097567  0.061231  0  1.014471  0
H  H49  1  0.67278126  0.23394294  0.83830730  1  0  0.051788  0  0.942728  0  0  0.061372  0  1.014573  0  0  0.061325  0  1.015127  0  0.044999  0  0.097528  0.061234  0  1.014473  0
H  H50  1  0.32721101  0.23395896  0.33830144  1  0  0.051808  0  0.942704  0  0  0.061404  0  1.014535  0  0  0.061359  0  1.015077  0  0.044989  0  0.097599  0.061266  0  1.014437  0
H  H51  1  0.32721415  0.76605331  0.16169724  1  0  0.051711  0  0.942742  0  0  0.061383  0  1.014515  0  0  0.061334  0  1.015068  0  0.044973  0  0.097563  0.061241  0  1.014421  0
C  C52  1  0.55199020  0.19873668  0.63642156  1  0  0.180302  0  3.85328  0  0  0.184169  0  4.099758  0  0  0.190836  0  4.120204  0  0.395174  0  0.082229  0.179574  0  4.085916  0
C  C53  1  0.55198707  0.80125534  0.86359398  1  0  0.180594  0  3.854103  0  0  0.184396  0  4.100626  0  0  0.191108  0  4.120984  0  0.394215  0  0.082308  0.179811  0  4.086801  0
C  C54  1  0.44802558  0.80127052  0.36357865  1  0  0.180347  0  3.853742  0  0  0.184236  0  4.100154  0  0  0.190872  0  4.120648  0  0.395279  0  0.08225  0.179651  0  4.08631  0
C  C55  1  0.44802244  0.19874259  0.13641273  1  0  0.180852  0  3.853474  0  0  0.18468  0  4.099887  0  0  0.191337  0  4.120355  0  0.395393  0  0.082452  0.180091  0  4.086052  0
C  C56  1  0.61437776  0.31187416  0.63556594  1  0  -0.19543  0  3.774974  0  0  -0.21289  0  4.025825  0  0  -0.217617  0  4.046377  0  -0.101409  0  -0.120773  -0.20964  0  4.011861  0
C  C57  1  0.61436679  0.68812714  0.86444310  1  0  -0.195815  0  3.775697  0  0  -0.213204  0  4.026547  0  0  -0.217899  0  4.047046  0  -0.100486  0  -0.12091  -0.209942  0  4.012588  0
C  C58  1  0.38561921  0.68814147  0.36443172  1  0  -0.195507  0  3.775148  0  0  -0.213  0  4.025965  0  0  -0.217697  0  4.046502  0  -0.101327  0  -0.120876  -0.209757  0  4.012012  0
C  C59  1  0.38565213  0.31187248  0.13556243  1  0  -0.195626  0  3.775553  0  0  -0.213005  0  4.026425  0  0  -0.217678  0  4.046942  0  -0.100792  0  -0.120844  -0.209751  0  4.012474  0
C  C60  1  0.46445078  0.39775840  0.64915692  1  0  -0.103943  0  3.867628  0  0  -0.118789  0  4.124458  0  0  -0.12005  0  4.147402  0  -0.01748  0  -0.119018  -0.117777  0  4.10864  0
C  C61  1  0.46448839  0.60224037  0.85084518  1  0  -0.103916  0  3.867127  0  0  -0.118661  0  4.123861  0  0  -0.119896  0  4.146782  0  -0.017689  0  -0.118953  -0.117636  0  4.108029  0
C  C62  1  0.53550074  0.60224375  0.35084081  1  0  -0.103919  0  3.866895  0  0  -0.118669  0  4.123671  0  0  -0.119933  0  4.146618  0  -0.017466  0  -0.118978  -0.117657  0  4.107861  0
C  C63  1  0.53555560  0.39775671  0.14915273  1  0  -0.103929  0  3.867801  0  0  -0.118735  0  4.124539  0  0  -0.119969  0  4.147459  0  -0.017575  0  -0.118959  -0.117716  0  4.108719  0
C  C64  1  0.25268950  0.37319607  0.66278631  1  0  -0.101075  0  3.862291  0  0  -0.117897  0  4.122825  0  0  -0.119745  0  4.146036  0  -0.030407  0  -0.118296  -0.116514  0  4.106861  0
C  C65  1  0.25266129  0.62681198  0.83721399  1  0  -0.101222  0  3.861829  0  0  -0.117922  0  4.122284  0  0  -0.119738  0  4.145463  0  -0.029934  0  -0.118176  -0.116503  0  4.106316  0
C  C66  1  0.74731374  0.62681029  0.33720578  1  0  -0.101288  0  3.862009  0  0  -0.118137  0  4.122526  0  0  -0.119986  0  4.14574  0  -0.030452  0  -0.118325  -0.116761  0  4.106561  0
C  C67  1  0.74733882  0.37319776  0.16278177  1  0  -0.101115  0  3.862068  0  0  -0.117878  0  4.122534  0  0  -0.119699  0  4.14572  0  -0.030151  0  -0.118224  -0.116506  0  4.106546  0
C  C68  1  0.18516437  0.26180756  0.66258129  1  0  -0.199101  0  3.785329  0  0  -0.217414  0  4.040217  0  0  -0.220855  0  4.058624  0  -0.08333  0  -0.119779  -0.214992  0  4.027738  0
C  C69  1  0.18517220  0.73819964  0.83743501  1  0  -0.199199  0  3.785879  0  0  -0.217466  0  4.040752  0  0  -0.220861  0  4.059131  0  -0.083731  0  -0.119874  -0.215031  0  4.028276  0
C  C70  1  0.81483104  0.73818952  0.33741528  1  0  -0.198902  0  3.785787  0  0  -0.217204  0  4.040644  0  0  -0.220635  0  4.059046  0  -0.08348  0  -0.119724  -0.214787  0  4.028178  0
C  C71  1  0.81485611  0.26180335  0.16257419  1  0  -0.199402  0  3.785339  0  0  -0.217767  0  4.040194  0  0  -0.221179  0  4.058584  0  -0.083785  0  -0.119887  -0.215326  0  4.027725  0
C  C72  1  0.33304917  0.17405798  0.64949416  1  0  0.163522  0  3.87355  0  0  0.169437  0  4.113627  0  0  0.175401  0  4.134055  0  0.369606  0  0.075107  0.165301  0  4.099819  0
C  C73  1  0.33307268  0.82593236  0.85052054  1  0  0.163875  0  3.873509  0  0  0.169804  0  4.113613  0  0  0.175765  0  4.134017  0  0.369481  0  0.075327  0.16565  0  4.09983  0
C  C74  1  0.66694154  0.82592898  0.35050212  1  0  0.163573  0  3.873694  0  0  0.169505  0  4.113738  0  0  0.175476  0  4.134168  0  0.369249  0  0.075244  0.165366  0  4.099933  0
C  C75  1  0.66697758  0.17406136  0.14949314  1  0  0.163453  0  3.873673  0  0  0.16949  0  4.113608  0  0  0.175465  0  4.13403  0  0.369812  0  0.075075  0.165337  0  4.099822  0
C  C76  1  0.15097863  0.76256548  0.59495276  1  0  0.090274  0  3.593522  0  0  0.040173  0  3.858221  0  0  0.047299  0  3.863261  0  0.352139  0  -0.079575  0.035356  0  3.854828  0
C  C77  1  0.15098333  0.23743498  0.90505419  1  0  0.090391  0  3.593362  0  0  0.040209  0  3.858162  0  0  0.047335  0  3.863202  0  0.352018  0  -0.079484  0.03539  0  3.854764  0
C  C78  1  0.84900580  0.23743666  0.40504161  1  0  0.090317  0  3.593312  0  0  0.040264  0  3.857965  0  0  0.047391  0  3.863004  0  0.352633  0  -0.079574  0.035446  0  3.854568  0
C  C79  1  0.84901677  0.76256886  0.09493967  1  0  0.09019  0  3.593554  0  0  0.040137  0  3.858153  0  0  0.047263  0  3.863189  0  0.352043  0  -0.079509  0.035318  0  3.854759  0
C  C80  1  0.09764531  0.63874782  0.56891595  1  0  -0.143056  0  3.683175  0  0  -0.182487  0  3.937314  0  0  -0.184641  0  3.951629  0  -0.044771  0  -0.167437  -0.180835  0  3.927388  0
C  C81  1  0.09762651  0.36125602  0.93109131  1  0  -0.142905  0  3.682852  0  0  -0.182315  0  3.93704  0  0  -0.184464  0  3.951338  0  -0.044562  0  -0.167399  -0.180657  0  3.927111  0
C  C82  1  0.90234225  0.36126276  0.43108525  1  0  -0.14295  0  3.682694  0  0  -0.182359  0  3.936775  0  0  -0.184509  0  3.951084  0  -0.045116  0  -0.167416  -0.180709  0  3.926848  0
C  C83  1  0.90236420  0.63874950  0.06890874  1  0  -0.143072  0  3.683085  0  0  -0.182428  0  3.937213  0  0  -0.184585  0  3.951517  0  -0.045145  0  -0.167438  -0.180771  0  3.927288  0
C  C84  1  0.88899521  0.62662477  0.61763461  1  0  -0.146413  0  3.683044  0  0  -0.187422  0  3.939625  0  0  -0.189246  0  3.953067  0  -0.021333  0  -0.168479  -0.185963  0  3.93019  0
C  C85  1  0.88898267  0.37336979  0.88236977  1  0  -0.146484  0  3.683133  0  0  -0.187464  0  3.939728  0  0  -0.189274  0  3.953174  0  -0.021804  0  -0.168462  -0.186009  0  3.930301  0
C  C86  1  0.11100333  0.37338075  0.38236947  1  0  -0.146415  0  3.683258  0  0  -0.187519  0  3.939885  0  0  -0.189344  0  3.953336  0  -0.021459  0  -0.168501  -0.186059  0  3.93045  0
C  C87  1  0.11099549  0.62662983  0.11763509  1  0  -0.146422  0  3.682883  0  0  -0.187526  0  3.939552  0  0  -0.189351  0  3.953001  0  -0.021491  0  -0.168474  -0.18607  0  3.930123  0
C  C88  1  0.78218909  0.73817181  0.60666516  1  0  0.095389  0  3.598353  0  0  0.043714  0  3.867536  0  0  0.050942  0  3.872762  0  0.371062  0  -0.073434  0.03887  0  3.863971  0
C  C89  1  0.78219379  0.26182527  0.89333410  1  0  0.095303  0  3.598623  0  0  0.043766  0  3.867669  0  0  0.050971  0  3.87292  0  0.370895  0  -0.07337  0.038918  0  3.864103  0
C  C90  1  0.21779378  0.26183539  0.39333036  1  0  0.095303  0  3.598559  0  0  0.043724  0  3.867546  0  0  0.050938  0  3.872799  0  0.371103  0  -0.073391  0.038878  0  3.86398  0
C  C91  1  0.21781102  0.73817940  0.10666588  1  0  0.095487  0  3.598258  0  0  0.04388  0  3.867353  0  0  0.051087  0  3.872604  0  0.370683  0  -0.073338  0.039033  0  3.86379  0
S  S92  1  0.51974164  0.99718305  0.64107460  1  0  0.263678  0  3.110132  0  0  0.249835  0  3.522284  0  0  0.258734  0  3.531548  0  0.837818  0  0.229607  0.243536  0  3.51616  0
S  S93  1  0.51979336  0.00280308  0.85893837  1  0  0.263241  0  3.110187  0  0  0.249519  0  3.522309  0  0  0.258524  0  3.531552  0  0.840443  0  0.229521  0.243276  0  3.516158  0
S  S94  1  0.48025220  0.00282078  0.35892798  1  0  0.263571  0  3.109492  0  0  0.249813  0  3.521603  0  0  0.258714  0  3.530865  0  0.836544  0  0.229602  0.243524  0  3.515473  0
S  S95  1  0.48026944  0.99719317  0.14106818  1  0  0.263753  0  3.110499  0  0  0.249945  0  3.522648  0  0  0.258953  0  3.53188  0  0.840869  0  0.229785  0.243694  0  3.516501  0
N  N96  1  0.67695809  0.10452587  0.62443348  1  0  -0.605839  0  2.95672  0  0  -0.563951  0  3.258723  0  0  -0.580497  0  3.270388  0  -1.182972  0  -0.483441  -0.552235  0  3.250512  0
N  N97  1  0.67694241  0.89545435  0.87557825  1  0  -0.60602  0  2.958172  0  0  -0.564001  0  3.260182  0  0  -0.580481  0  3.27186  0  -1.182763  0  -0.483469  -0.552202  0  3.251849  0
N  N98  1  0.32306710  0.89547459  0.37557078  1  0  -0.605891  0  2.957253  0  0  -0.563957  0  3.259245  0  0  -0.580493  0  3.270924  0  -1.182843  0  -0.483526  -0.552208  0  3.250948  0
N  N99  1  0.32307493  0.10452924  0.12442710  1  0  -0.606172  0  2.957623  0  0  -0.564233  0  3.259666  0  0  -0.580689  0  3.271316  0  -1.182697  0  -0.483588  -0.552443  0  3.251356  0
N  N100  1  0.28943775  0.06112121  0.64660343  1  0  -0.595828  0  3.003084  0  0  -0.545875  0  3.298585  0  0  -0.561878  0  3.310393  0  -1.207991  0  -0.534073  -0.534593  0  3.290391  0
N  N101  1  0.28942991  0.93886323  0.85340468  1  0  -0.595938  0  3.002182  0  0  -0.54591  0  3.297638  0  0  -0.561816  0  3.309413  0  -1.207156  0  -0.534002  -0.534578  0  3.289439  0
N  N102  1  0.71059527  0.93886239  0.35339321  1  0  -0.595957  0  3.002262  0  0  -0.545976  0  3.297734  0  0  -0.561969  0  3.309533  0  -1.206735  0  -0.534233  -0.534693  0  3.289543  0
N  N103  1  0.71057646  0.06112627  0.14660458  1  0  -0.59596  0  3.003255  0  0  -0.546  0  3.298718  0  0  -0.561915  0  3.310492  0  -1.208096  0  -0.534135  -0.534675  0  3.290518  0
O  O104  1  0.95039537  0.82145620  0.60837923  1  0  -0.418384  0  2.179848  0  0  -0.344743  0  2.431613  0  0  -0.360305  0  2.43031  0  -1.029422  0  -0.347369  -0.333556  0  2.432035  0
O  O105  1  0.95042358  0.17854257  0.89162085  1  0  -0.418379  0  2.179861  0  0  -0.34475  0  2.431619  0  0  -0.360307  0  2.430324  0  -1.029193  0  -0.347414  -0.333574  0  2.432071  0
O  O106  1  0.04958123  0.17855016  0.39162023  1  0  -0.418276  0  2.179912  0  0  -0.344739  0  2.431682  0  0  -0.360298  0  2.430386  0  -1.029481  0  -0.347316  -0.333563  0  2.432126  0
O  O107  1  0.04959690  0.82145958  0.10837352  1  0  -0.418405  0  2.179964  0  0  -0.344826  0  2.431728  0  0  -0.360384  0  2.430432  0  -1.02918  0  -0.347407  -0.333647  0  2.432168  0
