# generated using pymatgen
data_PrCuH13C15N2O13
_symmetry_space_group_name_H-M   'P 1'
_cell_length_a   8.11680031
_cell_length_b   10.68088684
_cell_length_c   12.27116513
_cell_angle_alpha   100.33393297
_cell_angle_beta   105.98328218
_cell_angle_gamma   102.87454002
_symmetry_Int_Tables_number   1
_chemical_formula_structural   PrCuH13C15N2O13
_chemical_formula_sum   'Pr2 Cu2 H26 C30 N4 O26'
_cell_volume   963.55161726
_cell_formula_units_Z   2
loop_
 _symmetry_equiv_pos_site_id
 _symmetry_equiv_pos_as_xyz
  1  'x, y, z'
loop_
 _atom_site_type_symbol
 _atom_site_label
 _atom_site_symmetry_multiplicity
 _atom_site_fract_x
 _atom_site_fract_y
 _atom_site_fract_z
 _atom_site_occupancy
 _atom_site_hle17_ddec_charge
 _atom_site_hle17_ddec_spin_density
 _atom_site_hle17_ddec_sum_bond_order
 _atom_site_hle17_magmom
 _atom_site_hse06_10hf_ddec_charge
 _atom_site_hse06_10hf_ddec_spin_density
 _atom_site_hse06_10hf_ddec_sum_bond_order
 _atom_site_hse06_10hf_magmom
 _atom_site_hse06_ddec_charge
 _atom_site_hse06_ddec_spin_density
 _atom_site_hse06_ddec_sum_bond_order
 _atom_site_hse06_magmom
 _atom_site_pbe_cm5_charge
 _atom_site_pbe_ddec_charge
 _atom_site_pbe_ddec_spin_density
 _atom_site_pbe_ddec_sum_bond_order
 _atom_site_pbe_magmom
Pr  Pr0  1  0.99233581  0.66670644  0.42086142  1  2.34541  -0.000173  1.557333  0.0  2.241299  2.4e-05  1.913149  0.0  2.27608  -0.000195  1.872833  0.0  1.482966  2.165049  0.00015  2.035636  0.0
Pr  Pr1  1  0.00766400  0.33329358  0.57914083  1  2.345385  -0.000174  1.557372  0.0  2.241265  3e-05  1.91319  0.0  2.276047  -0.000193  1.872876  0.0  1.482943  2.164933  0.00015  2.035796  0.0
Cu  Cu2  1  0.03298514  0.23147474  0.04704281  1  0.822298  0.689576  1.893222  0.51  0.790365  0.772827  2.300446  0.619  0.878355  0.837787  2.232982  0.704  0.752306  0.737891  0.726099  2.346235  0.563
Cu  Cu3  1  0.96701419  0.76852727  0.95295803  1  0.822301  0.689569  1.893225  0.51  0.790333  0.772819  2.300451  0.619  0.878338  0.837783  2.232988  0.704  0.752302  0.737901  0.726098  2.346192  0.563
H  H4  1  0.58648706  0.32530181  0.35420077  1  0.025329  0.0  0.88953  0.0  0.037778  1e-06  0.949031  0.0  0.038004  1e-06  0.945068  0.0  0.122226  0.037208  -3e-06  0.952072  0.0
H  H5  1  0.41350905  0.67470603  0.64581505  1  0.025258  -4e-06  0.889672  0.0  0.037852  0.0  0.949043  0.0  0.038079  1e-06  0.945077  0.0  0.122272  0.037284  -3e-06  0.952086  0.0
H  H6  1  0.78428536  0.79735288  0.56410047  1  0.437105  9e-06  0.854196  0.0  0.40627  1.6e-05  0.917446  0.0  0.41659  1.3e-05  0.902254  0.0  0.299791  0.39895  2e-05  0.928044  0.0
H  H7  1  0.21571566  0.20264322  0.43589487  1  0.437051  1e-05  0.854259  0.0  0.406222  1.6e-05  0.917498  0.0  0.416542  1.3e-05  0.902307  0.0  0.299766  0.398902  2e-05  0.928096  0.0
H  H8  1  0.82573923  0.68556324  0.63356671  1  0.443056  6e-05  0.847098  0.0  0.413787  3.8e-05  0.906871  0.0  0.425161  3.7e-05  0.89015  0.0  0.299042  0.405503  5.2e-05  0.918928  0.0
H  H9  1  0.17426638  0.31443485  0.36643064  1  0.442999  6e-05  0.847173  0.0  0.413731  3.8e-05  0.906954  0.0  0.425102  3.7e-05  0.890235  0.0  0.299007  0.405444  5.2e-05  0.919015  0.0
H  H10  1  0.16115242  0.90677562  0.63912960  1  0.435264  -0.000147  0.861386  0.0  0.40735  -9.1e-05  0.920144  0.0  0.417217  -7.2e-05  0.905703  0.0  0.300488  0.40037  -9.8e-05  0.930229  0.0
H  H11  1  0.83885004  0.09321751  0.36086555  1  0.435242  -0.000147  0.861392  0.0  0.40731  -9.1e-05  0.920181  0.0  0.417175  -7.2e-05  0.905742  0.0  0.300495  0.400329  -9.8e-05  0.930266  0.0
H  H12  1  0.22241846  0.94786625  0.53359148  1  0.426682  5e-06  0.880751  0.0  0.394035  1e-06  0.947379  0.0  0.405996  -1e-06  0.929931  0.0  0.29194  0.385767  6e-06  0.959216  0.0
H  H13  1  0.77758172  0.05213085  0.46640142  1  0.426643  5e-06  0.880835  0.0  0.393942  1e-06  0.947527  0.0  0.405902  -1e-06  0.93008  0.0  0.291887  0.385674  6e-06  0.959363  0.0
H  H14  1  0.67146833  0.73585047  0.28639519  1  0.427279  -0.00013  0.841382  0.0  0.405841  -7.4e-05  0.902103  0.0  0.412997  -7.3e-05  0.891533  0.0  0.319495  0.400925  -7.2e-05  0.90921  0.0
H  H15  1  0.32852576  0.26415150  0.71360872  1  0.427356  -0.00013  0.84116  0.0  0.405876  -7.4e-05  0.902057  0.0  0.413037  -7.3e-05  0.891475  0.0  0.319481  0.400959  -7.2e-05  0.909165  0.0
H  H16  1  0.82658501  0.85961859  0.29317814  1  0.448125  0.000118  0.846135  0.0  0.416289  0.000123  0.910951  0.0  0.426458  6.5e-05  0.896025  0.0  0.307126  0.409057  0.000192  0.921424  0.0
H  H17  1  0.17341219  0.14037750  0.70681566  1  0.44808  0.000118  0.846199  0.0  0.41626  0.000123  0.910991  0.0  0.42643  6.5e-05  0.896065  0.0  0.307101  0.409029  0.000192  0.921459  0.0
H  H18  1  0.48152084  0.52494007  0.18953397  1  0.12655  0.000101  0.97347  0.0  0.134397  -8.2e-05  1.033071  0.0  0.138634  -8.7e-05  1.029587  0.0  0.117505  0.131018  -6.3e-05  1.036205  0.0
H  H19  1  0.51848393  0.47506985  0.81047568  1  0.126481  0.000101  0.973519  0.0  0.134282  -8.2e-05  1.033189  0.0  0.138519  -8.6e-05  1.029706  0.0  0.117437  0.130902  -6.4e-05  1.036325  0.0
H  H20  1  0.54612176  0.63718338  0.03747830  1  0.119033  0.00063  0.967664  0.001  0.127621  0.00061  1.028776  0.001  0.131947  0.000441  1.026422  0.0  0.110731  0.124381  0.000743  1.030838  0.001
H  H21  1  0.45388867  0.36282457  0.96253212  1  0.118962  0.000633  0.967763  0.001  0.127555  0.00061  1.028856  0.001  0.131885  0.000441  1.026499  0.0  0.110696  0.124317  0.000743  1.030916  0.001
H  H22  1  0.31313762  0.73779265  0.93002974  1  0.094839  0.000954  0.941294  0.002  0.104825  0.000819  1.000823  0.002  0.10737  0.000597  0.99817  0.001  0.126294  0.102752  0.000984  1.003051  0.002
H  H23  1  0.68686873  0.26221435  0.06997324  1  0.094901  0.000955  0.94134  0.002  0.104887  0.000819  1.000856  0.002  0.107426  0.000597  0.9982  0.001  0.126303  0.102817  0.000984  1.003082  0.002
H  H24  1  0.37281873  0.17206489  0.01707004  1  0.086544  0.000895  0.946179  0.002  0.095471  0.000809  1.009996  0.001  0.097769  0.000595  1.007798  0.001  0.122313  0.093657  0.000975  1.011816  0.002
H  H25  1  0.62717555  0.82793411  0.98293181  1  0.086545  0.000894  0.946157  0.002  0.095482  0.000809  1.009972  0.001  0.09778  0.000595  1.007773  0.001  0.122367  0.093669  0.000976  1.011788  0.002
H  H26  1  0.58723808  0.06296250  0.12890435  1  0.117596  0.00063  0.970501  0.0  0.12346  0.000622  1.035875  0.0  0.128502  0.000456  1.032831  0.0  0.109766  0.119748  0.000757  1.038349  0.001
H  H27  1  0.41276922  0.93704352  0.87109702  1  0.117583  0.000628  0.970481  0.0  0.123466  0.000622  1.035839  0.0  0.128522  0.000456  1.03276  0.0  0.109767  0.119747  0.000757  1.03832  0.001
H  H28  1  0.50565416  0.95722296  0.28007298  1  0.119655  0.000101  0.919958  0.0  0.132535  -4.7e-05  0.972436  0.0  0.136478  -5.2e-05  0.96926  0.0  0.120593  0.129366  -3.1e-05  0.975369  0.0
H  H29  1  0.49434915  0.04278300  0.71993332  1  0.119656  0.000102  0.919942  0.0  0.132563  -4.7e-05  0.972395  0.0  0.136505  -5.2e-05  0.969222  0.0  0.120641  0.129394  -3.1e-05  0.975325  0.0
C  C30  1  0.69628327  0.41487356  0.36616239  1  0.614187  -1.1e-05  3.899189  0.0  0.546148  -6e-06  4.212849  0.0  0.579721  -2e-06  4.201524  0.0  0.157409  0.524361  -3e-06  4.212293  0.0
C  C31  1  0.30371167  0.58513042  0.63383874  1  0.614286  -6e-06  3.898835  0.0  0.546144  -6e-06  4.212559  0.0  0.579717  -2e-06  4.201233  0.0  0.157414  0.524351  -3e-06  4.211999  0.0
C  C32  1  0.20048728  0.50043395  0.26456084  1  0.712306  0.000461  3.885029  0.001  0.662291  0.000454  4.188662  0.001  0.699469  0.000195  4.175803  0.0  0.232517  0.637344  0.000743  4.193888  0.001
C  C33  1  0.79951552  0.49956708  0.73544051  1  0.71234  0.000464  3.88511  0.001  0.662382  0.000455  4.188627  0.001  0.699557  0.000194  4.175775  0.0  0.232603  0.63744  0.000742  4.19385  0.001
C  C34  1  0.23130683  0.57051446  0.17167415  1  -0.066666  0.005748  3.640131  0.006  -0.056224  0.002104  3.880287  0.002  -0.063769  0.002119  3.89768  0.002  0.013217  -0.052444  0.002177  3.870225  0.002
C  C35  1  0.76869105  0.42948359  0.82832335  1  -0.066739  0.005718  3.640216  0.006  -0.056342  0.002104  3.880352  0.002  -0.063891  0.00212  3.897751  0.002  0.013197  -0.052565  0.002178  3.87029  0.002
C  C36  1  0.38794965  0.57240497  0.14336450  1  -0.026468  -0.011937  3.650018  -0.007  -0.052089  -0.004791  3.897361  -0.003  -0.045962  -0.00537  3.909112  -0.003  -0.057494  -0.056625  -0.004313  3.891026  -0.002
C  C37  1  0.61205171  0.42759903  0.85663786  1  -0.026301  -0.011889  3.649988  -0.007  -0.051874  -0.004793  3.8973  -0.003  -0.045747  -0.00537  3.909057  -0.003  -0.057409  -0.056409  -0.004314  3.890964  -0.002
C  C38  1  0.42356200  0.63456274  0.05858645  1  -0.103039  0.009228  3.692488  0.01  -0.116024  0.004033  3.944284  0.005  -0.121502  0.003668  3.959592  0.004  -0.077032  -0.112627  0.004284  3.93454  0.005
C  C39  1  0.57644280  0.36544026  0.94141723  1  -0.103001  0.009191  3.692599  0.01  -0.115969  0.004033  3.944342  0.005  -0.121452  0.003667  3.959649  0.004  -0.077011  -0.112574  0.004283  3.934598  0.005
C  C40  1  0.29867284  0.69124179  0.00010613  1  0.146056  -0.010634  3.669677  -0.007  0.113651  -0.003015  3.928917  -0.002  0.124183  -0.004742  3.94546  -0.003  0.052685  0.106763  -0.001677  3.918497  -0.001
C  C41  1  0.70132903  0.30876023  0.99989601  1  0.145894  -0.010589  3.6698  -0.007  0.113492  -0.003015  3.929035  -0.002  0.124033  -0.00474  3.945567  -0.003  0.052599  0.106602  -0.001677  3.918617  -0.001
C  C42  1  0.11312510  0.63089193  0.11015262  1  0.070775  -0.008351  3.706352  -0.005  0.066071  -0.002486  3.95389  -0.001  0.070242  -0.003833  3.973021  -0.002  0.113489  0.063149  -0.001552  3.942361  -0.001
C  C43  1  0.88687402  0.36910611  0.88984674  1  0.070864  -0.008316  3.706413  -0.005  0.066192  -0.002488  3.953838  -0.001  0.070375  -0.003832  3.972969  -0.002  0.113498  0.063273  -0.001553  3.942302  -0.001
C  C44  1  0.93561568  0.63534334  0.12418447  1  0.645956  -0.007198  3.895514  -0.006  0.598204  -0.001289  4.202505  -0.001  0.635549  -0.00121  4.192889  -0.001  0.219883  0.572727  -0.001275  4.206371  -0.002
C  C45  1  0.06438692  0.36465676  0.87580936  1  0.64553  -0.007195  3.895876  -0.006  0.597897  -0.001288  4.202674  -0.001  0.635216  -0.001209  4.19309  -0.001  0.219823  0.572412  -0.001274  4.206523  -0.002
C  C46  1  0.95725908  0.06255036  0.18397179  1  0.628184  -0.007356  3.896766  -0.006  0.574899  -0.001629  4.206704  -0.002  0.61073  -0.001645  4.199762  -0.001  0.219175  0.550252  -0.001482  4.21167  -0.002
C  C47  1  0.04272871  0.93744167  0.81602690  1  0.628292  -0.007361  3.896649  -0.006  0.575013  -0.00163  4.206566  -0.002  0.610847  -0.001645  4.199623  -0.001  0.219239  0.550366  -0.001482  4.211529  -0.002
C  C48  1  0.13968718  0.06037833  0.17846855  1  0.053569  -0.004945  3.726005  -0.003  0.043579  -0.001218  3.986465  0.0  0.046777  -0.002387  4.003917  -0.001  0.106017  0.040735  -0.000156  3.976956  0.001
C  C49  1  0.86030699  0.93961674  0.82152776  1  0.053602  -0.004933  3.726208  -0.003  0.043658  -0.001221  3.986593  0.0  0.046856  -0.002384  4.004044  -0.001  0.106021  0.040816  -0.000156  3.977081  0.001
C  C50  1  0.34446913  0.12219064  0.08259756  1  0.138933  -0.008279  3.674537  -0.005  0.106812  -0.002119  3.93397  -0.001  0.116988  -0.003475  3.950358  -0.002  0.052718  0.10016  -0.000962  3.92347  0.0
C  C51  1  0.65553140  0.87781135  0.91740677  1  0.138982  -0.008262  3.674362  -0.005  0.106841  -0.00212  3.933836  -0.001  0.117016  -0.003475  3.950225  -0.002  0.052634  0.100188  -0.000963  3.923337  0.0
C  C52  1  0.46066649  0.06104800  0.14417426  1  -0.095312  0.007042  3.685077  0.008  -0.109759  0.003137  3.941624  0.004  -0.115484  0.002759  3.957905  0.004  -0.070289  -0.10613  0.003385  3.931138  0.004
C  C53  1  0.53933985  0.93895899  0.85582953  1  -0.095323  0.007031  3.684887  0.008  -0.109771  0.003139  3.941448  0.004  -0.115498  0.002759  3.957729  0.004  -0.070249  -0.10614  0.003386  3.930968  0.004
C  C54  1  0.41482387  0.00178837  0.22787003  1  -0.002749  -0.008594  3.636444  -0.005  -0.03212  -0.003128  3.887921  -0.002  -0.026748  -0.003676  3.900984  -0.002  -0.052448  -0.036166  -0.002543  3.880481  -0.001
C  C55  1  0.58518540  0.99821962  0.77213529  1  -0.002667  -0.008573  3.636384  -0.005  -0.032104  -0.003132  3.887924  -0.002  -0.026733  -0.003676  3.900989  -0.002  -0.052481  -0.036154  -0.002545  3.880495  -0.001
C  C56  1  0.25250006  0.00224965  0.24707217  1  -0.060259  0.003625  3.665146  0.004  -0.04862  0.001215  3.909355  0.001  -0.053926  0.001173  3.925737  0.001  0.014743  -0.04611  0.001312  3.900269  0.001
C  C57  1  0.74750107  0.99775039  0.75292871  1  -0.060359  0.003611  3.665239  0.004  -0.048706  0.001216  3.909433  0.001  -0.054012  0.001172  3.925813  0.001  0.014711  -0.0462  0.001312  3.900346  0.001
C  C58  1  0.21152010  0.95099790  0.34622521  1  0.690609  0.000721  3.912763  0.001  0.63712  0.000685  4.215791  0.001  0.671694  0.000411  4.206693  0.001  0.225722  0.613681  0.000995  4.219568  0.001
C  C59  1  0.78847535  0.04899717  0.65377135  1  0.690562  0.000724  3.912765  0.001  0.637074  0.000685  4.215789  0.001  0.67165  0.000411  4.206688  0.001  0.225683  0.613638  0.000995  4.219561  0.001
N  N60  1  0.14880195  0.68862937  0.02640036  1  -0.314449  0.076297  3.397182  0.099  -0.274062  0.052204  3.702235  0.071  -0.304716  0.042819  3.724681  0.063  -0.356112  -0.256424  0.057183  3.689911  0.074
N  N61  1  0.85119999  0.31137266  0.97359935  1  -0.314376  0.076273  3.39733  0.098  -0.274031  0.052204  3.702387  0.071  -0.30468  0.042817  3.724822  0.063  -0.356073  -0.256382  0.057184  3.690059  0.074
N  N62  1  0.18899068  0.12170116  0.10025850  1  -0.306697  0.064299  3.393283  0.083  -0.266158  0.045029  3.698115  0.061  -0.294149  0.036702  3.718204  0.054  -0.353153  -0.249978  0.049689  3.687227  0.064
N  N63  1  0.81100480  0.87829392  0.89973725  1  -0.306739  0.064298  3.393427  0.083  -0.266231  0.045035  3.69829  0.061  -0.294227  0.036706  3.718381  0.054  -0.353146  -0.25006  0.049694  3.687406  0.064
O  O64  1  0.14745023  0.82673989  0.32756593  1  -0.720239  0.000795  2.050126  0.001  -0.67171  0.000333  2.295525  0.001  -0.698609  0.000131  2.287682  0.0  -0.373784  -0.646419  0.000651  2.301225  0.001
O  O65  1  0.85254850  0.17325717  0.67243321  1  -0.720181  0.000795  2.050036  0.001  -0.67165  0.000333  2.295439  0.001  -0.698552  0.000131  2.287595  0.0  -0.373733  -0.646349  0.000651  2.301139  0.001
O  O66  1  0.83958048  0.72383509  0.56741393  1  -0.923092  4.8e-05  1.838837  0.0  -0.876226  8e-06  2.017879  0.0  -0.893532  -1e-06  1.98448  0.0  -0.643745  -0.857632  4e-05  2.045035  0.0
O  O67  1  0.16042421  0.27616399  0.43258421  1  -0.922983  4.7e-05  1.838903  0.0  -0.876123  7e-06  2.017926  0.0  -0.893424  -1e-06  1.98454  0.0  -0.643693  -0.85752  4e-05  2.045089  0.0
O  O68  1  0.19478496  0.87246679  0.57078991  1  -0.929762  -2.9e-05  1.846992  0.0  -0.886795  -9.5e-05  2.029981  0.0  -0.905174  -0.000112  1.99724  0.0  -0.653587  -0.867046  -3.7e-05  2.055862  0.0
O  O69  1  0.80522071  0.12753132  0.42920501  1  -0.929645  -2.9e-05  1.846998  0.0  -0.886641  -9.5e-05  2.03012  0.0  -0.90502  -0.000112  1.997387  0.0  -0.653516  -0.866887  -3.7e-05  2.056007  0.0
O  O70  1  0.87923693  0.58070884  0.19431352  1  -0.662481  0.016343  2.021869  0.022  -0.626889  0.008252  2.264598  0.012  -0.65201  0.003806  2.256276  0.006  -0.347742  -0.602741  0.013263  2.270323  0.018
O  O71  1  0.12075608  0.41928324  0.80568291  1  -0.662211  0.016335  2.022314  0.022  -0.62665  0.008249  2.264962  0.012  -0.651767  0.003805  2.25667  0.006  -0.347667  -0.602498  0.01326  2.270685  0.018
O  O72  1  0.78513181  0.79798051  0.33793972  1  -0.871961  0.000176  1.828163  0.0  -0.829946  0.000118  2.006707  0.0  -0.845204  4.9e-05  1.977962  0.0  -0.624909  -0.81339  0.000212  2.03002  0.0
O  O73  1  0.21487285  0.20201164  0.66205488  1  -0.87204  0.000177  1.828017  0.0  -0.830005  0.000119  2.006602  0.0  -0.84526  4.9e-05  1.977848  0.0  -0.624881  -0.81344  0.000211  2.02992  0.0
O  O74  1  0.20851789  0.56941773  0.36220562  1  -0.717838  0.001552  1.990163  0.002  -0.672518  0.000735  2.228863  0.001  -0.69593  0.000398  2.214644  0.001  -0.393346  -0.648418  0.00117  2.238815  0.001
O  O75  1  0.79148563  0.43057836  0.63779265  1  -0.717953  0.001549  1.989957  0.002  -0.672661  0.000735  2.22863  0.001  -0.696071  0.000398  2.214411  0.001  -0.393468  -0.648541  0.00117  2.238571  0.001
O  O76  1  0.66020084  0.51589739  0.33896018  1  -0.628692  7e-06  2.028821  0.0  -0.580452  -1.9e-05  2.265313  0.0  -0.604189  -8e-06  2.255877  0.0  -0.351598  -0.559812  -1.5e-05  2.2715  0.0
O  O77  1  0.33979448  0.48410456  0.66104641  1  -0.628703  7e-06  2.028641  0.0  -0.580462  -1.9e-05  2.265195  0.0  -0.6042  -6e-06  2.25576  0.0  -0.351599  -0.559813  -1.6e-05  2.271383  0.0
O  O78  1  0.85846785  0.41167004  0.40802358  1  -0.774407  5.6e-05  2.094835  0.0  -0.725611  2.4e-05  2.35574  0.0  -0.7489  1.1e-05  2.343126  0.0  -0.432757  -0.69812  3.1e-05  2.363174  0.0
O  O79  1  0.14152569  0.58833000  0.59197177  1  -0.774434  5.6e-05  2.094626  0.0  -0.725659  2.5e-05  2.355603  0.0  -0.748946  1e-05  2.342987  0.0  -0.432815  -0.698171  3.1e-05  2.363035  0.0
O  O80  1  0.17863093  0.37621448  0.23881687  1  -0.625019  0.000481  1.979118  0.002  -0.578946  -0.000431  2.2191  0.001  -0.6111  -0.000957  2.208133  0.0  -0.300967  -0.556354  0.000271  2.226288  0.002
O  O81  1  0.82136671  0.62377961  0.76117996  1  -0.624961  0.000482  1.979373  0.002  -0.578889  -0.000432  2.219289  0.001  -0.611042  -0.000957  2.20833  0.0  -0.300933  -0.556309  0.000271  2.226477  0.002
O  O82  1  0.84639896  0.69487731  0.05704469  1  -0.578639  0.086773  2.039854  0.121  -0.554947  0.05884  2.331516  0.089  -0.597109  0.044536  2.322428  0.073  -0.316075  -0.527621  0.067963  2.338238  0.097
O  O83  1  0.15360368  0.30511978  0.94295274  1  -0.578472  0.086781  2.03966  0.121  -0.554849  0.058843  2.331276  0.089  -0.597002  0.044538  2.322198  0.073  -0.316083  -0.527534  0.067971  2.338046  0.097
O  O84  1  0.88043753  0.13212263  0.12287117  1  -0.56951  0.085906  2.075384  0.118  -0.540832  0.059409  2.358646  0.089  -0.582579  0.045307  2.351666  0.073  -0.313259  -0.513574  0.068297  2.363856  0.097
O  O85  1  0.11955650  0.86788234  0.87712994  1  -0.569552  0.085896  2.075514  0.118  -0.540806  0.059404  2.358693  0.089  -0.582556  0.045305  2.351716  0.073  -0.31326  -0.513558  0.068292  2.363899  0.097
O  O86  1  0.88619734  0.99792147  0.24336868  1  -0.598411  0.013408  2.025906  0.018  -0.539145  0.007226  2.243601  0.01  -0.56513  0.00334  2.234705  0.005  -0.285239  -0.520649  0.011382  2.249406  0.015
O  O87  1  0.11379274  0.00207263  0.75662100  1  -0.598428  0.013419  2.025626  0.018  -0.539264  0.007229  2.243407  0.01  -0.565252  0.00334  2.234499  0.005  -0.285286  -0.520768  0.011388  2.249211  0.015
O  O88  1  0.25346743  0.03842140  0.44154551  1  -0.599685  0.00171  1.947411  0.002  -0.541034  0.000828  2.152992  0.001  -0.567211  0.000478  2.142338  0.001  -0.286601  -0.522528  0.001252  2.15965  0.002
O  O89  1  0.74652733  0.96157862  0.55845252  1  -0.599694  0.001709  1.947528  0.002  -0.541023  0.000828  2.153113  0.001  -0.567199  0.000479  2.142459  0.001  -0.286605  -0.522523  0.001253  2.159776  0.002
