# generated using pymatgen
data_CuH7C11IN2O
_symmetry_space_group_name_H-M   'P 1'
_cell_length_a   4.26608149
_cell_length_b   13.87971151
_cell_length_c   17.59136921
_cell_angle_alpha   90.00025008
_cell_angle_beta   90.00009150
_cell_angle_gamma   97.58769673
_symmetry_Int_Tables_number   1
_chemical_formula_structural   CuH7C11IN2O
_chemical_formula_sum   'Cu4 H28 C44 I4 N8 O4'
_cell_volume   1032.49929824
_cell_formula_units_Z   4
loop_
 _symmetry_equiv_pos_site_id
 _symmetry_equiv_pos_as_xyz
  1  'x, y, z'
loop_
 _atom_site_type_symbol
 _atom_site_label
 _atom_site_symmetry_multiplicity
 _atom_site_fract_x
 _atom_site_fract_y
 _atom_site_fract_z
 _atom_site_occupancy
 _atom_site_hle17_bader_spin_density
 _atom_site_hle17_ddec_charge
 _atom_site_hle17_ddec_spin_density
 _atom_site_hle17_ddec_sum_bond_order
 _atom_site_hle17_magmom
 _atom_site_hse06_10hf_bader_spin_density
 _atom_site_hse06_10hf_ddec_charge
 _atom_site_hse06_10hf_ddec_spin_density
 _atom_site_hse06_10hf_ddec_sum_bond_order
 _atom_site_hse06_10hf_magmom
 _atom_site_hse06_bader_spin_density
 _atom_site_hse06_ddec_charge
 _atom_site_hse06_ddec_spin_density
 _atom_site_hse06_ddec_sum_bond_order
 _atom_site_hse06_magmom
 _atom_site_pbe_bader_spin_density
 _atom_site_pbe_cm5_charge
 _atom_site_pbe_ddec_charge
 _atom_site_pbe_ddec_spin_density
 _atom_site_pbe_ddec_sum_bond_order
 _atom_site_pbe_magmom
Cu  Cu0  1  0.82508238  0.49141728  0.55936509  1  0  0.254906  0  2.130786  0  0  0.177139  0  2.592571  0  0  0.187051  0  2.542549  0  0  0.258696  0.17277  0  2.625368  0
Cu  Cu1  1  0.67491676  0.00858073  0.05936563  1  0  0.254912  0  2.130801  0  0  0.177132  0  2.592573  0  0  0.187024  0  2.542553  0  0  0.25871  0.172768  0  2.625405  0
Cu  Cu2  1  0.17492353  0.50858119  0.44063290  1  0  0.254879  0  2.130853  0  0  0.1771  0  2.59265  0  0  0.186995  0  2.542627  0  0  0.258713  0.172747  0  2.625472  0
Cu  Cu3  1  0.32507605  0.99141994  0.94063349  1  0  0.254877  0  2.130819  0  0  0.177111  0  2.592613  0  0  0.187028  0  2.542595  0  0  0.258711  0.172751  0  2.625453  0
H  H4  1  0.48581441  0.43284784  0.70024025  1  0  0.09531  0  0.971667  0  0  0.09945  0  1.04524  0  0  0.103459  0  1.041304  0  0  0.107395  0.09649  0  1.048209  0
H  H5  1  0.01418888  0.06714931  0.20023922  1  0  0.095311  0  0.971678  0  0  0.099444  0  1.045271  0  0  0.103452  0  1.041336  0  0  0.10738  0.096484  0  1.048242  0
H  H6  1  0.51420599  0.56714626  0.29975944  1  0  0.095294  0  0.971694  0  0  0.099415  0  1.045301  0  0  0.103424  0  1.041365  0  0  0.10737  0.096455  0  1.048272  0
H  H7  1  0.98580222  0.93285281  0.79975990  1  0  0.095271  0  0.971546  0  0  0.099397  0  1.045158  0  0  0.103405  0  1.041222  0  0  0.107345  0.096438  0  1.048132  0
H  H8  1  0.21799672  0.76560023  0.84674386  1  0  0.104396  0  0.968174  0  0  0.111422  0  1.037668  0  0  0.115221  0  1.035562  0  0  0.091962  0.108421  0  1.03962  0
H  H9  1  0.28199905  0.73439890  0.34674238  1  0  0.104367  0  0.96828  0  0  0.111423  0  1.037736  0  0  0.115222  0  1.03563  0  0  0.091957  0.108415  0  1.039684  0
H  H10  1  0.78200887  0.23439752  0.15325640  1  0  0.104416  0  0.968182  0  0  0.111456  0  1.037673  0  0  0.115256  0  1.035563  0  0  0.091976  0.108452  0  1.03962  0
H  H11  1  0.71800047  0.26560104  0.65325674  1  0  0.104392  0  0.968257  0  0  0.111444  0  1.037725  0  0  0.115246  0  1.035612  0  0  0.091959  0.108437  0  1.039676  0
H  H12  1  0.58319423  0.85506156  0.75279631  1  0  0.083231  0  0.975177  0  0  0.090856  0  1.044275  0  0  0.093382  0  1.043137  0  0  0.094442  0.089  0  1.045197  0
H  H13  1  0.91680419  0.64493725  0.25279458  1  0  0.083245  0  0.975189  0  0  0.090872  0  1.04427  0  0  0.093397  0  1.043131  0  0  0.094429  0.089013  0  1.04519  0
H  H14  1  0.41680465  0.14493693  0.24720451  1  0  0.083207  0  0.975178  0  0  0.090843  0  1.044263  0  0  0.093368  0  1.043125  0  0  0.094434  0.088987  0  1.045184  0
H  H15  1  0.08319564  0.35506341  0.74720625  1  0  0.083245  0  0.975169  0  0  0.090874  0  1.044263  0  0  0.093396  0  1.043122  0  0  0.094451  0.089014  0  1.045183  0
H  H16  1  0.61287480  0.79397500  0.62064334  1  0  0.097171  0  0.952162  0  0  0.106539  0  1.015591  0  0  0.109875  0  1.013963  0  0  0.101042  0.10408  0  1.016847  0
H  H17  1  0.88711340  0.70602376  0.12064180  1  0  0.097189  0  0.952097  0  0  0.106567  0  1.015521  0  0  0.109885  0  1.013915  0  0  0.101082  0.10411  0  1.016779  0
H  H18  1  0.38712397  0.20602857  0.37935578  1  0  0.097157  0  0.952194  0  0  0.106546  0  1.015601  0  0  0.10987  0  1.013991  0  0  0.101066  0.104083  0  1.01688  0
H  H19  1  0.11288047  0.29397400  0.87935789  1  0  0.097109  0  0.952168  0  0  0.106503  0  1.015589  0  0  0.109838  0  1.013963  0  0  0.101059  0.104036  0  1.016861  0
H  H20  1  0.25915209  0.64598449  0.57928182  1  0  0.088056  0  1.015003  0  0  0.091677  0  1.094301  0  0  0.096936  0  1.08862  0  0  0.07915  0.087413  0  1.099024  0
H  H21  1  0.24083961  0.85401451  0.07928073  1  0  0.088098  0  1.014986  0  0  0.091713  0  1.094284  0  0  0.096973  0  1.088605  0  0  0.079194  0.087452  0  1.099014  0
H  H22  1  0.74084402  0.35401836  0.42072014  1  0  0.0881  0  1.01493  0  0  0.091717  0  1.094238  0  0  0.096977  0  1.088558  0  0  0.079166  0.087454  0  1.098964  0
H  H23  1  0.75915426  0.14598325  0.92072066  1  0  0.088097  0  1.01491  0  0  0.091721  0  1.094203  0  0  0.09698  0  1.088523  0  0  0.079176  0.087458  0  1.098928  0
H  H24  1  0.31204537  0.62713261  0.91784555  1  0  0.117801  0  0.958989  0  0  0.123946  0  1.026571  0  0  0.127284  0  1.024013  0  0  0.104567  0.121528  0  1.028531  0
H  H25  1  0.18796072  0.87286766  0.41784621  1  0  0.117745  0  0.959027  0  0  0.12396  0  1.026541  0  0  0.1273  0  1.023975  0  0  0.104547  0.121539  0  1.0285  0
H  H26  1  0.68795340  0.37287097  0.08215470  1  0  0.117744  0  0.95909  0  0  0.123986  0  1.026556  0  0  0.127328  0  1.023989  0  0  0.104566  0.121566  0  1.028516  0
H  H27  1  0.81204082  0.12713155  0.58215291  1  0  0.117757  0  0.959032  0  0  0.123973  0  1.026542  0  0  0.127312  0  1.023976  0  0  0.104562  0.121555  0  1.028502  0
H  H28  1  0.66252491  0.35172385  0.94089623  1  0  0.108753  0  0.969159  0  0  0.118002  0  1.033029  0  0  0.120625  0  1.03242  0  0  0.101734  0.116084  0  1.033571  0
H  H29  1  0.83747429  0.14827424  0.44089504  1  0  0.108765  0  0.969276  0  0  0.118022  0  1.033129  0  0  0.120645  0  1.032517  0  0  0.101742  0.116105  0  1.033676  0
H  H30  1  0.33747854  0.64827972  0.05910403  1  0  0.108763  0  0.969044  0  0  0.118024  0  1.032921  0  0  0.120631  0  1.032323  0  0  0.101735  0.116105  0  1.033473  0
H  H31  1  0.16252022  0.85172498  0.55910351  1  0  0.108737  0  0.969195  0  0  0.118002  0  1.03305  0  0  0.120607  0  1.032457  0  0  0.101722  0.116086  0  1.03359  0
C  C32  1  0.64836169  0.49588497  0.71843454  1  0  2.6e-05  0  3.631163  0  0  -0.03881  0  3.896566  0  0  -0.032516  0  3.903602  0  0  0.04653  -0.043386  0  3.892628  0
C  C33  1  0.85163587  0.00411253  0.21843343  1  0  5.3e-05  0  3.630952  0  0  -0.038803  0  3.896366  0  0  -0.032515  0  3.903398  0  0  0.046581  -0.043375  0  3.892438  0
C  C34  1  0.35164529  0.50411059  0.28156628  1  0  4.2e-05  0  3.631075  0  0  -0.038803  0  3.896505  0  0  -0.032506  0  3.903536  0  0  0.046529  -0.043383  0  3.892584  0
C  C35  1  0.14835757  0.99588959  0.78156569  1  0  6.1e-05  0  3.63094  0  0  -0.038773  0  3.896377  0  0  -0.032479  0  3.903408  0  0  0.046559  -0.043352  0  3.89246  0
C  C36  1  0.65927869  0.52744260  0.79553491  1  0  0.407454  0  3.811099  0  0  0.379391  0  4.092539  0  0  0.396678  0  4.096838  0  0  0.226055  0.36735  0  4.089889  0
C  C37  1  0.84072011  0.97255646  0.29553483  1  0  0.407336  0  3.811003  0  0  0.379242  0  4.09251  0  0  0.396527  0  4.096814  0  0  0.225973  0.367198  0  4.089868  0
C  C38  1  0.34072456  0.47255515  0.20446308  1  0  0.407373  0  3.811134  0  0  0.379295  0  4.09259  0  0  0.39658  0  4.09689  0  0  0.226094  0.367254  0  4.089949  0
C  C39  1  0.15928239  0.02744493  0.70446315  1  0  0.407299  0  3.811125  0  0  0.379231  0  4.092582  0  0  0.396518  0  4.096882  0  0  0.226041  0.367188  0  4.089949  0
C  C40  1  0.02983576  0.65523391  0.76636160  1  0  0.177649  0  3.806139  0  0  0.181622  0  4.04583  0  0  0.184957  0  4.068113  0  0  0.109647  0.179236  0  4.031022  0
C  C41  1  0.47016292  0.84476765  0.26636000  1  0  0.177717  0  3.806112  0  0  0.181573  0  4.045969  0  0  0.184909  0  4.068255  0  0  0.109654  0.179186  0  4.031158  0
C  C42  1  0.97016547  0.34476458  0.23363866  1  0  0.177655  0  3.806354  0  0  0.181614  0  4.046067  0  0  0.18495  0  4.068353  0  0  0.109645  0.179227  0  4.031256  0
C  C43  1  0.52983989  0.15523446  0.73364025  1  0  0.177607  0  3.806301  0  0  0.181549  0  4.046047  0  0  0.184883  0  4.068336  0  0  0.109605  0.179163  0  4.031243  0
C  C44  1  0.22722204  0.74065027  0.78808835  1  0  -0.14074  0  3.712999  0  0  -0.16258  0  3.966445  0  0  -0.166911  0  3.986769  0  0  -0.092695  -0.159665  0  3.953067  0
C  C45  1  0.27277353  0.75934923  0.28808752  1  0  -0.140691  0  3.712941  0  0  -0.16253  0  3.966393  0  0  -0.166863  0  3.98672  0  0  -0.092688  -0.159607  0  3.953002  0
C  C46  1  0.77278482  0.25935038  0.21191304  1  0  -0.140763  0  3.713065  0  0  -0.162633  0  3.96653  0  0  -0.166965  0  3.986855  0  0  -0.092702  -0.159715  0  3.953149  0
C  C47  1  0.72722301  0.24064925  0.71191388  1  0  -0.140702  0  3.713128  0  0  -0.162555  0  3.96657  0  0  -0.166888  0  3.986899  0  0  -0.092652  -0.159635  0  3.953186  0
C  C48  1  0.42949988  0.78984142  0.73570142  1  0  -0.039352  0  3.751448  0  0  -0.057608  0  4.00967  0  0  -0.058438  0  4.030625  0  0  -0.086636  -0.057096  0  3.995652  0
C  C49  1  0.07049320  0.71015850  0.23570091  1  0  -0.039429  0  3.751469  0  0  -0.057655  0  4.009657  0  0  -0.058483  0  4.030607  0  0  -0.086646  -0.05714  0  3.995624  0
C  C50  1  0.57049729  0.21015852  0.26429883  1  0  -0.039324  0  3.751359  0  0  -0.057578  0  4.009591  0  0  -0.058405  0  4.030539  0  0  -0.086632  -0.057063  0  3.995567  0
C  C51  1  0.92950632  0.28984143  0.76430049  1  0  -0.039452  0  3.751458  0  0  -0.057708  0  4.009727  0  0  -0.058533  0  4.030678  0  0  -0.08668  -0.057188  0  3.995691  0
C  C52  1  0.44431339  0.75576439  0.66038261  1  0  -0.051122  0  3.733588  0  0  -0.068894  0  3.987602  0  0  -0.070192  0  4.007102  0  0  -0.088391  -0.068011  0  3.974667  0
C  C53  1  0.05568030  0.74423799  0.16038221  1  0  -0.051132  0  3.733606  0  0  -0.068928  0  3.987616  0  0  -0.070209  0  4.00712  0  0  -0.088408  -0.068039  0  3.974676  0
C  C54  1  0.55567941  0.24423627  0.33961707  1  0  -0.051096  0  3.733616  0  0  -0.068898  0  3.987643  0  0  -0.070187  0  4.007151  0  0  -0.088408  -0.068015  0  3.9747  0
C  C55  1  0.94432220  0.25576340  0.83961748  1  0  -0.050974  0  3.73352  0  0  -0.068788  0  3.987561  0  0  -0.070085  0  4.007061  0  0  -0.088377  -0.067902  0  3.974611  0
C  C56  1  0.24941959  0.67356845  0.63719663  1  0  -0.12469  0  3.728856  0  0  -0.144985  0  3.981253  0  0  -0.147813  0  4.000936  0  0  -0.094857  -0.143291  0  3.968702  0
C  C57  1  0.25057561  0.82643234  0.13719488  1  0  -0.124628  0  3.728857  0  0  -0.144938  0  3.981279  0  0  -0.147767  0  4.000957  0  0  -0.094873  -0.143251  0  3.968742  0
C  C58  1  0.75058196  0.32643076  0.36280135  1  0  -0.124714  0  3.728845  0  0  -0.145001  0  3.981239  0  0  -0.147832  0  4.000922  0  0  -0.094865  -0.14331  0  3.968693  0
C  C59  1  0.74942252  0.17356978  0.86280253  1  0  -0.124743  0  3.72865  0  0  -0.145031  0  3.981056  0  0  -0.147862  0  4.000741  0  0  -0.094916  -0.143339  0  3.968511  0
C  C60  1  0.03717674  0.62276720  0.68923054  1  0  0.123382  0  3.761104  0  0  0.125324  0  3.991764  0  0  0.125081  0  4.017446  0  0  0.092924  0.125406  0  3.974835  0
C  C61  1  0.46281827  0.87723245  0.18922905  1  0  0.123249  0  3.761331  0  0  0.125221  0  3.991968  0  0  0.124972  0  4.017649  0  0  0.092944  0.125304  0  3.975047  0
C  C62  1  0.96282650  0.37723055  0.31076744  1  0  0.123295  0  3.761186  0  0  0.12526  0  3.991802  0  0  0.125013  0  4.017485  0  0  0.092916  0.125345  0  3.974875  0
C  C63  1  0.53717720  0.12276895  0.81076893  1  0  0.123339  0  3.760988  0  0  0.125309  0  3.991625  0  0  0.125063  0  4.017305  0  0  0.092957  0.125388  0  3.974713  0
C  C64  1  0.39577169  0.57223791  0.95380118  1  0  -0.130462  0  3.7448  0  0  -0.156015  0  4.003563  0  0  -0.158534  0  4.022498  0  0  -0.091666  -0.154328  0  3.990897  0
C  C65  1  0.10422395  0.92776476  0.45380085  1  0  -0.130441  0  3.744853  0  0  -0.156047  0  4.003603  0  0  -0.158566  0  4.022542  0  0  -0.091679  -0.154359  0  3.990929  0
C  C66  1  0.60422675  0.42776494  0.04619908  1  0  -0.130442  0  3.744788  0  0  -0.156044  0  4.003563  0  0  -0.158564  0  4.022508  0  0  -0.091665  -0.154357  0  3.990891  0
C  C67  1  0.89577322  0.07223518  0.54619940  1  0  -0.130453  0  3.744878  0  0  -0.156053  0  4.003655  0  0  -0.15857  0  4.022594  0  0  -0.0917  -0.154366  0  3.990987  0
C  C68  1  0.48849613  0.48841032  0.92245955  1  0  0.256331  0  3.761458  0  0  0.244651  0  4.02625  0  0  0.252553  0  4.043188  0  0  0.076822  0.239176  0  4.014733  0
C  C69  1  0.01150242  0.01158887  0.42245946  1  0  0.256345  0  3.761383  0  0  0.244652  0  4.026208  0  0  0.252556  0  4.043146  0  0  0.076831  0.239179  0  4.014691  0
C  C70  1  0.51149199  0.51159035  0.07754128  1  0  0.256381  0  3.761371  0  0  0.244596  0  4.02633  0  0  0.252498  0  4.043267  0  0  0.076773  0.239124  0  4.014814  0
C  C71  1  0.98850210  0.98841179  0.57753966  1  0  0.256312  0  3.761459  0  0  0.244566  0  4.026355  0  0  0.252471  0  4.04329  0  0  0.076823  0.239093  0  4.01484  0
C  C72  1  0.59174522  0.41631248  0.96749573  1  0  -0.150887  0  3.745449  0  0  -0.170754  0  3.995304  0  0  -0.174201  0  4.015436  0  0  -0.096427  -0.1684  0  3.981842  0
C  C73  1  0.90825379  0.08369013  0.46749606  1  0  -0.150899  0  3.745444  0  0  -0.170776  0  3.995297  0  0  -0.17422  0  4.015425  0  0  -0.096443  -0.168427  0  3.981842  0
C  C74  1  0.40825696  0.58368818  0.03250509  1  0  -0.150928  0  3.745372  0  0  -0.170788  0  3.995252  0  0  -0.174216  0  4.015392  0  0  -0.096439  -0.168439  0  3.981798  0
C  C75  1  0.09174605  0.91631053  0.53250306  1  0  -0.150877  0  3.745419  0  0  -0.170742  0  3.995285  0  0  -0.174173  0  4.015425  0  0  -0.096434  -0.168393  0  3.981823  0
I  I76  1  0.26008423  0.37433915  0.54419824  1  0  -0.340665  0  1.675514  0  0  -0.277082  0  2.109245  0  0  -0.294695  0  2.069854  0  0  -0.149075  -0.263858  0  2.13598  0
I  I77  1  0.23991895  0.12565999  0.04420092  1  0  -0.340675  0  1.675534  0  0  -0.277098  0  2.109275  0  0  -0.294707  0  2.069884  0  0  -0.14907  -0.263874  0  2.136028  0
I  I78  1  0.73992605  0.62565860  0.45579974  1  0  -0.34063  0  1.675526  0  0  -0.277048  0  2.10926  0  0  -0.294654  0  2.069864  0  0  -0.149063  -0.263833  0  2.136005  0
I  I79  1  0.76007651  0.87434140  0.95579991  1  0  -0.340664  0  1.67555  0  0  -0.277068  0  2.109264  0  0  -0.294685  0  2.069876  0  0  -0.149056  -0.263843  0  2.136025  0
N  N80  1  0.83600618  0.54173073  0.66644951  1  0  -0.23272  0  3.354887  0  0  -0.164983  0  3.635102  0  0  -0.173164  0  3.644056  0  0  -0.339279  -0.160317  0  3.629341  0
N  N81  1  0.66398583  0.95826539  0.16644931  1  0  -0.232657  0  3.354942  0  0  -0.164852  0  3.635083  0  0  -0.173014  0  3.644009  0  0  -0.339316  -0.160192  0  3.629343  0
N  N82  1  0.16399973  0.45826775  0.33355246  1  0  -0.232679  0  3.354661  0  0  -0.164925  0  3.634852  0  0  -0.173098  0  3.643791  0  0  -0.339274  -0.160267  0  3.629119  0
N  N83  1  0.33600399  0.04173383  0.83355208  1  0  -0.232639  0  3.354639  0  0  -0.164916  0  3.634873  0  0  -0.173088  0  3.643813  0  0  -0.339273  -0.160252  0  3.629143  0
N  N84  1  0.84028496  0.60485576  0.81943259  1  0  -0.390884  0  3.051722  0  0  -0.366469  0  3.32001  0  0  -0.375085  0  3.330698  0  0  -0.308807  -0.360752  0  3.31308  0
N  N85  1  0.65970937  0.89514344  0.31943218  1  0  -0.390866  0  3.051733  0  0  -0.366409  0  3.320066  0  0  -0.375025  0  3.330757  0  0  -0.308804  -0.360688  0  3.313134  0
N  N86  1  0.15971925  0.39514417  0.18056994  1  0  -0.390828  0  3.051738  0  0  -0.366412  0  3.320037  0  0  -0.375027  0  3.330725  0  0  -0.308857  -0.360694  0  3.313107  0
N  N87  1  0.34028983  0.10485577  0.68056922  1  0  -0.390761  0  3.051735  0  0  -0.366343  0  3.320039  0  0  -0.374958  0  3.330728  0  0  -0.308788  -0.360621  0  3.313112  0
O  O88  1  0.46675563  0.47001450  0.84370896  1  0  -0.312926  0  2.327517  0  0  -0.24182  0  2.553852  0  0  -0.261534  0  2.55678  0  0  -0.143122  -0.22783  0  2.551423  0
O  O89  1  0.03324552  0.02998641  0.34370895  1  0  -0.312892  0  2.327507  0  0  -0.241766  0  2.553845  0  0  -0.261481  0  2.556776  0  0  -0.143086  -0.227775  0  2.55142  0
O  O90  1  0.53324314  0.52998907  0.15629130  1  0  -0.312919  0  2.327489  0  0  -0.24175  0  2.553826  0  0  -0.261464  0  2.556753  0  0  -0.143104  -0.227761  0  2.551401  0
O  O91  1  0.96675432  0.97001426  0.65629074  1  0  -0.312855  0  2.327479  0  0  -0.241711  0  2.553806  0  0  -0.26143  0  2.556741  0  0  -0.143092  -0.227721  0  2.551382  0
