# generated using pymatgen
data_Tb2H10C15(N3O7)2
_symmetry_space_group_name_H-M   'P 1'
_cell_length_a   13.19067198
_cell_length_b   13.13587590
_cell_length_c   31.33073627
_cell_angle_alpha   89.99985184
_cell_angle_beta   89.99984582
_cell_angle_gamma   89.99963085
_symmetry_Int_Tables_number   1
_chemical_formula_structural   Tb2H10C15(N3O7)2
_chemical_formula_sum   'Tb16 H80 C120 N48 O112'
_cell_volume   5428.70895084
_cell_formula_units_Z   8
loop_
 _symmetry_equiv_pos_site_id
 _symmetry_equiv_pos_as_xyz
  1  'x, y, z'
loop_
 _atom_site_type_symbol
 _atom_site_label
 _atom_site_symmetry_multiplicity
 _atom_site_fract_x
 _atom_site_fract_y
 _atom_site_fract_z
 _atom_site_occupancy
 _atom_site_pbe_bader_charge
 _atom_site_pbe_bader_spin_density
 _atom_site_pbe_cm5_charge
 _atom_site_pbe_ddec_charge
 _atom_site_pbe_ddec_spin_density
 _atom_site_pbe_ddec_sum_bond_order
 _atom_site_pbe_magmom
Tb  Tb0  1  0.96184349  0.19870926  0.46644865  1  2.212368  0  1.531963  2.094237  0  2.213859  0
Tb  Tb1  1  0.03815170  0.30128704  0.96644694  1  2.212489  0  1.531942  2.094253  0  2.213697  0
Tb  Tb2  1  0.46184567  0.80128642  0.03355453  1  2.212481  0  1.531942  2.094185  0  2.213944  0
Tb  Tb3  1  0.53815211  0.69871134  0.53355205  1  2.212414  0  1.532028  2.094255  0  2.213858  0
Tb  Tb4  1  0.03815224  0.80128168  0.53355196  1  2.2125  0  1.531991  2.094353  0  2.213611  0
Tb  Tb5  1  0.96184782  0.69871456  0.03355207  1  2.212403  0  1.531936  2.094283  0  2.213782  0
Tb  Tb6  1  0.53815385  0.19871518  0.96644831  1  2.212432  0  1.531894  2.094125  0  2.213893  0
Tb  Tb7  1  0.46184286  0.30128493  0.46644760  1  2.212407  0  1.531977  2.094263  0  2.213831  0
Tb  Tb8  1  0.05047797  0.95919054  0.73891953  1  2.175359  0  1.543002  2.007013  0  2.245168  0
Tb  Tb9  1  0.94952457  0.54081509  0.23892110  1  2.175368  0  1.543004  2.007093  0  2.245012  0
Tb  Tb10  1  0.55048190  0.04081385  0.76108009  1  2.175339  0  1.542986  2.0071  0  2.245016  0
Tb  Tb11  1  0.44952445  0.45919057  0.26107858  1  2.175385  0  1.543036  2.007123  0  2.245043  0
Tb  Tb12  1  0.94952458  0.04081182  0.26107821  1  2.175408  0  1.543006  2.007158  0  2.245056  0
Tb  Tb13  1  0.05048102  0.45918879  0.76107919  1  2.175377  0  1.543005  2.007104  0  2.245096  0
Tb  Tb14  1  0.44952292  0.95918927  0.23892179  1  2.175341  0  1.543076  2.007159  0  2.245091  0
Tb  Tb15  1  0.55048189  0.54081027  0.73892266  1  2.17541  0  1.542935  2.006991  0  2.245118  0
H  H16  1  0.26201031  0.34984396  0.78786688  1  0.556517  0  0.32271  0.297173  0  0.968374  0
H  H17  1  0.73799209  0.15016105  0.28786634  1  0.556556  0  0.322718  0.29718  0  0.968414  0
H  H18  1  0.76201065  0.65015753  0.71213282  1  0.556569  0  0.322678  0.297077  0  0.968523  0
H  H19  1  0.23799281  0.84984065  0.21213103  1  0.556487  0  0.322686  0.297123  0  0.968517  0
H  H20  1  0.73799148  0.65016296  0.21213405  1  0.556663  0  0.322662  0.297055  0  0.968458  0
H  H21  1  0.26201425  0.84984207  0.71213267  1  0.556536  0  0.322697  0.297117  0  0.968353  0
H  H22  1  0.23798963  0.34984406  0.28786843  1  0.556492  0  0.322723  0.297226  0  0.968323  0
H  H23  1  0.76201352  0.15015334  0.78786958  1  0.556462  0  0.322709  0.29718  0  0.968313  0
H  H24  1  0.17658718  0.57917046  0.52187497  1  0.550338  0  0.32013  0.291497  0  0.976427  0
H  H25  1  0.82340461  0.92082965  0.02187659  1  0.550363  0  0.320075  0.291482  0  0.976525  0
H  H26  1  0.67659563  0.42082474  0.97812323  1  0.550344  0  0.320066  0.291559  0  0.976418  0
H  H27  1  0.32341010  0.07917682  0.47812068  1  0.550254  0  0.320103  0.291508  0  0.97648  0
H  H28  1  0.82340097  0.42082428  0.47812436  1  0.55039  0  0.32011  0.291619  0  0.97643  0
H  H29  1  0.17659793  0.07917879  0.97812561  1  0.55045  0  0.320059  0.291613  0  0.976374  0
H  H30  1  0.32340768  0.57916620  0.02187419  1  0.550375  0  0.320138  0.291524  0  0.976494  0
H  H31  1  0.67659094  0.92082630  0.52187737  1  0.55033  0  0.320099  0.291496  0  0.976503  0
H  H32  1  0.92721095  0.21341219  0.60562668  1  0.528013  0  0.352366  0.316441  0  0.874575  0
H  H33  1  0.07278579  0.28658786  0.10563058  1  0.527855  0  0.352433  0.316507  0  0.874544  0
H  H34  1  0.42722001  0.78658291  0.89437282  1  0.527715  0  0.352406  0.316471  0  0.87456  0
H  H35  1  0.57278001  0.71342023  0.39437017  1  0.527846  0  0.352345  0.316481  0  0.874472  0
H  H36  1  0.07278781  0.78658637  0.39436850  1  0.527983  0  0.35241  0.316447  0  0.874679  0
H  H37  1  0.92720766  0.71341982  0.89436907  1  0.528103  0  0.352361  0.316439  0  0.874578  0
H  H38  1  0.57278708  0.21340955  0.10563129  1  0.528108  0  0.352427  0.31652  0  0.874489  0
H  H39  1  0.42720813  0.28659583  0.60562948  1  0.528196  0  0.352417  0.316542  0  0.874517  0
H  H40  1  0.34461061  0.56765119  0.48623895  1  0.17917  0  0.142586  0.100986  0  1.027055  0
H  H41  1  0.65537897  0.93235291  0.98624215  1  0.179699  0  0.142594  0.101024  0  1.027012  0
H  H42  1  0.84462271  0.43233992  0.01375862  1  0.17941  0  0.142591  0.101088  0  1.026961  0
H  H43  1  0.15538295  0.06765537  0.51375576  1  0.179559  0  0.142566  0.101055  0  1.026989  0
H  H44  1  0.65538132  0.43234736  0.51375751  1  0.179482  0  0.142547  0.10101  0  1.027131  0
H  H45  1  0.34461903  0.06765782  0.01376102  1  0.179459  0  0.142605  0.101032  0  1.027039  0
H  H46  1  0.15537680  0.56765178  0.98624231  1  0.179669  0  0.142613  0.101083  0  1.026913  0
H  H47  1  0.84461733  0.93234166  0.48624326  1  0.179536  0  0.142541  0.101005  0  1.027004  0
H  H48  1  0.44275179  0.29270743  0.80603970  1  0.17458  0  0.150415  0.115339  0  0.964499  0
H  H49  1  0.55724973  0.20730052  0.30604090  1  0.174696  0  0.150444  0.115445  0  0.964374  0
H  H50  1  0.94275264  0.70728985  0.69395628  1  0.174527  0  0.150429  0.115461  0  0.964442  0
H  H51  1  0.05725170  0.79270768  0.19395668  1  0.174601  0  0.150375  0.115359  0  0.964395  0
H  H52  1  0.55725227  0.70729797  0.19395995  1  0.174611  0  0.150435  0.115432  0  0.964418  0
H  H53  1  0.44275434  0.79270641  0.69395588  1  0.174481  0  0.150425  0.115465  0  0.964418  0
H  H54  1  0.05724612  0.29270642  0.30604496  1  0.174645  0  0.150361  0.115406  0  0.96431  0
H  H55  1  0.94275692  0.20729087  0.80604616  1  0.174531  0  0.150412  0.11547  0  0.964306  0
H  H56  1  0.94216675  0.20032710  0.68915520  1  0.156279  0  0.145707  0.106102  0  0.984232  0
H  H57  1  0.05783173  0.29967548  0.18915719  1  0.156268  0  0.145726  0.106066  0  0.984279  0
H  H58  1  0.44217323  0.79967247  0.81084333  1  0.156607  0  0.145796  0.106121  0  0.984164  0
H  H59  1  0.55782430  0.70033043  0.31084071  1  0.156288  0  0.145808  0.106178  0  0.984201  0
H  H60  1  0.05783125  0.79966841  0.31084062  1  0.156133  0  0.145707  0.106032  0  0.984207  0
H  H61  1  0.94216703  0.70033069  0.81084055  1  0.156168  0  0.145724  0.1061  0  0.984159  0
H  H62  1  0.55782477  0.20032380  0.18915823  1  0.1561  0  0.145781  0.106069  0  0.984296  0
H  H63  1  0.44216991  0.29966888  0.68915671  1  0.156576  0  0.145736  0.106121  0  0.984141  0
H  H64  1  0.04093746  0.99645006  0.83821753  1  0.634072  0  0.348077  0.441976  0  0.831625  0
H  H65  1  0.95905989  0.50355039  0.33821881  1  0.634066  0  0.348053  0.441959  0  0.831652  0
H  H66  1  0.54093771  0.00355516  0.66178050  1  0.634033  0  0.348024  0.441921  0  0.831713  0
H  H67  1  0.45905639  0.49644835  0.16177990  1  0.634023  0  0.348027  0.441911  0  0.831731  0
H  H68  1  0.95905978  0.00355307  0.16177829  1  0.633976  0  0.34797  0.441858  0  0.831785  0
H  H69  1  0.04093886  0.49644664  0.66177988  1  0.633995  0  0.34799  0.441869  0  0.831776  0
H  H70  1  0.45906104  0.99644948  0.33821851  1  0.634057  0  0.34803  0.441932  0  0.831694  0
H  H71  1  0.54093934  0.50355553  0.83821943  1  0.634026  0  0.348014  0.441911  0  0.83174  0
H  H72  1  0.10529540  0.89927783  0.82826630  1  0.630434  0  0.340601  0.428825  0  0.852789  0
H  H73  1  0.89469974  0.60072192  0.32826818  1  0.630389  0  0.340631  0.428894  0  0.852669  0
H  H74  1  0.60529876  0.10072545  0.67173070  1  0.630326  0  0.340641  0.428919  0  0.85264  0
H  H75  1  0.39470286  0.39927495  0.17173220  1  0.63037  0  0.340616  0.428866  0  0.852703  0
H  H76  1  0.89470487  0.10072682  0.17173016  1  0.630326  0  0.340627  0.428925  0  0.852625  0
H  H77  1  0.10529371  0.39927282  0.67173083  1  0.630327  0  0.340621  0.428903  0  0.852659  0
H  H78  1  0.39470303  0.89927691  0.32826894  1  0.630367  0  0.340615  0.428874  0  0.8527  0
H  H79  1  0.60529514  0.60072893  0.82826873  1  0.630337  0  0.340657  0.428973  0  0.852559  0
H  H80  1  0.94395792  0.33010694  0.39666408  1  0.612658  0  0.312525  0.394281  0  0.911543  0
H  H81  1  0.05604150  0.16989132  0.89666505  1  0.612754  0  0.312516  0.394225  0  0.911614  0
H  H82  1  0.44394686  0.66989038  0.10333689  1  0.612582  0  0.312504  0.394154  0  0.911715  0
H  H83  1  0.55603304  0.83010923  0.60333456  1  0.612777  0  0.312528  0.394222  0  0.911628  0
H  H84  1  0.05605296  0.66989009  0.60333557  1  0.612606  0  0.31253  0.394137  0  0.911733  0
H  H85  1  0.94395044  0.83010724  0.10333556  1  0.612607  0  0.31253  0.394215  0  0.911615  0
H  H86  1  0.55603977  0.33011274  0.89666404  1  0.61271  0  0.31247  0.394101  0  0.911777  0
H  H87  1  0.44395131  0.16989084  0.39666349  1  0.612626  0  0.312538  0.394249  0  0.911578  0
H  H88  1  0.97961607  0.41786638  0.42889562  1  0.674833  0  0.289593  0.40719  0  0.927329  0
H  H89  1  0.02038390  0.08213320  0.92889704  1  0.674823  0  0.289646  0.407285  0  0.927234  0
H  H90  1  0.47961335  0.58213223  0.07110531  1  0.674841  0  0.289635  0.407207  0  0.927292  0
H  H91  1  0.52037964  0.91786759  0.57110261  1  0.67484  0  0.289615  0.407255  0  0.927249  0
H  H92  1  0.02039178  0.58212608  0.57110595  1  0.674801  0  0.289664  0.407279  0  0.927216  0
H  H93  1  0.97961334  0.91786916  0.07110516  1  0.674827  0  0.289625  0.407201  0  0.927304  0
H  H94  1  0.52038465  0.41787318  0.92889562  1  0.674771  0  0.289646  0.407271  0  0.927251  0
H  H95  1  0.47961154  0.08212868  0.42889449  1  0.674808  0  0.289658  0.407302  0  0.927201  0
C  C96  1  0.21756205  0.25060466  0.46962547  1  1.56153  0  0.238433  0.645203  0  4.174442  0
C  C97  1  0.78243312  0.24939162  0.96962394  1  1.56149  0  0.238359  0.645133  0  4.174594  0
C  C98  1  0.71756292  0.74938803  0.03037702  1  1.561277  0  0.238359  0.645021  0  4.174391  0
C  C99  1  0.28243337  0.75060289  0.53036488  1  1.56107  0  0.238415  0.6453  0  4.17428  0
C  C100  1  0.78243974  0.74938933  0.53037673  1  1.561358  0  0.23829  0.64485  0  4.174566  0
C  C101  1  0.21756564  0.75061454  0.03037284  1  1.560946  0  0.238281  0.644874  0  4.174628  0
C  C102  1  0.28243660  0.25060291  0.96962486  1  1.561737  0  0.238429  0.645249  0  4.174479  0
C  C103  1  0.71755553  0.24938957  0.46962423  1  1.561288  0  0.238275  0.644899  0  4.174728  0
C  C104  1  0.30838368  0.02153240  0.73721517  1  1.567515  0  0.232292  0.628706  0  4.198955  0
C  C105  1  0.69162131  0.47847977  0.23721593  1  1.568059  0  0.232326  0.628781  0  4.198504  0
C  C106  1  0.80838615  0.97847260  0.76278351  1  1.567715  0  0.232299  0.628609  0  4.198739  0
C  C107  1  0.19162306  0.52152983  0.26278309  1  1.567878  0  0.232378  0.628761  0  4.198677  0
C  C108  1  0.69161811  0.97848061  0.26278256  1  1.567358  0  0.232364  0.628835  0  4.198223  0
C  C109  1  0.30838503  0.52153020  0.76278181  1  1.567696  0  0.232353  0.628849  0  4.198506  0
C  C110  1  0.19162095  0.02152747  0.23721837  1  1.567761  0  0.232312  0.62867  0  4.198659  0
C  C111  1  0.80838783  0.47847024  0.73721847  1  1.567735  0  0.232285  0.628632  0  4.198601  0
C  C112  1  0.23820389  0.19910350  0.76357549  1  0.371433  0  0.10004  0.006849  0  3.897212  0
C  C113  1  0.76180017  0.30089633  0.26357572  1  0.371551  0  0.100037  0.00689  0  3.897736  0
C  C114  1  0.73820236  0.80089054  0.73642231  1  0.371537  0  0.100057  0.006901  0  3.897368  0
C  C115  1  0.26180095  0.69910597  0.23642194  1  0.371376  0  0.100122  0.006959  0  3.89748  0
C  C116  1  0.76180245  0.80089810  0.23642352  1  0.371586  0  0.099946  0.006696  0  3.897662  0
C  C117  1  0.23820314  0.69910679  0.73642457  1  0.371481  0  0.100058  0.006911  0  3.897234  0
C  C118  1  0.26179944  0.19910573  0.26357542  1  0.371227  0  0.100032  0.006944  0  3.897616  0
C  C119  1  0.73820387  0.30089182  0.76357675  1  0.371613  0  0.099986  0.006769  0  3.897563  0
C  C120  1  0.30864788  0.12070654  0.75920375  1  0.436633  0  0.079833  -0.021761  0  4.0396  0
C  C121  1  0.69136380  0.37929333  0.25920270  1  0.436392  0  0.079767  -0.02197  0  4.039487  0
C  C122  1  0.80864581  0.87929085  0.74079621  1  0.436349  0  0.079738  -0.021928  0  4.039466  0
C  C123  1  0.19135747  0.62070639  0.24079664  1  0.436441  0  0.079823  -0.021838  0  4.039456  0
C  C124  1  0.69136150  0.87929887  0.24079590  1  0.436431  0  0.079756  -0.021858  0  4.039289  0
C  C125  1  0.30865088  0.62070903  0.74079823  1  0.436606  0  0.07974  -0.02185  0  4.03963  0
C  C126  1  0.19135977  0.12070846  0.25920280  1  0.43652  0  0.079784  -0.02184  0  4.039502  0
C  C127  1  0.80864887  0.37928912  0.75920588  1  0.436282  0  0.079815  -0.021669  0  4.039415  0
C  C128  1  0.05238060  0.89386897  0.63912491  1  1.630489  0  0.23728  0.643026  0  4.181606  0
C  C129  1  0.94762030  0.60612814  0.13912482  1  1.630254  0  0.237341  0.643073  0  4.181704  0
C  C130  1  0.55237286  0.10613084  0.86087471  1  1.630216  0  0.237326  0.642886  0  4.181801  0
C  C131  1  0.44762831  0.39387068  0.36087327  1  1.630738  0  0.237192  0.642686  0  4.182219  0
C  C132  1  0.94762119  0.10612502  0.36087378  1  1.630277  0  0.23731  0.643036  0  4.18168  0
C  C133  1  0.05237694  0.39388183  0.86087483  1  1.630842  0  0.237237  0.642853  0  4.182181  0
C  C134  1  0.44761452  0.89386847  0.13912686  1  1.630351  0  0.237294  0.642996  0  4.181372  0
C  C135  1  0.55237500  0.60612712  0.63912765  1  1.630672  0  0.237214  0.64279  0  4.181994  0
C  C136  1  0.13210241  0.21153549  0.74894040  1  1.662429  0  0.241718  0.650714  0  4.196258  0
C  C137  1  0.86789796  0.28846671  0.24893828  1  1.662398  0  0.241706  0.650616  0  4.196536  0
C  C138  1  0.63210389  0.78846456  0.75106104  1  1.662039  0  0.241722  0.650607  0  4.19646  0
C  C139  1  0.36789478  0.71153718  0.25105958  1  1.662211  0  0.241638  0.650514  0  4.196572  0
C  C140  1  0.86789787  0.78846915  0.25106117  1  1.662664  0  0.241701  0.650692  0  4.196232  0
C  C141  1  0.13210762  0.71153869  0.75106041  1  1.662192  0  0.241688  0.650454  0  4.196623  0
C  C142  1  0.36789715  0.21153704  0.24893925  1  1.662283  0  0.241669  0.650501  0  4.196669  0
C  C143  1  0.63210777  0.28846517  0.74894103  1  1.662316  0  0.241631  0.650454  0  4.196712  0
C  C144  1  0.05128327  0.40439606  0.52606399  1  1.652749  0  0.211333  0.605803  0  4.261007  0
C  C145  1  0.94871473  0.09560448  0.02606455  1  1.653462  0  0.211326  0.605745  0  4.261037  0
C  C146  1  0.55128077  0.59559995  0.97393658  1  1.653256  0  0.2113  0.6058  0  4.261042  0
C  C147  1  0.44871799  0.90440118  0.47393577  1  1.653018  0  0.211355  0.605927  0  4.260849  0
C  C148  1  0.94871473  0.59559488  0.47393917  1  1.652616  0  0.211395  0.605866  0  4.260864  0
C  C149  1  0.05127948  0.90440397  0.97393861  1  1.653182  0  0.211269  0.605694  0  4.261087  0
C  C150  1  0.44871496  0.40440089  0.02606179  1  1.652966  0  0.211349  0.605776  0  4.260867  0
C  C151  1  0.55127849  0.09559509  0.52606356  1  1.653208  0  0.211278  0.605773  0  4.261185  0
C  C152  1  0.97659179  0.06173353  0.60383042  1  0.398797  0  0.103829  0.024266  0  3.887026  0
C  C153  1  0.02340344  0.43826044  0.10383261  1  0.398869  0  0.10383  0.024279  0  3.88704  0
C  C154  1  0.47660139  0.93826887  0.89616935  1  0.398711  0  0.10384  0.024244  0  3.886851  0
C  C155  1  0.52340393  0.56173199  0.39616755  1  0.398466  0  0.103751  0.024186  0  3.887023  0
C  C156  1  0.02340924  0.93826046  0.39616763  1  0.398629  0  0.103969  0.02442  0  3.886984  0
C  C157  1  0.97659456  0.56173659  0.89616800  1  0.398557  0  0.103966  0.024436  0  3.88692  0
C  C158  1  0.52339889  0.06174111  0.10383349  1  0.398962  0  0.103857  0.024234  0  3.887008  0
C  C159  1  0.47659104  0.43826733  0.60383273  1  0.398583  0  0.103896  0.024363  0  3.887104  0
C  C160  1  0.15000532  0.42168586  0.50366260  1  0.40545  0  0.097076  0.01545  0  3.863495  0
C  C161  1  0.84998903  0.07831710  0.00366138  1  0.405478  0  0.097117  0.015502  0  3.863389  0
C  C162  1  0.65001037  0.57830570  0.99634169  1  0.40533  0  0.09707  0.01546  0  3.863607  0
C  C163  1  0.34998749  0.92168844  0.49633491  1  0.405405  0  0.097094  0.015409  0  3.863506  0
C  C164  1  0.84998510  0.57829670  0.49634088  1  0.405625  0  0.097085  0.015416  0  3.863525  0
C  C165  1  0.15001958  0.92169440  0.99634402  1  0.405429  0  0.097078  0.015315  0  3.863945  0
C  C166  1  0.34998839  0.42168600  0.00366052  1  0.405509  0  0.097158  0.015461  0  3.863521  0
C  C167  1  0.65000748  0.07830326  0.50365963  1  0.405418  0  0.097077  0.015412  0  3.863587  0
C  C168  1  0.97223889  0.05342438  0.55678014  1  1.655034  0  0.236792  0.630546  0  4.237857  0
C  C169  1  0.02775664  0.44656912  0.05678200  1  1.654916  0  0.236727  0.630358  0  4.238  0
C  C170  1  0.47224662  0.94656662  0.94321963  1  1.654831  0  0.2367  0.630413  0  4.237676  0
C  C171  1  0.52775840  0.55342709  0.44321975  1  1.654995  0  0.236745  0.630417  0  4.237798  0
C  C172  1  0.02775456  0.94656580  0.44321759  1  1.654909  0  0.236721  0.630474  0  4.237829  0
C  C173  1  0.97223909  0.55343324  0.94321733  1  1.654761  0  0.236704  0.630408  0  4.237822  0
C  C174  1  0.52775593  0.05342965  0.05678353  1  1.654873  0  0.23679  0.630675  0  4.237642  0
C  C175  1  0.47224187  0.44657451  0.55678085  1  1.655033  0  0.236676  0.630251  0  4.238229  0
C  C176  1  0.21721293  0.35911280  0.48123606  1  0.441369  0  0.079894  -0.016977  0  4.013267  0
C  C177  1  0.78278898  0.14088569  0.98123751  1  0.440982  0  0.079835  -0.017  0  4.013545  0
C  C178  1  0.71721154  0.64087608  0.01876612  1  0.441782  0  0.080057  -0.016744  0  4.01339  0
C  C179  1  0.28278179  0.85911644  0.51875961  1  0.441727  0  0.079927  -0.016989  0  4.013552  0
C  C180  1  0.78278355  0.64087204  0.51877061  1  0.441791  0  0.079958  -0.016783  0  4.013435  0
C  C181  1  0.21721053  0.85913038  0.01876788  1  0.441495  0  0.080051  -0.016544  0  4.013588  0
C  C182  1  0.28278040  0.35911029  0.98123736  1  0.441171  0  0.079874  -0.017007  0  4.013333  0
C  C183  1  0.71721242  0.14088211  0.48123398  1  0.441761  0  0.07994  -0.016883  0  4.013515  0
C  C184  1  0.29087890  0.50553293  0.48720643  1  0.996269  0  0.16206  0.211048  0  3.909092  0
C  C185  1  0.70911144  0.99446888  0.98721046  1  0.995326  0  0.162063  0.210975  0  3.908949  0
C  C186  1  0.79089137  0.49446157  0.01279215  1  0.995345  0  0.162013  0.21085  0  3.90878  0
C  C187  1  0.20911430  0.00553829  0.51278802  1  0.995268  0  0.162089  0.210984  0  3.908835  0
C  C188  1  0.70911304  0.49445877  0.51279322  1  0.995262  0  0.162016  0.210878  0  3.909254  0
C  C189  1  0.29088884  0.00554261  0.01279494  1  0.995802  0  0.161969  0.210939  0  3.908841  0
C  C190  1  0.20911043  0.50553013  0.98720877  1  0.995377  0  0.162125  0.210988  0  3.908505  0
C  C191  1  0.79088446  0.99446407  0.48720812  1  0.995419  0  0.161995  0.210861  0  3.908883  0
C  C192  1  0.38607709  0.24581471  0.79064656  1  1.024816  0  0.177431  0.231972  0  3.880856  0
C  C193  1  0.61392756  0.25419409  0.29064669  1  1.024615  0  0.177398  0.231907  0  3.88073  0
C  C194  1  0.88607830  0.75418218  0.70935139  1  1.024986  0  0.177427  0.231835  0  3.88081  0
C  C195  1  0.11392366  0.74581450  0.20935178  1  1.024996  0  0.177489  0.232001  0  3.88078  0
C  C196  1  0.61392546  0.75418917  0.20935309  1  1.024938  0  0.177409  0.231896  0  3.880743  0
C  C197  1  0.38607954  0.74581588  0.70935104  1  1.025003  0  0.177465  0.231926  0  3.880823  0
C  C198  1  0.11392425  0.24581409  0.29064857  1  1.025007  0  0.177473  0.231948  0  3.88065  0
C  C199  1  0.88607889  0.25418482  0.79064915  1  1.024729  0  0.177406  0.231772  0  3.880702  0
C  C200  1  0.00545393  0.99736356  0.63681277  1  0.42801  0  0.092562  0.006786  0  3.949482  0
C  C201  1  0.99453940  0.50263280  0.13681114  1  0.428047  0  0.09255  0.00684  0  3.949399  0
C  C202  1  0.50546504  0.00264112  0.86318945  1  0.427936  0  0.092562  0.006994  0  3.949479  0
C  C203  1  0.49454294  0.49736419  0.36318785  1  0.427981  0  0.092541  0.007003  0  3.949442  0
C  C204  1  0.99454255  0.00263043  0.36318752  1  0.428009  0  0.092419  0.006788  0  3.949451  0
C  C205  1  0.00545329  0.49736575  0.86318946  1  0.427995  0  0.092474  0.00683  0  3.949536  0
C  C206  1  0.49452993  0.99736809  0.13681212  1  0.427884  0  0.092499  0.006909  0  3.949176  0
C  C207  1  0.50546340  0.50262980  0.63681244  1  0.428253  0  0.092486  0.006901  0  3.949633  0
C  C208  1  0.95821926  0.14113427  0.66595085  1  0.983739  0  0.163534  0.198123  0  3.934215  0
C  C209  1  0.04177784  0.35886693  0.16595215  1  0.984083  0  0.163568  0.198234  0  3.934133  0
C  C210  1  0.45822522  0.85886672  0.83404830  1  0.983472  0  0.163505  0.198187  0  3.934097  0
C  C211  1  0.54177064  0.64113832  0.33404608  1  0.984327  0  0.163482  0.198194  0  3.934059  0
C  C212  1  0.04177722  0.85886429  0.33404688  1  0.984078  0  0.16357  0.198295  0  3.934227  0
C  C213  1  0.95822016  0.64113086  0.83404558  1  0.984144  0  0.16351  0.198136  0  3.933869  0
C  C214  1  0.54177506  0.14113259  0.16595263  1  0.984184  0  0.163564  0.198269  0  3.934204  0
C  C215  1  0.45822963  0.35886480  0.66595070  1  0.984297  0  0.163506  0.19805  0  3.934307  0
N  N216  1  0.99301760  0.04865457  0.67503940  1  -1.206427  0  -0.436596  -0.448459  0  3.535542  0
N  N217  1  0.00697869  0.45134810  0.17503777  1  -1.206418  0  -0.436586  -0.448496  0  3.535296  0
N  N218  1  0.49301999  0.95134924  0.82496354  1  -1.206278  0  -0.436655  -0.448624  0  3.535462  0
N  N219  1  0.50697972  0.54865662  0.32496018  1  -1.206857  0  -0.436546  -0.448542  0  3.53526  0
N  N220  1  0.00698040  0.95134094  0.32496025  1  -1.206481  0  -0.436496  -0.448484  0  3.535529  0
N  N221  1  0.99302007  0.54865198  0.82496060  1  -1.206489  0  -0.436559  -0.448491  0  3.535281  0
N  N222  1  0.50697421  0.04865388  0.17503898  1  -1.206298  0  -0.43661  -0.44858  0  3.535461  0
N  N223  1  0.49302738  0.45134117  0.67503787  1  -1.206968  0  -0.436605  -0.448531  0  3.535577  0
N  N224  1  0.29011072  0.27684228  0.78315970  1  -1.271243  0  -0.352705  -0.200051  0  3.610265  0
N  N225  1  0.70989474  0.22316276  0.28315816  1  -1.271184  0  -0.352654  -0.199971  0  3.610404  0
N  N226  1  0.79010980  0.72315903  0.71683868  1  -1.271379  0  -0.352682  -0.199882  0  3.610442  0
N  N227  1  0.20989136  0.77684140  0.21683860  1  -1.271288  0  -0.352766  -0.200115  0  3.610474  0
N  N228  1  0.70989259  0.72316693  0.21684250  1  -1.271526  0  -0.352632  -0.199876  0  3.610656  0
N  N229  1  0.29011388  0.77684265  0.71683926  1  -1.271263  0  -0.352765  -0.200039  0  3.610082  0
N  N230  1  0.20989350  0.27683952  0.28315873  1  -1.271208  0  -0.352683  -0.200087  0  3.610359  0
N  N231  1  0.79010892  0.22315715  0.78315977  1  -1.271274  0  -0.352656  -0.199966  0  3.610108  0
N  N232  1  0.30493690  0.41223577  0.47210565  1  -1.225232  0  -0.416755  -0.451958  0  3.504211  0
N  N233  1  0.69506204  0.08776506  0.97210726  1  -1.225074  0  -0.416715  -0.451895  0  3.504125  0
N  N234  1  0.80494186  0.58776321  0.02789484  1  -1.22509  0  -0.416706  -0.451886  0  3.504195  0
N  N235  1  0.19505824  0.91223763  0.52788868  1  -1.224948  0  -0.416794  -0.451906  0  3.504217  0
N  N236  1  0.69505655  0.58775517  0.52789687  1  -1.225185  0  -0.416725  -0.451861  0  3.504565  0
N  N237  1  0.30493900  0.91224186  0.02789750  1  -1.225139  0  -0.416773  -0.452016  0  3.504223  0
N  N238  1  0.19505539  0.41223077  0.97210864  1  -1.225404  0  -0.416838  -0.45196  0  3.504111  0
N  N239  1  0.80493901  0.08776549  0.47210650  1  -1.225051  0  -0.416718  -0.451847  0  3.504204  0
N  N240  1  0.40026550  0.15199607  0.77586176  1  -1.222246  0  -0.420637  -0.453053  0  3.529727  0
N  N241  1  0.59974000  0.34801283  0.27586180  1  -1.222198  0  -0.420741  -0.453174  0  3.529638  0
N  N242  1  0.90026904  0.84800225  0.72413650  1  -1.222024  0  -0.420654  -0.453068  0  3.529537  0
N  N243  1  0.09973889  0.65199662  0.22413604  1  -1.222333  0  -0.420689  -0.453103  0  3.529644  0
N  N244  1  0.59973705  0.84801086  0.22413597  1  -1.222146  0  -0.420681  -0.453153  0  3.529418  0
N  N245  1  0.40026558  0.65199638  0.72413593  1  -1.222434  0  -0.42059  -0.453073  0  3.529842  0
N  N246  1  0.09973730  0.15199173  0.27586443  1  -1.22232  0  -0.420683  -0.453166  0  3.529549  0
N  N247  1  0.90027351  0.34800193  0.77586425  1  -1.221942  0  -0.420652  -0.453098  0  3.529838  0
N  N248  1  0.20014348  0.51317864  0.50692801  1  -1.276502  0  -0.360977  -0.204166  0  3.623556  0
N  N249  1  0.79985220  0.98682157  0.00692927  1  -1.276088  0  -0.361015  -0.204221  0  3.623321  0
N  N250  1  0.70014686  0.48681565  0.99307176  1  -1.27607  0  -0.361002  -0.204325  0  3.623565  0
N  N251  1  0.29985649  0.01318353  0.49306899  1  -1.276184  0  -0.360976  -0.204248  0  3.623374  0
N  N252  1  0.79985149  0.48681002  0.49307100  1  -1.276407  0  -0.36099  -0.204333  0  3.623831  0
N  N253  1  0.20014656  0.01318840  0.99307453  1  -1.276692  0  -0.360972  -0.204332  0  3.623487  0
N  N254  1  0.29985417  0.51317910  0.00692853  1  -1.276081  0  -0.361046  -0.204225  0  3.6234  0
N  N255  1  0.70014378  0.98681654  0.50692875  1  -1.276195  0  -0.360917  -0.204091  0  3.623716  0
N  N256  1  0.94806598  0.15139488  0.62316859  1  -1.270481  0  -0.358627  -0.218496  0  3.643993  0
N  N257  1  0.05193292  0.34860201  0.12317180  1  -1.270647  0  -0.358793  -0.218654  0  3.644067  0
N  N258  1  0.44807400  0.84860008  0.87683090  1  -1.269979  0  -0.358744  -0.218654  0  3.643714  0
N  N259  1  0.55192689  0.65140013  0.37682833  1  -1.270177  0  -0.358666  -0.218702  0  3.643726  0
N  N260  1  0.05193430  0.84859986  0.37682819  1  -1.270557  0  -0.35883  -0.218719  0  3.644141  0
N  N261  1  0.94806357  0.65139806  0.87682881  1  -1.270499  0  -0.358702  -0.218612  0  3.643618  0
N  N262  1  0.55193082  0.15139543  0.12317194  1  -1.270865  0  -0.358792  -0.218673  0  3.643911  0
N  N263  1  0.44806883  0.34860528  0.62316940  1  -1.271038  0  -0.358678  -0.218599  0  3.644094  0
O  O264  1  0.98310203  0.96673464  0.54079438  1  -1.17593  0  -0.383024  -0.642007  0  2.464867  0
O  O265  1  0.01689874  0.53325927  0.04079638  1  -1.175803  0  -0.383026  -0.64203  0  2.464831  0
O  O266  1  0.48310792  0.03325477  0.95920762  1  -1.17581  0  -0.382965  -0.641953  0  2.464766  0
O  O267  1  0.51689261  0.46674081  0.45920507  1  -1.175852  0  -0.382916  -0.641895  0  2.464963  0
O  O268  1  0.01689142  0.03325097  0.45920335  1  -1.175684  0  -0.382986  -0.642095  0  2.465061  0
O  O269  1  0.98310532  0.46675374  0.95920423  1  -1.17566  0  -0.382924  -0.642013  0  2.464974  0
O  O270  1  0.51689690  0.96674378  0.04079650  1  -1.175752  0  -0.383008  -0.64217  0  2.464921  0
O  O271  1  0.48309932  0.53325850  0.54079458  1  -1.175921  0  -0.382965  -0.641837  0  2.465099  0
O  O272  1  0.99319840  0.33448679  0.51206510  1  -1.20023  0  -0.416766  -0.683727  0  2.340482  0
O  O273  1  0.00679893  0.16551460  0.01206601  1  -1.200214  0  -0.41678  -0.68372  0  2.340438  0
O  O274  1  0.49320158  0.66551169  0.98794039  1  -1.200314  0  -0.416698  -0.683747  0  2.340747  0
O  O275  1  0.50680012  0.83448631  0.48793481  1  -1.200154  0  -0.416762  -0.683766  0  2.340416  0
O  O276  1  0.00679126  0.66551024  0.48793901  1  -1.200126  0  -0.41679  -0.683765  0  2.340499  0
O  O277  1  0.99320513  0.83449004  0.98793874  1  -1.200209  0  -0.416668  -0.683607  0  2.340739  0
O  O278  1  0.50680324  0.33449143  0.01206564  1  -1.200221  0  -0.416801  -0.683715  0  2.340375  0
O  O279  1  0.49320318  0.16551300  0.51206037  1  -1.200262  0  -0.416715  -0.683716  0  2.340583  0
O  O280  1  0.95644798  0.13727425  0.53739914  1  -1.192259  0  -0.390444  -0.659188  0  2.267205  0
O  O281  1  0.04354464  0.36271861  0.03740075  1  -1.19236  0  -0.390338  -0.658977  0  2.26728  0
O  O282  1  0.45645385  0.86271838  0.96260129  1  -1.192378  0  -0.390368  -0.659054  0  2.267032  0
O  O283  1  0.54355332  0.63728054  0.46259971  1  -1.192283  0  -0.390428  -0.659124  0  2.267139  0
O  O284  1  0.04354623  0.86270984  0.46259700  1  -1.192393  0  -0.390375  -0.659082  0  2.266963  0
O  O285  1  0.95644805  0.63728527  0.96259858  1  -1.192362  0  -0.390426  -0.659116  0  2.267043  0
O  O286  1  0.54355249  0.13728170  0.03740091  1  -1.19227  0  -0.390382  -0.659116  0  2.267  0
O  O287  1  0.45644771  0.36272334  0.53740090  1  -1.192263  0  -0.39039  -0.659101  0  2.267299  0
O  O288  1  0.10535675  0.30028798  0.73640603  1  -1.203041  0  -0.411904  -0.691316  0  2.279683  0
O  O289  1  0.89464901  0.19971354  0.23640494  1  -1.203081  0  -0.411925  -0.691275  0  2.279714  0
O  O290  1  0.60535720  0.69971377  0.76359768  1  -1.202769  0  -0.411918  -0.691245  0  2.279706  0
O  O291  1  0.39464669  0.80028561  0.26359577  1  -1.202907  0  -0.411895  -0.691233  0  2.279692  0
O  O292  1  0.89464429  0.69971514  0.26359458  1  -1.203214  0  -0.41185  -0.691203  0  2.279657  0
O  O293  1  0.10535430  0.80028881  0.76359471  1  -1.203014  0  -0.41193  -0.691216  0  2.279716  0
O  O294  1  0.39464611  0.30028859  0.23640580  1  -1.203001  0  -0.411896  -0.69127  0  2.279804  0
O  O295  1  0.60535889  0.19971446  0.73640612  1  -1.202998  0  -0.411882  -0.691198  0  2.279715  0
O  O296  1  0.22563961  0.97882860  0.72601388  1  -1.208188  0  -0.386638  -0.650192  0  2.316582  0
O  O297  1  0.77437287  0.52118244  0.22601408  1  -1.208631  0  -0.386662  -0.650229  0  2.316341  0
O  O298  1  0.72563145  0.02117466  0.77398586  1  -1.208266  0  -0.386706  -0.650182  0  2.316313  0
O  O299  1  0.27436875  0.47883044  0.27398868  1  -1.20837  0  -0.386676  -0.650179  0  2.316498  0
O  O300  1  0.77437128  0.02117833  0.27398545  1  -1.208445  0  -0.386662  -0.650274  0  2.316282  0
O  O301  1  0.22563726  0.47882753  0.77398462  1  -1.208172  0  -0.386628  -0.65021  0  2.316303  0
O  O302  1  0.27437261  0.97882465  0.22601571  1  -1.208374  0  -0.386662  -0.65016  0  2.316353  0
O  O303  1  0.72563986  0.52117649  0.72601863  1  -1.208164  0  -0.386608  -0.650093  0  2.316419  0
O  O304  1  0.06068372  0.83733532  0.60689364  1  -1.196114  0  -0.376843  -0.639568  0  2.317653  0
O  O305  1  0.93931511  0.66266428  0.10689382  1  -1.196029  0  -0.376899  -0.639647  0  2.317686  0
O  O306  1  0.56066935  0.16266901  0.89310660  1  -1.196026  0  -0.376838  -0.639464  0  2.317558  0
O  O307  1  0.43932630  0.33733231  0.39310236  1  -1.196346  0  -0.376843  -0.639456  0  2.317936  0
O  O308  1  0.93932186  0.16266704  0.39310377  1  -1.195945  0  -0.376859  -0.639586  0  2.317634  0
O  O309  1  0.06067303  0.33733656  0.89310391  1  -1.196323  0  -0.376853  -0.639502  0  2.317736  0
O  O310  1  0.43931576  0.83733183  0.10689401  1  -1.195956  0  -0.37689  -0.639581  0  2.3176  0
O  O311  1  0.56067170  0.66266472  0.60689729  1  -1.19626  0  -0.376827  -0.639432  0  2.317676  0
O  O312  1  0.08323342  0.86865003  0.67644193  1  -1.181952  0  -0.406921  -0.654143  0  2.275426  0
O  O313  1  0.91677330  0.63135522  0.17644057  1  -1.181859  0  -0.406919  -0.654114  0  2.275466  0
O  O314  1  0.58322652  0.13135339  0.82356020  1  -1.181824  0  -0.406937  -0.654111  0  2.275514  0
O  O315  1  0.41677413  0.36863923  0.32355947  1  -1.181935  0  -0.406852  -0.653991  0  2.275505  0
O  O316  1  0.91676837  0.13135080  0.32355931  1  -1.181921  0  -0.406963  -0.65419  0  2.275457  0
O  O317  1  0.08323228  0.36865247  0.82356259  1  -1.18215  0  -0.406902  -0.654091  0  2.275638  0
O  O318  1  0.41676617  0.86864745  0.17644583  1  -1.182166  0  -0.406907  -0.654143  0  2.275372  0
O  O319  1  0.58323297  0.63134791  0.67644242  1  -1.182003  0  -0.406867  -0.654102  0  2.275659  0
O  O320  1  0.13697648  0.19896924  0.46773571  1  -1.216103  0  -0.399949  -0.650445  0  2.33273  0
O  O321  1  0.86301869  0.30102401  0.96773179  1  -1.215916  0  -0.399869  -0.650388  0  2.332544  0
O  O322  1  0.63697777  0.80102246  0.03227135  1  -1.215932  0  -0.399991  -0.650382  0  2.332464  0
O  O323  1  0.36301851  0.69897303  0.53225885  1  -1.216132  0  -0.399974  -0.650474  0  2.332628  0
O  O324  1  0.86302606  0.80101790  0.53227288  1  -1.215968  0  -0.399961  -0.650338  0  2.332655  0
O  O325  1  0.13697931  0.69898444  0.03226275  1  -1.216088  0  -0.399951  -0.650407  0  2.332776  0
O  O326  1  0.36301947  0.19896772  0.96773213  1  -1.216083  0  -0.399908  -0.650426  0  2.332781  0
O  O327  1  0.63697116  0.30102705  0.46773090  1  -1.216206  0  -0.399912  -0.650336  0  2.332607  0
O  O328  1  0.30571388  0.21242803  0.46195853  1  -1.188033  0  -0.389314  -0.662214  0  2.270812  0
O  O329  1  0.69428361  0.28756753  0.96195961  1  -1.188084  0  -0.389299  -0.662187  0  2.271014  0
O  O330  1  0.80571446  0.78756714  0.03803589  1  -1.188307  0  -0.389279  -0.662151  0  2.27089  0
O  O331  1  0.19427875  0.71243060  0.53803123  1  -1.187868  0  -0.389272  -0.662242  0  2.270692  0
O  O332  1  0.69428184  0.78755530  0.53804080  1  -1.188258  0  -0.389252  -0.662053  0  2.270772  0
O  O333  1  0.30571288  0.71244015  0.03803653  1  -1.187645  0  -0.3892  -0.662016  0  2.27094  0
O  O334  1  0.19428354  0.21242685  0.96196057  1  -1.188144  0  -0.389329  -0.662261  0  2.27074  0
O  O335  1  0.80571167  0.28756263  0.46196140  1  -1.18808  0  -0.389217  -0.662035  0  2.270785  0
O  O336  1  0.39541941  0.98248443  0.73019147  1  -1.177303  0  -0.385421  -0.644933  0  2.233366  0
O  O337  1  0.60458394  0.51751668  0.23019090  1  -1.177358  0  -0.385427  -0.644879  0  2.233469  0
O  O338  1  0.89542192  0.01751468  0.76980712  1  -1.17738  0  -0.385359  -0.644783  0  2.233463  0
O  O339  1  0.10458665  0.48248207  0.26980821  1  -1.177242  0  -0.385452  -0.644935  0  2.23322  0
O  O340  1  0.60458011  0.01752250  0.26980818  1  -1.17682  0  -0.385392  -0.644859  0  2.23314  0
O  O341  1  0.39542240  0.48248263  0.76980683  1  -1.177395  0  -0.385442  -0.644967  0  2.23316  0
O  O342  1  0.10458366  0.98248539  0.23019381  1  -1.177233  0  -0.385401  -0.644838  0  2.233332  0
O  O343  1  0.89542196  0.51751800  0.73019176  1  -1.177481  0  -0.385449  -0.644949  0  2.233293  0
O  O344  1  0.07459307  0.13470791  0.74912783  1  -1.18964  0  -0.3808  -0.647059  0  2.335261  0
O  O345  1  0.92540957  0.36528820  0.24912812  1  -1.189667  0  -0.380712  -0.646989  0  2.335385  0
O  O346  1  0.57459634  0.86529175  0.75087240  1  -1.189643  0  -0.380725  -0.646979  0  2.335311  0
O  O347  1  0.42540764  0.63470923  0.25087000  1  -1.189627  0  -0.380719  -0.646956  0  2.335268  0
O  O348  1  0.92541175  0.86529292  0.25087150  1  -1.18981  0  -0.380791  -0.647089  0  2.335246  0
O  O349  1  0.07459677  0.63471035  0.75087153  1  -1.189516  0  -0.380725  -0.646925  0  2.335318  0
O  O350  1  0.42540621  0.13471137  0.24912885  1  -1.18957  0  -0.380721  -0.646916  0  2.335347  0
O  O351  1  0.57460022  0.36529008  0.74912710  1  -1.189683  0  -0.380691  -0.646876  0  2.335502  0
O  O352  1  0.03211793  0.45977261  0.55817015  1  -1.207532  0  -0.352198  -0.598824  0  2.122079  0
O  O353  1  0.96787456  0.04023001  0.05816883  1  -1.208127  0  -0.352159  -0.598738  0  2.122222  0
O  O354  1  0.53212357  0.54022428  0.94183077  1  -1.207802  0  -0.352226  -0.598817  0  2.122127  0
O  O355  1  0.46788525  0.95977628  0.44182956  1  -1.207832  0  -0.352246  -0.598902  0  2.122101  0
O  O356  1  0.96787022  0.54021604  0.44183301  1  -1.207322  0  -0.352217  -0.598805  0  2.122044  0
O  O357  1  0.03212571  0.95978300  0.94183210  1  -1.207762  0  -0.352256  -0.598835  0  2.122091  0
O  O358  1  0.46788125  0.45977960  0.05816761  1  -1.207732  0  -0.35216  -0.598732  0  2.121936  0
O  O359  1  0.53212337  0.04021694  0.55816786  1  -1.207869  0  -0.352181  -0.598783  0  2.12226  0
O  O360  1  0.08456997  0.96499871  0.81687777  1  -1.219093  0  -0.597736  -0.817872  0  1.981949  0
O  O361  1  0.91543055  0.53500492  0.31687812  1  -1.219039  0  -0.597748  -0.817942  0  1.981879  0
O  O362  1  0.58456989  0.03500927  0.68312084  1  -1.218927  0  -0.597727  -0.817932  0  1.981863  0
O  O363  1  0.41542938  0.46499563  0.18312065  1  -1.218993  0  -0.597716  -0.817876  0  1.981951  0
O  O364  1  0.91543333  0.03500746  0.18311964  1  -1.218882  0  -0.597669  -0.817893  0  1.981903  0
O  O365  1  0.08456746  0.46499364  0.68311994  1  -1.218895  0  -0.597676  -0.817865  0  1.98193  0
O  O366  1  0.41543190  0.96499461  0.31687849  1  -1.219023  0  -0.597709  -0.817886  0  1.981932  0
O  O367  1  0.58456711  0.53500749  0.81687964  1  -1.218914  0  -0.597732  -0.81797  0  1.981849  0
O  O368  1  0.99303566  0.34658144  0.41887195  1  -1.273327  0  -0.629467  -0.843236  0  2.036111  0
O  O369  1  0.00696362  0.15341516  0.91887458  1  -1.273401  0  -0.629512  -0.843267  0  2.03611  0
O  O370  1  0.49302939  0.65341937  0.08113024  1  -1.273265  0  -0.629506  -0.843125  0  2.036293  0
O  O371  1  0.50696126  0.84658267  0.58112572  1  -1.273443  0  -0.62949  -0.843224  0  2.036123  0
O  O372  1  0.00697295  0.65341559  0.58112994  1  -1.273223  0  -0.629565  -0.843187  0  2.03617  0
O  O373  1  0.99303211  0.84658187  0.08112953  1  -1.273253  0  -0.629498  -0.843164  0  2.036173  0
O  O374  1  0.50696103  0.34658984  0.91887228  1  -1.273351  0  -0.629465  -0.843103  0  2.03627  0
O  O375  1  0.49303295  0.15341436  0.41887138  1  -1.273267  0  -0.629557  -0.843317  0  2.036035  0
