# generated using pymatgen
data_CdH10C14(NO)6
_symmetry_space_group_name_H-M   'P 1'
_cell_length_a   8.32658706
_cell_length_b   8.32664337
_cell_length_c   12.21813872
_cell_angle_alpha   99.33317794
_cell_angle_beta   99.33286504
_cell_angle_gamma   91.36065981
_symmetry_Int_Tables_number   1
_chemical_formula_structural   CdH10C14(NO)6
_chemical_formula_sum   'Cd2 H20 C28 N12 O12'
_cell_volume   823.74510143
_cell_formula_units_Z   2
loop_
 _symmetry_equiv_pos_site_id
 _symmetry_equiv_pos_as_xyz
  1  'x, y, z'
loop_
 _atom_site_type_symbol
 _atom_site_label
 _atom_site_symmetry_multiplicity
 _atom_site_fract_x
 _atom_site_fract_y
 _atom_site_fract_z
 _atom_site_occupancy
 _atom_site_hle17_bader_spin_density
 _atom_site_hle17_ddec_charge
 _atom_site_hle17_ddec_spin_density
 _atom_site_hle17_ddec_sum_bond_order
 _atom_site_hle17_magmom
 _atom_site_hse06_10hf_bader_spin_density
 _atom_site_hse06_10hf_ddec_charge
 _atom_site_hse06_10hf_ddec_spin_density
 _atom_site_hse06_10hf_ddec_sum_bond_order
 _atom_site_hse06_10hf_magmom
 _atom_site_hse06_bader_spin_density
 _atom_site_hse06_ddec_charge
 _atom_site_hse06_ddec_spin_density
 _atom_site_hse06_ddec_sum_bond_order
 _atom_site_hse06_magmom
 _atom_site_pbe_bader_spin_density
 _atom_site_pbe_cm5_charge
 _atom_site_pbe_ddec_charge
 _atom_site_pbe_ddec_spin_density
 _atom_site_pbe_ddec_sum_bond_order
 _atom_site_pbe_magmom
Cd  Cd0  1  0.18830168  0.81169717  0.74999967  1  0  1.000278  0  1.785124  0  0  0.783237  0  2.228943  0  0  0.841041  0  2.182186  0  0  0.779814  0.742259  0  2.260847  0
Cd  Cd1  1  0.81169818  0.18830194  0.24999999  1  0  1.000254  0  1.785158  0  0  0.783237  0  2.228961  0  0  0.841041  0  2.182202  0  0  0.779821  0.742261  0  2.260866  0
H  H2  1  0.85244016  0.58757906  0.65310365  1  0  0.096868  0  0.967439  0  0  0.10104  0  1.03647  0  0  0.104304  0  1.033898  0  0  0.12315  0.098603  0  1.038537  0
H  H3  1  0.58757759  0.85244032  0.15310237  1  0  0.096876  0  0.967459  0  0  0.101071  0  1.036452  0  0  0.10433  0  1.033893  0  0  0.123161  0.098633  0  1.038519  0
H  H4  1  0.14755869  0.41242372  0.34689712  1  0  0.096889  0  0.967448  0  0  0.101086  0  1.036438  0  0  0.104354  0  1.033849  0  0  0.12317  0.098647  0  1.038506  0
H  H5  1  0.41242215  0.14755636  0.84689864  1  0  0.096873  0  0.967561  0  0  0.101118  0  1.036493  0  0  0.10439  0  1.033899  0  0  0.123169  0.098679  0  1.038561  0
H  H6  1  0.34265414  0.56852876  0.34552005  1  0  0.1048  0  0.94967  0  0  0.119447  0  1.002747  0  0  0.122007  0  1.002536  0  0  0.110169  0.117607  0  1.003045  0
H  H7  1  0.56852575  0.34265254  0.84552239  1  0  0.10481  0  0.949686  0  0  0.11946  0  1.002761  0  0  0.122021  0  1.002548  0  0  0.110141  0.117617  0  1.003061  0
H  H8  1  0.65734240  0.43147646  0.65447910  1  0  0.104798  0  0.949645  0  0  0.119453  0  1.002716  0  0  0.122015  0  1.002502  0  0  0.110137  0.117611  0  1.003016  0
H  H9  1  0.43147655  0.65734657  0.15447835  1  0  0.104801  0  0.949662  0  0  0.119431  0  1.00276  0  0  0.121993  0  1.002546  0  0  0.110127  0.117589  0  1.003063  0
H  H10  1  0.61434566  0.71932252  0.36898266  1  0  0.103216  0  0.95526  0  0  0.108215  0  1.023167  0  0  0.112312  0  1.019019  0  0  0.105122  0.105148  0  1.026245  0
H  H11  1  0.71931947  0.61434031  0.86898240  1  0  0.103258  0  0.955233  0  0  0.108256  0  1.023134  0  0  0.112353  0  1.018987  0  0  0.105132  0.105187  0  1.026214  0
H  H12  1  0.38565318  0.28068025  0.63101729  1  0  0.103206  0  0.955301  0  0  0.108208  0  1.023201  0  0  0.112305  0  1.019053  0  0  0.105127  0.105141  0  1.026276  0
H  H13  1  0.28068033  0.38565758  0.13101876  1  0  0.103243  0  0.955216  0  0  0.108239  0  1.023128  0  0  0.112338  0  1.018977  0  0  0.105128  0.105172  0  1.026207  0
H  H14  1  0.72858269  0.88517958  0.55650317  1  0  0.130425  0  0.954798  0  0  0.137141  0  1.015967  0  0  0.140956  0  1.014208  0  0  0.111742  0.134318  0  1.017448  0
H  H15  1  0.88517863  0.72858274  0.05650182  1  0  0.13036  0  0.954861  0  0  0.137158  0  1.01594  0  0  0.140973  0  1.014181  0  0  0.111748  0.134333  0  1.017422  0
H  H16  1  0.27141500  0.11482441  0.44349679  1  0  0.130432  0  0.954789  0  0  0.137182  0  1.01592  0  0  0.140999  0  1.014162  0  0  0.111758  0.134358  0  1.017403  0
H  H17  1  0.11482353  0.27141393  0.94349864  1  0  0.130403  0  0.954798  0  0  0.137201  0  1.015875  0  0  0.141018  0  1.014116  0  0  0.11177  0.134376  0  1.017357  0
H  H18  1  0.57004997  0.89096442  0.71395490  1  0  0.082875  0  0.95911  0  0  0.088313  0  1.026547  0  0  0.091091  0  1.023971  0  0  0.112672  0.086226  0  1.028483  0
H  H19  1  0.89096608  0.57004902  0.21395337  1  0  0.082857  0  0.959131  0  0  0.0883  0  1.026554  0  0  0.091076  0  1.023981  0  0  0.11268  0.086214  0  1.028492  0
H  H20  1  0.42994881  0.10903713  0.28604573  1  0  0.082865  0  0.959133  0  0  0.0883  0  1.026562  0  0  0.091077  0  1.023986  0  0  0.112675  0.086214  0  1.028499  0
H  H21  1  0.10903725  0.42994643  0.78604627  1  0  0.082911  0  0.959054  0  0  0.088305  0  1.026548  0  0  0.091082  0  1.023972  0  0  0.112671  0.086217  0  1.028485  0
C  C22  1  0.15150988  0.57120323  0.50904676  1  0  0.154561  0  3.720825  0  0  0.147404  0  3.968548  0  0  0.152414  0  3.985662  0  0  0.136728  0.143692  0  3.957269  0
C  C23  1  0.57120006  0.15150720  0.00904674  1  0  0.154623  0  3.720768  0  0  0.147464  0  3.968482  0  0  0.152474  0  3.985595  0  0  0.136736  0.143752  0  3.957202  0
C  C24  1  0.84848896  0.42879954  0.49095237  1  0  0.154449  0  3.720857  0  0  0.14733  0  3.968535  0  0  0.152339  0  3.985647  0  0  0.136707  0.143619  0  3.957256  0
C  C25  1  0.42880083  0.84848825  0.99095262  1  0  0.154459  0  3.720809  0  0  0.147357  0  3.968476  0  0  0.152366  0  3.985588  0  0  0.136723  0.143645  0  3.957197  0
C  C26  1  0.91708677  0.54532467  0.58406521  1  0  0.091041  0  3.619177  0  0  0.055068  0  3.872964  0  0  0.058404  0  3.888157  0  0  0.072595  0.052653  0  3.863055  0
C  C27  1  0.54532459  0.91708494  0.08406410  1  0  0.090944  0  3.619326  0  0  0.054991  0  3.87306  0  0  0.058324  0  3.888252  0  0  0.072559  0.052575  0  3.863154  0
C  C28  1  0.08291201  0.45467689  0.41593460  1  0  0.090938  0  3.61923  0  0  0.05496  0  3.873023  0  0  0.058297  0  3.888217  0  0  0.072549  0.052545  0  3.863117  0
C  C29  1  0.45467508  0.08291052  0.91593596  1  0  0.090955  0  3.619371  0  0  0.054951  0  3.873131  0  0  0.058285  0  3.888327  0  0  0.072582  0.052537  0  3.863222  0
C  C30  1  0.31317748  0.65350575  0.51789759  1  0  0.181015  0  3.77755  0  0  0.176183  0  4.019531  0  0  0.182466  0  4.041064  0  0  0.122107  0.172068  0  4.004975  0
C  C31  1  0.65350556  0.31317537  0.01789814  1  0  0.180824  0  3.777504  0  0  0.176073  0  4.019459  0  0  0.182356  0  4.04099  0  0  0.122109  0.171956  0  4.004906  0
C  C32  1  0.68682021  0.34649824  0.48210156  1  0  0.181025  0  3.777361  0  0  0.176161  0  4.019361  0  0  0.182446  0  4.040891  0  0  0.122098  0.172046  0  4.004807  0
C  C33  1  0.34649648  0.68681886  0.98209959  1  0  0.181096  0  3.777443  0  0  0.176203  0  4.019468  0  0  0.182489  0  4.040996  0  0  0.122122  0.172087  0  4.004913  0
C  C34  1  0.39604976  0.64131502  0.42601359  1  0  -0.136432  0  3.700867  0  0  -0.156532  0  3.946381  0  0  -0.163548  0  3.968698  0  0  -0.07684  -0.152027  0  3.931341  0
C  C35  1  0.64130665  0.39604824  0.92601122  1  0  -0.136351  0  3.700651  0  0  -0.156462  0  3.946135  0  0  -0.16348  0  3.968457  0  0  -0.076774  -0.151956  0  3.931091  0
C  C36  1  0.60394800  0.35869020  0.57398651  1  0  -0.136364  0  3.70071  0  0  -0.156458  0  3.946218  0  0  -0.163472  0  3.96853  0  0  -0.076781  -0.151952  0  3.931174  0
C  C37  1  0.35869200  0.60395087  0.07398830  1  0  -0.136404  0  3.700627  0  0  -0.156473  0  3.946149  0  0  -0.163487  0  3.96846  0  0  -0.076791  -0.151968  0  3.931109  0
C  C38  1  0.54660082  0.72459368  0.43862094  1  0  -0.002797  0  3.717207  0  0  -0.021805  0  3.972212  0  0  -0.019214  0  3.991275  0  0  -0.067491  -0.02316  0  3.959202  0
C  C39  1  0.72459538  0.54660107  0.93862330  1  0  -0.002835  0  3.717132  0  0  -0.021843  0  3.97217  0  0  -0.019253  0  3.991232  0  0  -0.067487  -0.023196  0  3.959155  0
C  C40  1  0.45339802  0.27540909  0.56137983  1  0  -0.002796  0  3.717223  0  0  -0.021809  0  3.972242  0  0  -0.019217  0  3.991308  0  0  -0.067487  -0.023162  0  3.959228  0
C  C41  1  0.27540698  0.45339926  0.06137841  1  0  -0.002835  0  3.717217  0  0  -0.02185  0  3.972248  0  0  -0.01926  0  3.991315  0  0  -0.067494  -0.023205  0  3.959237  0
C  C42  1  0.61135773  0.81746243  0.54277934  1  0  -0.103985  0  3.675634  0  0  -0.118838  0  3.928625  0  0  -0.12604  0  3.950937  0  0  -0.076688  -0.114247  0  3.913748  0
C  C43  1  0.81746377  0.61135196  0.04277831  1  0  -0.10398  0  3.675736  0  0  -0.118904  0  3.928716  0  0  -0.126105  0  3.951025  0  0  -0.076716  -0.114314  0  3.913836  0
C  C44  1  0.38864118  0.18254156  0.45721994  1  0  -0.103989  0  3.675645  0  0  -0.118895  0  3.928657  0  0  -0.126101  0  3.950969  0  0  -0.0767  -0.114304  0  3.91378  0
C  C45  1  0.18253840  0.38864471  0.95722215  1  0  -0.104038  0  3.675748  0  0  -0.118949  0  3.928731  0  0  -0.126155  0  3.951047  0  0  -0.076743  -0.114358  0  3.913851  0
C  C46  1  0.52215718  0.82255257  0.63050972  1  0  0.142033  0  3.689564  0  0  0.112359  0  3.943885  0  0  0.11906  0  3.961889  0  0  0.050095  0.107999  0  3.931705  0
C  C47  1  0.82255277  0.52215471  0.13051036  1  0  0.141979  0  3.689401  0  0  0.112343  0  3.943776  0  0  0.119045  0  3.961777  0  0  0.050022  0.107983  0  3.931598  0
C  C48  1  0.47784166  0.17745020  0.36949023  1  0  0.142002  0  3.689742  0  0  0.112353  0  3.944053  0  0  0.119055  0  3.962058  0  0  0.050061  0.107993  0  3.931874  0
C  C49  1  0.17744927  0.47783953  0.86948900  1  0  0.142115  0  3.689376  0  0  0.112456  0  3.943733  0  0  0.119158  0  3.961737  0  0  0.050141  0.108096  0  3.931551  0
N  N50  1  0.06584504  0.61308086  0.59269043  1  0  -0.271757  0  3.209381  0  0  -0.207293  0  3.467233  0  0  -0.221592  0  3.483276  0  0  -0.29697  -0.197394  0  3.45636  0
N  N51  1  0.61307888  0.06584252  0.09269110  1  0  -0.2717  0  3.209335  0  0  -0.207266  0  3.467214  0  0  -0.221563  0  3.483259  0  0  -0.296959  -0.197368  0  3.456345  0
N  N52  1  0.93415508  0.38692313  0.40730980  1  0  -0.271702  0  3.209406  0  0  -0.207265  0  3.467283  0  0  -0.221566  0  3.483332  0  0  -0.296971  -0.197366  0  3.456414  0
N  N53  1  0.38692329  0.93415415  0.90730854  1  0  -0.271739  0  3.209359  0  0  -0.20731  0  3.467248  0  0  -0.221613  0  3.483304  0  0  -0.297018  -0.197411  0  3.456376  0
N  N54  1  0.37640159  0.74355321  0.61845413  1  0  -0.353335  0  3.210303  0  0  -0.286477  0  3.467969  0  0  -0.305637  0  3.486909  0  0  -0.320561  -0.273384  0  3.454833  0
N  N55  1  0.74354897  0.37639644  0.11845057  1  0  -0.353129  0  3.210228  0  0  -0.286402  0  3.467968  0  0  -0.305561  0  3.486906  0  0  -0.320527  -0.27331  0  3.454835  0
N  N56  1  0.62359725  0.25644957  0.38154500  1  0  -0.353312  0  3.21035  0  0  -0.286454  0  3.468014  0  0  -0.305614  0  3.486953  0  0  -0.320541  -0.273362  0  3.454881  0
N  N57  1  0.25645307  0.62359780  0.88154634  1  0  -0.35341  0  3.210327  0  0  -0.28653  0  3.468007  0  0  -0.305689  0  3.486944  0  0  -0.320592  -0.273438  0  3.454872  0
N  N58  1  0.89942992  0.91182609  0.85207533  1  0  0.702195  0  4.139714  0  0  0.733326  0  4.431688  0  0  0.762737  0  4.436566  0  0  0.096737  0.713416  0  4.427903  0
N  N59  1  0.91182648  0.89943197  0.35207549  1  0  0.702182  0  4.139664  0  0  0.73332  0  4.431626  0  0  0.76273  0  4.436505  0  0  0.096717  0.71341  0  4.427837  0
N  N60  1  0.10057000  0.08817425  0.14792529  1  0  0.702189  0  4.139711  0  0  0.733329  0  4.431673  0  0  0.76274  0  4.436552  0  0  0.096722  0.713419  0  4.427889  0
N  N61  1  0.08817352  0.10056958  0.64792609  1  0  0.702168  0  4.139703  0  0  0.733302  0  4.431672  0  0  0.762713  0  4.436552  0  0  0.096688  0.713394  0  4.427881  0
O  O62  1  0.92405793  0.76649899  0.80358929  1  0  -0.517349  0  1.808909  0  0  -0.48775  0  2.040055  0  0  -0.50883  0  2.03316  0  0  -0.217141  -0.472622  0  2.044251  0
O  O63  1  0.76650073  0.92405831  0.30358815  1  0  -0.517314  0  1.808928  0  0  -0.487735  0  2.040082  0  0  -0.508814  0  2.033189  0  0  -0.217115  -0.472606  0  2.044281  0
O  O64  1  0.07594315  0.23350012  0.19641214  1  0  -0.517363  0  1.808926  0  0  -0.487777  0  2.040072  0  0  -0.508857  0  2.033177  0  0  -0.217151  -0.472649  0  2.044269  0
O  O65  1  0.23350041  0.07594202  0.69641342  1  0  -0.517341  0  1.808895  0  0  -0.48777  0  2.040065  0  0  -0.508851  0  2.033172  0  0  -0.217122  -0.472642  0  2.044261  0
O  O66  1  0.01653763  0.01731356  0.87290843  1  0  -0.458026  0  1.78801  0  0  -0.447466  0  2.008975  0  0  -0.463763  0  2.00256  0  0  -0.190576  -0.435956  0  2.013072  0
O  O67  1  0.01731430  0.01653718  0.37290838  1  0  -0.458028  0  1.788053  0  0  -0.447464  0  2.009003  0  0  -0.463761  0  2.002589  0  0  -0.190578  -0.435954  0  2.013105  0
O  O68  1  0.98346352  0.98268677  0.12709150  1  0  -0.457993  0  1.788021  0  0  -0.447446  0  2.008967  0  0  -0.463741  0  2.00255  0  0  -0.190547  -0.435934  0  2.013061  0
O  O69  1  0.98268563  0.98346315  0.62709224  1  0  -0.458026  0  1.788056  0  0  -0.447462  0  2.009014  0  0  -0.463758  0  2.002597  0  0  -0.190567  -0.43595  0  2.013107  0
O  O70  1  0.76201335  0.94287696  0.87612628  1  0  -0.445431  0  1.781666  0  0  -0.443919  0  2.000181  0  0  -0.457616  0  1.99577  0  0  -0.184749  -0.434031  0  2.002974  0
O  O71  1  0.94287757  0.76201658  0.37612623  1  0  -0.44546  0  1.781572  0  0  -0.443926  0  2.00007  0  0  -0.457622  0  1.995657  0  0  -0.184741  -0.43404  0  2.002873  0
O  O72  1  0.23798658  0.05712337  0.12387352  1  0  -0.445439  0  1.781656  0  0  -0.443915  0  2.000169  0  0  -0.457614  0  1.995761  0  0  -0.184748  -0.434025  0  2.00296  0
O  O73  1  0.05712364  0.23798497  0.62387467  1  0  -0.445429  0  1.781648  0  0  -0.443888  0  2.000147  0  0  -0.457586  0  1.995736  0  0  -0.18472  -0.434001  0  2.002942  0
