# generated using pymatgen
data_HgH14C10(SCl)2
_symmetry_space_group_name_H-M   'P 1'
_cell_length_a   7.58429561
_cell_length_b   8.68764004
_cell_length_c   11.38712091
_cell_angle_alpha   83.08096230
_cell_angle_beta   76.20980184
_cell_angle_gamma   63.61997444
_symmetry_Int_Tables_number   1
_chemical_formula_structural   HgH14C10(SCl)2
_chemical_formula_sum   'Hg2 H28 C20 S4 Cl4'
_cell_volume   652.69630423
_cell_formula_units_Z   2
loop_
 _symmetry_equiv_pos_site_id
 _symmetry_equiv_pos_as_xyz
  1  'x, y, z'
loop_
 _atom_site_type_symbol
 _atom_site_label
 _atom_site_symmetry_multiplicity
 _atom_site_fract_x
 _atom_site_fract_y
 _atom_site_fract_z
 _atom_site_occupancy
 _atom_site_hle17_bader_spin_density
 _atom_site_hle17_ddec_charge
 _atom_site_hle17_ddec_spin_density
 _atom_site_hle17_ddec_sum_bond_order
 _atom_site_hle17_magmom
 _atom_site_hse06_10hf_bader_spin_density
 _atom_site_hse06_10hf_ddec_charge
 _atom_site_hse06_10hf_ddec_spin_density
 _atom_site_hse06_10hf_ddec_sum_bond_order
 _atom_site_hse06_10hf_magmom
 _atom_site_hse06_bader_spin_density
 _atom_site_hse06_ddec_charge
 _atom_site_hse06_ddec_spin_density
 _atom_site_hse06_ddec_sum_bond_order
 _atom_site_hse06_magmom
 _atom_site_pbe_bader_spin_density
 _atom_site_pbe_cm5_charge
 _atom_site_pbe_ddec_charge
 _atom_site_pbe_ddec_spin_density
 _atom_site_pbe_ddec_sum_bond_order
 _atom_site_pbe_magmom
Hg  Hg0  1  0.98215518  0.78605073  0.92937703  1  0  0.56431  0  2.203732  0  0  0.426409  0  2.709602  0  0  0.46679  0  2.681556  0  0  0.427366  0.398763  0  2.728481  0
Hg  Hg1  1  0.01784494  0.21394708  0.07062100  1  0  0.564336  0  2.203705  0  0  0.426424  0  2.7096  0  0  0.466806  0  2.681555  0  0  0.427356  0.398778  0  2.728478  0
H  H2  1  0.55285994  0.39392875  0.82050311  1  0  0.121494  0  0.955646  0  0  0.132689  0  1.02221  0  0  0.134282  0  1.021844  0  0  0.088069  0.131386  0  1.022806  0
H  H3  1  0.44713408  0.60607038  0.17949751  1  0  0.121564  0  0.955615  0  0  0.132724  0  1.022218  0  0  0.134317  0  1.021852  0  0  0.088067  0.131421  0  1.022815  0
H  H4  1  0.38265152  0.54584388  0.73278077  1  0  0.095904  0  0.964881  0  0  0.109256  0  1.033408  0  0  0.109491  0  1.034743  0  0  0.090247  0.108853  0  1.032916  0
H  H5  1  0.61734621  0.45416418  0.26721846  1  0  0.095921  0  0.964942  0  0  0.109256  0  1.033463  0  0  0.109498  0  1.034799  0  0  0.090238  0.108851  0  1.032974  0
H  H6  1  0.31485365  0.95745977  0.86306021  1  0  0.106509  0  0.974191  0  0  0.117264  0  1.045648  0  0  0.118139  0  1.046078  0  0  0.085307  0.11655  0  1.045423  0
H  H7  1  0.68513856  0.04254578  0.13693572  1  0  0.1065  0  0.974289  0  0  0.117292  0  1.04571  0  0  0.118169  0  1.046145  0  0  0.085305  0.116577  0  1.045483  0
H  H8  1  0.54319724  0.82989036  0.91344647  1  0  0.104958  0  0.966581  0  0  0.116112  0  1.03515  0  0  0.117106  0  1.035259  0  0  0.084546  0.115222  0  1.035332  0
H  H9  1  0.45679841  0.17011644  0.08655233  1  0  0.104968  0  0.966431  0  0  0.11611  0  1.035027  0  0  0.117105  0  1.035133  0  0  0.084531  0.115219  0  1.03521  0
H  H10  1  0.69493630  0.95801168  0.72547877  1  0  0.109381  0  0.953461  0  0  0.120958  0  1.020773  0  0  0.122586  0  1.019911  0  0  0.091552  0.119756  0  1.021472  0
H  H11  1  0.30506845  0.04198225  0.27452239  1  0  0.109416  0  0.953401  0  0  0.120992  0  1.020711  0  0  0.122622  0  1.019846  0  0  0.091573  0.11979  0  1.02141  0
H  H12  1  0.76165787  0.85169511  0.58539467  1  0  0.102487  0  0.931813  0  0  0.121649  0  0.984527  0  0  0.122417  0  0.985076  0  0  0.100943  0.120997  0  0.984282  0
H  H13  1  0.23835251  0.14830390  0.41460252  1  0  0.10252  0  0.931809  0  0  0.121683  0  0.984513  0  0  0.122452  0  0.985059  0  0  0.100955  0.121032  0  0.984268  0
H  H14  1  0.93615403  0.39001757  0.76450100  1  0  0.118345  0  0.941029  0  0  0.132449  0  1.001575  0  0  0.133886  0  1.001245  0  0  0.093167  0.131455  0  1.001829  0
H  H15  1  0.06384191  0.60997770  0.23550054  1  0  0.118356  0  0.941015  0  0  0.132476  0  1.001564  0  0  0.133916  0  1.001231  0  0  0.093176  0.131487  0  1.00182  0
H  H16  1  0.77659585  0.53522439  0.88341402  1  0  0.090832  0  0.98975  0  0  0.098568  0  1.067304  0  0  0.099357  0  1.068005  0  0  0.079567  0.098257  0  1.066611  0
H  H17  1  0.22339342  0.46477603  0.11659425  1  0  0.090871  0  0.989716  0  0  0.098599  0  1.067299  0  0  0.099391  0  1.068  0  0  0.079618  0.09829  0  1.066608  0
H  H18  1  0.88818724  0.50049707  0.55876676  1  0  0.071745  0  0.971769  0  0  0.088065  0  1.038813  0  0  0.089008  0  1.038241  0  0  0.088347  0.087363  0  1.039266  0
H  H19  1  0.11181886  0.49949683  0.44123683  1  0  0.071758  0  0.971836  0  0  0.08804  0  1.038859  0  0  0.088977  0  1.038297  0  0  0.088339  0.08734  0  1.039302  0
H  H20  1  0.74414481  0.38434282  0.59065119  1  0  0.089111  0  0.918351  0  0  0.109296  0  0.9755  0  0  0.109933  0  0.975963  0  0  0.097281  0.108885  0  0.975065  0
H  H21  1  0.25585119  0.61565500  0.40935362  1  0  0.089155  0  0.918321  0  0  0.109275  0  0.975501  0  0  0.109913  0  0.975963  0  0  0.097252  0.108859  0  0.975065  0
H  H22  1  0.65013573  0.57057977  0.41067909  1  0  0.072312  0  0.996486  0  0  0.079259  0  1.070384  0  0  0.081497  0  1.070038  0  0  0.085368  0.077622  0  1.070747  0
H  H23  1  0.34987381  0.42941539  0.58932560  1  0  0.072326  0  0.996373  0  0  0.079287  0  1.070267  0  0  0.081543  0  1.069867  0  0  0.085382  0.07765  0  1.070631  0
H  H24  1  0.37729605  0.85277001  0.45305315  1  0  0.07995  0  0.966936  0  0  0.093982  0  1.02638  0  0  0.096325  0  1.025545  0  0  0.093543  0.092363  0  1.026925  0
H  H25  1  0.62273115  0.14722247  0.54694111  1  0  0.079888  0  0.966702  0  0  0.093927  0  1.026148  0  0  0.096277  0  1.025306  0  0  0.093536  0.092309  0  1.026694  0
H  H26  1  0.36682427  0.00497211  0.62843584  1  0  0.084722  0  0.924793  0  0  0.103996  0  0.983207  0  0  0.104523  0  0.98375  0  0  0.094736  0.103515  0  0.982974  0
H  H27  1  0.63318628  0.99503202  0.37155998  1  0  0.084687  0  0.924742  0  0  0.103972  0  0.98315  0  0  0.104498  0  0.983691  0  0  0.094733  0.103497  0  0.98291  0
H  H28  1  0.25156379  0.87170563  0.69113307  1  0  0.076001  0  0.960273  0  0  0.090307  0  1.030906  0  0  0.090617  0  1.031138  0  0  0.082032  0.089946  0  1.030938  0
H  H29  1  0.74844116  0.12829344  0.30885794  1  0  0.075978  0  0.960242  0  0  0.090327  0  1.030851  0  0  0.090637  0  1.031081  0  0  0.082025  0.089963  0  1.030888  0
C  C30  1  0.65170379  0.58423677  0.71922466  1  0  0.111458  0  3.541213  0  0  0.140863  0  3.75817  0  0  0.13981  0  3.777306  0  0  -0.01216  0.141575  0  3.745068  0
C  C31  1  0.34830042  0.41576101  0.28077273  1  0  0.111524  0  3.5413  0  0  0.140971  0  3.75815  0  0  0.139922  0  3.777286  0  0  -0.01215  0.14168  0  3.745046  0
C  C32  1  0.49067428  0.52785989  0.78812289  1  0  -0.205316  0  3.572767  0  0  -0.24963  0  3.820625  0  0  -0.249131  0  3.83232  0  0  -0.152971  -0.249761  0  3.812735  0
C  C33  1  0.50931918  0.47214307  0.21188011  1  0  -0.205458  0  3.573068  0  0  -0.249717  0  3.820819  0  0  -0.249225  0  3.832517  0  0  -0.152941  -0.249849  0  3.812929  0
C  C34  1  0.44474587  0.83141716  0.85610726  1  0  -0.203756  0  3.544923  0  0  -0.245483  0  3.786934  0  0  -0.245247  0  3.79998  0  0  -0.152347  -0.245491  0  3.778128  0
C  C35  1  0.55525113  0.16858962  0.14389396  1  0  -0.203729  0  3.544971  0  0  -0.245438  0  3.786886  0  0  -0.245206  0  3.799939  0  0  -0.152315  -0.245444  0  3.778075  0
C  C36  1  0.55266916  0.78405367  0.72382524  1  0  0.114063  0  3.512974  0  0  0.141408  0  3.732844  0  0  0.140149  0  3.752381  0  0  -0.00911  0.142311  0  3.719343  0
C  C37  1  0.44733447  0.21594794  0.27617716  1  0  0.11402  0  3.513102  0  0  0.141289  0  3.733084  0  0  0.140027  0  3.752622  0  0  -0.009118  0.142193  0  3.71958  0
C  C38  1  0.72579968  0.83830432  0.68424081  1  0  -0.193266  0  3.554826  0  0  -0.238636  0  3.809107  0  0  -0.238083  0  3.820367  0  0  -0.144265  -0.238839  0  3.801306  0
C  C39  1  0.27420052  0.16169605  0.31575698  1  0  -0.193377  0  3.554833  0  0  -0.238726  0  3.809096  0  0  -0.238174  0  3.820356  0  0  -0.144298  -0.238931  0  3.801301  0
C  C40  1  0.82681246  0.52322426  0.78479458  1  0  -0.203135  0  3.593884  0  0  -0.246248  0  3.841898  0  0  -0.246157  0  3.854259  0  0  -0.154272  -0.246265  0  3.833333  0
C  C41  1  0.17318564  0.47677483  0.21520804  1  0  -0.20316  0  3.59384  0  0  -0.246348  0  3.841953  0  0  -0.246266  0  3.854325  0  0  -0.15435  -0.246385  0  3.833417  0
C  C42  1  0.73202904  0.51577350  0.58943312  1  0  -0.156389  0  3.707652  0  0  -0.200242  0  3.948854  0  0  -0.201504  0  3.963626  0  0  -0.160295  -0.199286  0  3.938723  0
C  C43  1  0.26797578  0.48422297  0.41057044  1  0  -0.156497  0  3.707547  0  0  -0.200171  0  3.948532  0  0  -0.201432  0  3.963303  0  0  -0.160237  -0.199198  0  3.938378  0
C  C44  1  0.61032534  0.62511894  0.49983530  1  0  -0.082937  0  3.763292  0  0  -0.101781  0  4.033283  0  0  -0.103399  0  4.05524  0  0  -0.108484  -0.100645  0  4.01829  0
C  C45  1  0.38968433  0.37485958  0.50016735  1  0  -0.082862  0  3.763536  0  0  -0.101761  0  4.033487  0  0  -0.103373  0  4.055457  0  0  -0.108526  -0.10063  0  4.018492  0
C  C46  1  0.46068616  0.78228512  0.52323318  1  0  -0.093248  0  3.746923  0  0  -0.109081  0  4.008771  0  0  -0.111487  0  4.030272  0  0  -0.110348  -0.107194  0  3.993848  0
C  C47  1  0.53930958  0.21772425  0.47676361  1  0  -0.093211  0  3.74714  0  0  -0.109052  0  4.009044  0  0  -0.111469  0  4.030548  0  0  -0.11032  -0.107167  0  3.994124  0
C  C48  1  0.39776961  0.86818586  0.64218996  1  0  -0.154942  0  3.70557  0  0  -0.195777  0  3.942685  0  0  -0.196569  0  3.957978  0  0  -0.162377  -0.194959  0  3.932003  0
C  C49  1  0.60223614  0.13181704  0.35780321  1  0  -0.15493  0  3.705474  0  0  -0.19577  0  3.942534  0  0  -0.196556  0  3.957823  0  0  -0.162392  -0.194957  0  3.931855  0
S  S50  1  0.36182716  0.66488035  0.92026743  1  0  0.102135  0  2.694064  0  0  0.13589  0  3.0947  0  0  0.12789  0  3.094423  0  0  0.041267  0.140889  0  3.095426  0
S  S51  1  0.63816703  0.33512390  0.07973270  1  0  0.102097  0  2.694124  0  0  0.135813  0  3.094751  0  0  0.12781  0  3.094479  0  0  0.041209  0.14081  0  3.095475  0
S  S52  1  0.95008876  0.66377188  0.72827795  1  0  0.051326  0  2.464847  0  0  0.085796  0  2.828353  0  0  0.078382  0  2.82697  0  0  0.021706  0.091034  0  2.829641  0
S  S53  1  0.04990863  0.33622595  0.27172226  1  0  0.051375  0  2.464742  0  0  0.085866  0  2.828264  0  0  0.078461  0  2.826884  0  0  0.021723  0.091105  0  2.82956  0
Cl  Cl54  1  0.88321072  0.08745710  0.84111753  1  0  -0.511046  0  0.939752  0  0  -0.45386  0  1.204801  0  0  -0.470779  0  1.187984  0  0  -0.304091  -0.441949  0  1.216267  0
Cl  Cl55  1  0.11677198  0.91255105  0.15889372  1  0  -0.511047  0  0.939714  0  0  -0.453871  0  1.204777  0  0  -0.470791  0  1.18796  0  0  -0.304089  -0.441947  0  1.216218  0
Cl  Cl56  1  0.75389465  0.70689644  0.08899273  1  0  -0.463003  0  0.978626  0  0  -0.403479  0  1.251536  0  0  -0.419843  0  1.235733  0  0  -0.274313  -0.392359  0  1.262363  0
Cl  Cl57  1  0.24609938  0.29310269  0.91100613  1  0  -0.462991  0  0.978644  0  0  -0.403468  0  1.251566  0  0  -0.419835  0  1.235766  0  0  -0.274298  -0.392341  0  1.262379  0
