# generated using pymatgen
data_NiH12C18(SN)2
_symmetry_space_group_name_H-M   'P 1'
_cell_length_a   3.64514460
_cell_length_b   12.84965358
_cell_length_c   14.38637476
_cell_angle_alpha   89.99962621
_cell_angle_beta   90.00006632
_cell_angle_gamma   91.84612115
_symmetry_Int_Tables_number   1
_chemical_formula_structural   NiH12C18(SN)2
_chemical_formula_sum   'Ni2 H24 C36 S4 N4'
_cell_volume   673.49142728
_cell_formula_units_Z   2
loop_
 _symmetry_equiv_pos_site_id
 _symmetry_equiv_pos_as_xyz
  1  'x, y, z'
loop_
 _atom_site_type_symbol
 _atom_site_label
 _atom_site_symmetry_multiplicity
 _atom_site_fract_x
 _atom_site_fract_y
 _atom_site_fract_z
 _atom_site_occupancy
 _atom_site_hle17_ddec_charge
 _atom_site_hle17_ddec_spin_density
 _atom_site_hle17_ddec_sum_bond_order
 _atom_site_hle17_magmom
 _atom_site_hse06_10hf_ddec_charge
 _atom_site_hse06_10hf_ddec_spin_density
 _atom_site_hse06_10hf_ddec_sum_bond_order
 _atom_site_hse06_10hf_magmom
 _atom_site_hse06_ddec_charge
 _atom_site_hse06_ddec_spin_density
 _atom_site_hse06_ddec_sum_bond_order
 _atom_site_hse06_magmom
 _atom_site_pbe_cm5_charge
 _atom_site_pbe_ddec_charge
 _atom_site_pbe_ddec_spin_density
 _atom_site_pbe_ddec_sum_bond_order
 _atom_site_pbe_magmom
Ni  Ni0  1  0.50001172  0.00000217  0.00000140  1  0.350249  1.569537  2.547435  1.22  0.400755  1.650492  2.925128  1.36  0.508727  1.766889  2.852919  1.516  0.439752  0.339831  1.549431  2.968942  1.232
Ni  Ni1  1  0.50001307  0.49999684  0.50000501  1  0.350619  1.569589  2.547206  1.22  0.400882  1.650456  2.924959  1.359  0.508954  1.766887  2.852748  1.516  0.439828  0.339985  1.549386  2.968762  1.232
H  H2  1  0.70953098  0.01632474  0.20222464  1  0.071718  0.000833  0.973861  0.001  0.081259  0.00094  1.043154  0.001  0.084258  0.000619  1.039696  0.001  0.105434  0.078982  0.001274  1.045865  0.001
H  H3  1  0.29043755  0.48367036  0.70222626  1  0.071813  0.000832  0.973918  0.001  0.08125  0.000939  1.043262  0.001  0.084247  0.000618  1.039811  0.001  0.105459  0.078971  0.001273  1.045983  0.001
H  H4  1  0.29043880  0.98368209  0.79778539  1  0.071851  0.000833  0.973794  0.001  0.081284  0.000939  1.043137  0.001  0.084283  0.000619  1.039686  0.001  0.105525  0.079005  0.001274  1.045858  0.001
H  H5  1  0.70955159  0.51633806  0.29777960  1  0.071772  0.000833  0.973971  0.001  0.081254  0.000939  1.043218  0.001  0.084252  0.000619  1.039773  0.001  0.10545  0.078971  0.001273  1.045941  0.001
H  H6  1  0.73855249  0.89377930  0.33749596  1  0.093547  0.00055  0.967672  0.001  0.106633  0.000407  1.027214  0.0  0.109442  0.000291  1.027196  0.0  0.10076  0.104666  0.000528  1.027428  0.001
H  H7  1  0.26144955  0.60621566  0.83750043  1  0.093454  0.00055  0.967605  0.001  0.106533  0.000407  1.02717  0.0  0.109336  0.000291  1.027158  0.0  0.100755  0.104567  0.000528  1.027386  0.001
H  H8  1  0.26139771  0.10622361  0.66251198  1  0.093589  0.000549  0.96766  0.001  0.106698  0.000407  1.027167  0.0  0.109469  0.000291  1.02719  0.0  0.100797  0.104732  0.000528  1.027381  0.001
H  H9  1  0.73855887  0.39379357  0.16249986  1  0.093511  0.00055  0.967722  0.001  0.106597  0.000407  1.027269  0.0  0.109397  0.000291  1.027261  0.0  0.100775  0.104629  0.000528  1.027483  0.001
H  H10  1  0.50128833  0.71003446  0.31794395  1  0.094673  0.002393  0.986374  0.0  0.102033  0.002393  1.056518  0.0  0.106731  0.001783  1.052286  0.0  0.093349  0.098584  0.002896  1.05952  0.0
H  H11  1  0.49870222  0.78995674  0.81794808  1  0.094754  0.002394  0.986375  0.0  0.102107  0.002394  1.05651  0.0  0.10681  0.001783  1.052262  0.0  0.093377  0.09863  0.002896  1.05954  0.0
H  H12  1  0.49866477  0.28997002  0.68205356  1  0.094608  0.002394  0.986486  0.0  0.102006  0.002393  1.05659  0.0  0.106694  0.001783  1.052393  0.0  0.093342  0.098564  0.002896  1.059586  0.0
H  H13  1  0.50131139  0.21004938  0.18204944  1  0.094759  0.002394  0.986313  0.0  0.102153  0.002394  1.056391  0.0  0.106841  0.001783  1.052188  0.0  0.093366  0.098684  0.002896  1.059411  0.0
H  H14  1  0.18458503  0.57725355  0.21538062  1  0.086291  -0.001108  0.980466  -0.001  0.097301  0.000278  1.047038  0.0  0.09968  0.000106  1.046472  0.0  0.094867  0.095523  0.000463  1.047538  0.0
H  H15  1  0.81537579  0.92275159  0.71537565  1  0.08631  -0.001108  0.980452  -0.001  0.097352  0.000278  1.047  0.0  0.099718  0.000106  1.046452  0.0  0.094898  0.095574  0.000463  1.047501  0.0
H  H16  1  0.81543369  0.42274868  0.78462038  1  0.086265  -0.001106  0.98054  -0.001  0.09732  0.000278  1.047059  0.0  0.099677  0.000107  1.046513  0.0  0.094907  0.09554  0.000463  1.047563  0.0
H  H17  1  0.18460986  0.07724904  0.28461353  1  0.086331  -0.001108  0.980422  -0.001  0.097394  0.000278  1.046944  0.0  0.099737  0.000106  1.046414  0.0  0.094874  0.095613  0.000463  1.047448  0.0
H  H18  1  0.86848813  0.53443789  0.06573568  1  0.078548  0.000109  0.968163  0.001  0.091956  -0.000129  1.027658  0.0  0.093987  -0.000172  1.027183  0.0  0.095245  0.090525  -8.4e-05  1.028114  0.0
H  H19  1  0.13145336  0.96555042  0.56572906  1  0.078618  0.000109  0.968285  0.001  0.092032  -0.00013  1.027778  0.0  0.094079  -0.000172  1.027265  0.0  0.095267  0.090594  -8.4e-05  1.028255  0.0
H  H20  1  0.13155470  0.46555815  0.93425975  1  0.078604  0.000109  0.968194  0.001  0.092026  -0.000129  1.027652  0.0  0.094065  -0.000172  1.027158  0.0  0.095306  0.090594  -8.4e-05  1.028109  0.0
H  H21  1  0.86850656  0.03443927  0.43425664  1  0.078621  0.000109  0.968042  0.001  0.092062  -0.000129  1.027494  0.0  0.094092  -0.000172  1.027027  0.0  0.095309  0.090632  -8.4e-05  1.027949  0.0
H  H22  1  0.79247690  0.67048577  0.94587711  1  0.091089  -0.001237  0.963067  -0.002  0.103804  0.000221  1.0256  0.0  0.106531  0.000115  1.024547  0.0  0.095762  0.101808  0.000334  1.026529  0.0
H  H23  1  0.20752006  0.82950372  0.44588202  1  0.090946  -0.001237  0.962912  -0.002  0.103669  0.000221  1.025431  0.0  0.106388  0.000115  1.024386  0.0  0.095717  0.101672  0.000334  1.026357  0.0
H  H24  1  0.20753908  0.32951646  0.05411832  1  0.090951  -0.001236  0.963054  -0.002  0.103696  0.000221  1.025571  0.0  0.106425  0.000115  1.024512  0.0  0.095733  0.101697  0.000334  1.0265  0.0
H  H25  1  0.79247813  0.17048447  0.55411480  1  0.091009  -0.001238  0.962977  -0.002  0.103697  0.000221  1.025559  0.0  0.10642  0.000115  1.024506  0.0  0.095755  0.101699  0.000334  1.026487  0.0
C  C26  1  0.58860971  0.93771995  0.19793253  1  0.128349  -0.002215  3.682119  -0.002  0.095694  0.002264  3.943091  0.001  0.109338  0.001183  3.955553  0.001  0.04078  0.086338  0.003497  3.935952  0.002
C  C27  1  0.41134986  0.56227364  0.69793934  1  0.127998  -0.002215  3.682341  -0.002  0.095436  0.002269  3.943183  0.001  0.109086  0.001188  3.955639  0.001  0.040557  0.086076  0.003503  3.936046  0.002
C  C28  1  0.41137112  0.06228768  0.80206569  1  0.127988  -0.002244  3.682113  -0.002  0.095481  0.002259  3.943034  0.001  0.109127  0.001178  3.955483  0.001  0.040522  0.08612  0.003493  3.935895  0.002
C  C29  1  0.58866330  0.43772780  0.30206721  1  0.128118  -0.002216  3.682257  -0.002  0.095587  0.002265  3.943131  0.001  0.109231  0.001184  3.955596  0.001  0.040663  0.086231  0.003498  3.935989  0.002
C  C30  1  0.60762058  0.86818399  0.27305241  1  -0.135152  -0.002585  3.763456  -0.001  -0.149343  -0.000619  4.019192  0.0  -0.158143  -0.001803  4.037423  -0.001  -0.095984  -0.14373  0.000529  4.007629  0.001
C  C31  1  0.39233973  0.63181061  0.77304979  1  -0.134732  -0.002579  3.7634  -0.001  -0.14894  -0.000621  4.019085  0.0  -0.157746  -0.001805  4.037331  -0.001  -0.095844  -0.143322  0.000527  4.00751  0.001
C  C32  1  0.39236589  0.13182520  0.72694649  1  -0.135097  -0.002561  3.763543  -0.001  -0.149312  -0.000616  4.019249  0.0  -0.158083  -0.001797  4.037489  -0.001  -0.095925  -0.143697  0.000532  4.007687  0.001
C  C33  1  0.60766572  0.36819628  0.22694772  1  -0.134912  -0.002588  3.763148  -0.001  -0.149124  -0.000622  4.018849  0.0  -0.157928  -0.001807  4.037096  -0.001  -0.095893  -0.143505  0.000527  4.007272  0.001
C  C34  1  0.47661679  0.76701782  0.26220285  1  -0.042819  0.000668  3.688328  0.001  -0.065859  0.003075  3.934916  0.003  -0.057395  0.002347  3.945345  0.003  -0.069183  -0.072144  0.004018  3.928651  0.004
C  C35  1  0.52332134  0.73297527  0.76220869  1  -0.042903  0.000667  3.688085  0.001  -0.065977  0.003081  3.934694  0.003  -0.057514  0.002351  3.94512  0.003  -0.069207  -0.072245  0.004025  3.928456  0.004
C  C36  1  0.52337420  0.23298126  0.73778841  1  -0.042558  0.000643  3.688176  0.001  -0.065697  0.003072  3.934868  0.003  -0.057235  0.002342  3.945273  0.003  -0.069167  -0.071992  0.004013  3.928603  0.004
C  C37  1  0.47664800  0.26702690  0.23779508  1  -0.042958  0.00067  3.688275  0.001  -0.06605  0.003079  3.934877  0.003  -0.057592  0.00235  3.945296  0.003  -0.069238  -0.072327  0.004022  3.928627  0.004
C  C38  1  0.30504612  0.73739029  0.17753602  1  0.026916  -0.01005  3.797276  -0.008  0.04827  -0.002233  4.017627  -0.002  0.044742  -0.003604  4.041992  -0.003  -0.004171  0.050569  -0.001073  4.001233  -0.002
C  C39  1  0.69493851  0.76260894  0.67753266  1  0.026667  -0.010056  3.797232  -0.008  0.048047  -0.002236  4.01762  -0.002  0.04453  -0.003608  4.041962  -0.003  -0.004278  0.050349  -0.001075  4.001214  -0.002
C  C40  1  0.69495362  0.26261425  0.82246775  1  0.026788  -0.010037  3.796844  -0.008  0.048139  -0.002232  4.017216  -0.002  0.044622  -0.003602  4.041561  -0.003  -0.004153  0.050443  -0.001073  4.000812  -0.002
C  C41  1  0.30505545  0.23739248  0.32246069  1  0.026679  -0.01006  3.797255  -0.008  0.048124  -0.002237  4.01756  -0.002  0.044614  -0.003608  4.04189  -0.003  -0.004221  0.050424  -0.001076  4.001161  -0.002
C  C42  1  0.15893771  0.63562669  0.16110687  1  -0.120624  0.033075  3.750702  0.034  -0.146083  0.018279  4.005935  0.019  -0.1496  0.014519  4.02925  0.016  -0.099318  -0.143108  0.022171  3.98956  0.022
C  C43  1  0.84103819  0.86436875  0.66111614  1  -0.12055  0.033093  3.750426  0.034  -0.146085  0.01829  4.005704  0.019  -0.149609  0.014529  4.029035  0.016  -0.099364  -0.143111  0.022182  3.989331  0.022
C  C44  1  0.84107583  0.36437865  0.83890177  1  -0.120488  0.033036  3.750834  0.034  -0.145992  0.018265  4.006034  0.019  -0.149497  0.014506  4.029369  0.016  -0.099293  -0.143021  0.022156  3.989662  0.022
C  C45  1  0.15895495  0.13562410  0.33888415  1  -0.120527  0.033088  3.750249  0.034  -0.146026  0.018286  4.005427  0.019  -0.14952  0.014525  4.028764  0.016  -0.099278  -0.143056  0.022177  3.989058  0.022
C  C46  1  0.98489096  0.61244361  0.07804711  1  -0.06678  -0.025016  3.812511  -0.019  -0.080272  -0.006443  4.068161  -0.005  -0.081242  -0.008884  4.090523  -0.006  -0.097388  -0.07986  -0.004151  4.052842  -0.004
C  C47  1  0.01509200  0.88754701  0.57804301  1  -0.066832  -0.025024  3.812339  -0.019  -0.080314  -0.006446  4.067977  -0.005  -0.081282  -0.00889  4.090347  -0.006  -0.097328  -0.079903  -0.004153  4.052652  -0.004
C  C48  1  0.01512228  0.38755862  0.92195319  1  -0.066992  -0.024982  3.812597  -0.019  -0.080499  -0.006437  4.068254  -0.005  -0.081468  -0.008874  4.090611  -0.006  -0.097499  -0.080084  -0.004146  4.052936  -0.004
C  C49  1  0.98492843  0.11244433  0.42194894  1  -0.06684  -0.025025  3.812324  -0.019  -0.080355  -0.006446  4.068011  -0.005  -0.08133  -0.008887  4.090371  -0.006  -0.097396  -0.07994  -0.004153  4.052687  -0.004
C  C50  1  0.94386127  0.68922564  0.00933674  1  -0.1099  0.033504  3.73567  0.035  -0.133539  0.018224  3.987346  0.019  -0.137213  0.014783  4.005834  0.016  -0.097869  -0.130683  0.021476  3.974923  0.021
C  C51  1  0.05610181  0.81076390  0.50934629  1  -0.110073  0.03349  3.735877  0.035  -0.133596  0.018219  3.987661  0.019  -0.137269  0.014779  4.006144  0.016  -0.09802  -0.130735  0.021469  3.975228  0.021
C  C52  1  0.05615123  0.31076880  0.99065869  1  -0.109674  0.033483  3.735708  0.035  -0.133317  0.01822  3.987388  0.019  -0.136987  0.014777  4.005873  0.016  -0.097914  -0.130463  0.021471  3.974962  0.021
C  C53  1  0.94391818  0.18922276  0.49065609  1  -0.110034  0.033509  3.735711  0.035  -0.133612  0.018228  3.987484  0.019  -0.137282  0.014786  4.005964  0.016  -0.097985  -0.130756  0.02148  3.975055  0.021
C  C54  1  0.08465656  0.79052095  0.02177390  1  0.035172  -0.03592  3.745999  -0.031  0.05908  -0.011571  3.999229  -0.012  0.068618  -0.01532  4.019036  -0.014  -0.008583  0.051618  -0.007136  3.986768  -0.01
C  C55  1  0.91532018  0.70946696  0.52178058  1  0.035642  -0.035921  3.745981  -0.031  0.059272  -0.011572  3.999602  -0.012  0.068818  -0.015325  4.019405  -0.014  -0.008397  0.051812  -0.007137  3.987135  -0.01
C  C56  1  0.91534808  0.20947737  0.97822362  1  0.035098  -0.035887  3.746414  -0.031  0.058973  -0.011563  3.999638  -0.012  0.06851  -0.015309  4.019443  -0.014  -0.00857  0.051513  -0.007133  3.987178  -0.01
C  C57  1  0.08468394  0.29052591  0.47821902  1  0.035444  -0.035925  3.745825  -0.031  0.059213  -0.011573  3.999265  -0.012  0.068761  -0.015324  4.019063  -0.014  -0.008533  0.05175  -0.007138  3.986806  -0.01
C  C58  1  0.27871583  0.81431842  0.10620998  1  0.149348  0.011376  3.704392  0.014  0.144986  0.006551  3.933931  0.008  0.149212  0.005348  3.957378  0.007  0.107201  0.142136  0.007872  3.919116  0.009
C  C59  1  0.72122694  0.68567972  0.60621470  1  0.14937  0.011385  3.704409  0.014  0.145009  0.006558  3.934038  0.008  0.149237  0.005353  3.957471  0.007  0.10718  0.142163  0.00788  3.919219  0.009
C  C60  1  0.72130534  0.18568070  0.89379241  1  0.149263  0.011365  3.704566  0.013  0.145012  0.006549  3.933944  0.008  0.149237  0.005345  3.957385  0.007  0.107251  0.142161  0.00787  3.919127  0.009
C  C61  1  0.27874752  0.31431856  0.39378976  1  0.149527  0.01138  3.70405  0.014  0.145106  0.006553  3.933687  0.008  0.149321  0.005349  3.957151  0.007  0.107224  0.142256  0.007875  3.918873  0.009
S  S62  1  0.01734244  0.88969689  0.94172254  1  -0.27592  0.167317  2.430189  0.195  -0.326146  0.109428  2.839812  0.131  -0.384634  0.079113  2.842756  0.104  -0.148904  -0.287771  0.1324  2.838002  0.148
S  S63  1  0.98267191  0.61030277  0.44173082  1  -0.276092  0.167288  2.430302  0.195  -0.326113  0.109422  2.840027  0.131  -0.38464  0.079108  2.842995  0.104  -0.148892  -0.287759  0.132393  2.838249  0.148
S  S64  1  0.98265715  0.11030609  0.05827984  1  -0.275977  0.167316  2.430266  0.195  -0.32614  0.109436  2.839936  0.131  -0.384621  0.079121  2.842878  0.104  -0.148898  -0.287747  0.132412  2.838091  0.148
S  S65  1  0.01735400  0.38968857  0.55827365  1  -0.27612  0.16729  2.430313  0.195  -0.326253  0.109422  2.840022  0.131  -0.384776  0.079108  2.842988  0.104  -0.148894  -0.287876  0.132395  2.838205  0.148
N  N66  1  0.43514811  0.91194456  0.11674050  1  -0.279546  0.043542  3.345739  0.062  -0.230171  0.033696  3.616865  0.049  -0.258689  0.026132  3.637044  0.041  -0.331862  -0.213384  0.040281  3.605188  0.055
N  N67  1  0.56485414  0.58804347  0.61674439  1  -0.279694  0.04354  3.345685  0.062  -0.2301  0.033694  3.616451  0.049  -0.258633  0.02613  3.636637  0.041  -0.331822  -0.213316  0.040278  3.604781  0.055
N  N68  1  0.56485386  0.08805454  0.88326119  1  -0.279363  0.043555  3.345466  0.062  -0.230039  0.033698  3.616518  0.049  -0.258565  0.026136  3.636716  0.041  -0.331837  -0.213254  0.040282  3.604848  0.055
N  N69  1  0.43516399  0.41195254  0.38325869  1  -0.279709  0.043539  3.34563  0.062  -0.230228  0.033695  3.616558  0.049  -0.258755  0.02613  3.636736  0.041  -0.331878  -0.213438  0.04028  3.604877  0.055
