# generated using pymatgen
data_CdH16C12(N2O3)2
_symmetry_space_group_name_H-M   'P 1'
_cell_length_a   8.26951599
_cell_length_b   8.86449903
_cell_length_c   11.04391156
_cell_angle_alpha   100.79881219
_cell_angle_beta   90.00068573
_cell_angle_gamma   89.99987752
_symmetry_Int_Tables_number   1
_chemical_formula_structural   CdH16C12(N2O3)2
_chemical_formula_sum   'Cd2 H32 C24 N8 O12'
_cell_volume   795.23856445
_cell_formula_units_Z   2
loop_
 _symmetry_equiv_pos_site_id
 _symmetry_equiv_pos_as_xyz
  1  'x, y, z'
loop_
 _atom_site_type_symbol
 _atom_site_label
 _atom_site_symmetry_multiplicity
 _atom_site_fract_x
 _atom_site_fract_y
 _atom_site_fract_z
 _atom_site_occupancy
 _atom_site_hle17_bader_spin_density
 _atom_site_hle17_ddec_charge
 _atom_site_hle17_ddec_spin_density
 _atom_site_hle17_ddec_sum_bond_order
 _atom_site_hle17_magmom
 _atom_site_hse06_10hf_bader_spin_density
 _atom_site_hse06_10hf_ddec_charge
 _atom_site_hse06_10hf_ddec_spin_density
 _atom_site_hse06_10hf_ddec_sum_bond_order
 _atom_site_hse06_10hf_magmom
 _atom_site_hse06_bader_spin_density
 _atom_site_hse06_ddec_charge
 _atom_site_hse06_ddec_spin_density
 _atom_site_hse06_ddec_sum_bond_order
 _atom_site_hse06_magmom
 _atom_site_pbe_bader_spin_density
 _atom_site_pbe_cm5_charge
 _atom_site_pbe_ddec_charge
 _atom_site_pbe_ddec_spin_density
 _atom_site_pbe_ddec_sum_bond_order
 _atom_site_pbe_magmom
Cd  Cd0  1  0.49999579  0.00000075  0.49999916  1  0  1.151362  0  1.704341  0  0  0.964785  0  2.154212  0  0  1.015082  0  2.104767  0  0  0.779495  0.928688  0  2.188372  0
Cd  Cd1  1  0.00000263  0.49999988  0.99999993  1  0  1.151365  0  1.704372  0  0  0.964786  0  2.154255  0  0  1.015086  0  2.104808  0  0  0.779493  0.928692  0  2.188413  0
H  H2  1  0.33217665  0.64432245  0.39254435  1  0  0.116935  0  0.983997  0  0  0.124439  0  1.048664  0  0  0.127776  0  1.046499  0  0  0.112644  0.122053  0  1.050139  0
H  H3  1  0.83217315  0.85567561  0.10745460  1  0  0.116936  0  0.984029  0  0  0.124426  0  1.048713  0  0  0.127765  0  1.046544  0  0  0.112657  0.122022  0  1.050206  0
H  H4  1  0.66782470  0.35567573  0.60745344  1  0  0.116982  0  0.983994  0  0  0.12447  0  1.048677  0  0  0.127811  0  1.046504  0  0  0.112662  0.12206  0  1.050178  0
H  H5  1  0.16782940  0.14432257  0.89254319  1  0  0.116908  0  0.984079  0  0  0.124407  0  1.048756  0  0  0.127745  0  1.046589  0  0  0.112646  0.122018  0  1.050235  0
H  H6  1  0.40911978  0.86154724  0.76180884  1  0  0.088933  0  0.947208  0  0  0.101826  0  1.006899  0  0  0.104276  0  1.003809  0  0  0.132036  0.09996  0  1.009178  0
H  H7  1  0.90911888  0.63845466  0.73819133  1  0  0.088956  0  0.947177  0  0  0.101822  0  1.006898  0  0  0.104271  0  1.00381  0  0  0.132042  0.099959  0  1.009178  0
H  H8  1  0.59087914  0.13845209  0.23818912  1  0  0.088916  0  0.947212  0  0  0.101809  0  1.006905  0  0  0.104259  0  1.003815  0  0  0.132014  0.099942  0  1.009185  0
H  H9  1  0.09088247  0.36154468  0.26180753  1  0  0.088976  0  0.947199  0  0  0.10178  0  1.006978  0  0  0.104228  0  1.003891  0  0  0.132022  0.099917  0  1.009256  0
H  H10  1  0.17017659  0.36852763  0.62403529  1  0  0.125043  0  0.960137  0  0  0.144662  0  1.020575  0  0  0.146751  0  1.019392  0  0  0.097123  0.143042  0  1.021536  0
H  H11  1  0.67017549  0.13147532  0.87596656  1  0  0.125041  0  0.96014  0  0  0.144661  0  1.020579  0  0  0.146751  0  1.019393  0  0  0.097116  0.143041  0  1.021541  0
H  H12  1  0.82982597  0.63147172  0.37596448  1  0  0.125059  0  0.960142  0  0  0.144685  0  1.020559  0  0  0.146774  0  1.019375  0  0  0.097118  0.143065  0  1.021521  0
H  H13  1  0.32982707  0.86852520  0.12403519  1  0  0.125043  0  0.960182  0  0  0.144656  0  1.020619  0  0  0.146745  0  1.019435  0  0  0.097102  0.143036  0  1.021582  0
H  H14  1  0.28641571  0.32441053  0.48696624  1  0  0.119553  0  0.963248  0  0  0.136102  0  1.03003  0  0  0.137601  0  1.030279  0  0  0.091867  0.13493  0  1.02992  0
H  H15  1  0.78641595  0.17558858  0.01303521  1  0  0.119542  0  0.963262  0  0  0.136095  0  1.030035  0  0  0.137593  0  1.030284  0  0  0.091859  0.134924  0  1.029923  0
H  H16  1  0.71358684  0.67558653  0.51303320  1  0  0.119573  0  0.963258  0  0  0.136117  0  1.03003  0  0  0.137622  0  1.030272  0  0  0.091889  0.134946  0  1.029919  0
H  H17  1  0.21358661  0.82440963  0.98696530  1  0  0.11957  0  0.963236  0  0  0.136128  0  1.029997  0  0  0.137625  0  1.030246  0  0  0.091879  0.134957  0  1.029885  0
H  H18  1  0.09095555  0.40656840  0.48438695  1  0  0.10622  0  0.961771  0  0  0.126007  0  1.025673  0  0  0.126519  0  1.026891  0  0  0.090003  0.125674  0  1.025028  0
H  H19  1  0.59095601  0.09343299  0.01561309  1  0  0.106203  0  0.961781  0  0  0.125996  0  1.025681  0  0  0.126506  0  1.0269  0  0  0.089997  0.125662  0  1.025037  0
H  H20  1  0.90904579  0.59342980  0.51561265  1  0  0.106209  0  0.961796  0  0  0.125995  0  1.025698  0  0  0.126507  0  1.026918  0  0  0.09  0.125661  0  1.025054  0
H  H21  1  0.40904776  0.90656637  0.98438759  1  0  0.106192  0  0.961824  0  0  0.125987  0  1.025717  0  0  0.126496  0  1.026937  0  0  0.089989  0.125653  0  1.025073  0
H  H22  1  0.28146088  0.59596498  0.76514939  1  0  0.308079  0  0.932415  0  0  0.288948  0  0.99441  0  0  0.297341  0  0.987894  0  0  0.30857  0.282999  0  0.999028  0
H  H23  1  0.78145933  0.90403693  0.73485145  1  0  0.308156  0  0.932348  0  0  0.288998  0  0.994376  0  0  0.297394  0  0.987858  0  0  0.308574  0.283043  0  0.998993  0
H  H24  1  0.71854167  0.40403436  0.23484947  1  0  0.308149  0  0.932402  0  0  0.288992  0  0.99444  0  0  0.297391  0  0.987921  0  0  0.308565  0.283034  0  0.999062  0
H  H25  1  0.21853839  0.09596241  0.26514741  1  0  0.308167  0  0.932341  0  0  0.289005  0  0.994369  0  0  0.297406  0  0.987848  0  0  0.308568  0.28305  0  0.998989  0
H  H26  1  0.30443318  0.14431515  0.69891764  1  0  0.408506  0  0.903379  0  0  0.373956  0  0.973979  0  0  0.385306  0  0.957565  0  0  0.282433  0.365938  0  0.985499  0
H  H27  1  0.80443280  0.35569122  0.80108318  1  0  0.408512  0  0.903376  0  0  0.37397  0  0.973963  0  0  0.385322  0  0.957545  0  0  0.282419  0.365952  0  0.985483  0
H  H28  1  0.69556333  0.85568765  0.30108353  1  0  0.408429  0  0.903491  0  0  0.373863  0  0.974119  0  0  0.385216  0  0.957701  0  0  0.282369  0.365846  0  0.98564  0
H  H29  1  0.19556855  0.64431044  0.19891783  1  0  0.408495  0  0.903396  0  0  0.373952  0  0.973984  0  0  0.385301  0  0.95757  0  0  0.282421  0.365934  0  0.985504  0
H  H30  1  0.47358230  0.23643428  0.73161496  1  0  0.419747  0  0.88094  0  0  0.386486  0  0.948192  0  0  0.397436  0  0.932273  0  0  0.287836  0.378855  0  0.959201  0
H  H31  1  0.97358401  0.26356749  0.76838489  1  0  0.419749  0  0.880933  0  0  0.386497  0  0.948182  0  0  0.397446  0  0.932266  0  0  0.287853  0.378865  0  0.959193  0
H  H32  1  0.52641300  0.76356393  0.26838555  1  0  0.419728  0  0.880961  0  0  0.386467  0  0.948224  0  0  0.397417  0  0.932306  0  0  0.287835  0.378835  0  0.959236  0
H  H33  1  0.02641733  0.73643186  0.23161487  1  0  0.419776  0  0.880903  0  0  0.386512  0  0.948156  0  0  0.397464  0  0.932236  0  0  0.287848  0.378881  0  0.959167  0
C  C34  1  0.33041070  0.66188867  0.49232552  1  0  -0.092169  0  3.72296  0  0  -0.131089  0  3.982932  0  0  -0.132411  0  4.005572  0  0  -0.018116  -0.130521  0  3.968071  0
C  C35  1  0.83040927  0.83811171  0.00767556  1  0  -0.092129  0  3.722912  0  0  -0.131017  0  3.982884  0  0  -0.132341  0  4.005521  0  0  -0.018109  -0.130435  0  3.968032  0
C  C36  1  0.66958944  0.33811067  0.50767334  1  0  -0.092237  0  3.722973  0  0  -0.131123  0  3.98294  0  0  -0.132448  0  4.005577  0  0  -0.018125  -0.130534  0  3.968089  0
C  C37  1  0.16959449  0.16188763  0.99232331  1  0  -0.092142  0  3.722985  0  0  -0.131035  0  3.982962  0  0  -0.132359  0  4.005601  0  0  -0.018115  -0.130463  0  3.968095  0
C  C38  1  0.27513248  0.56444903  0.56698543  1  0  0.215249  0  3.743695  0  0  0.219708  0  3.997802  0  0  0.223524  0  4.021446  0  0  0.080728  0.216876  0  3.982296  0
C  C39  1  0.77513040  0.93555059  0.93301502  1  0  0.21533  0  3.743642  0  0  0.219722  0  3.997796  0  0  0.223543  0  4.021442  0  0  0.08075  0.216889  0  3.982287  0
C  C40  1  0.72487008  0.43554802  0.43301310  1  0  0.21538  0  3.7436  0  0  0.219786  0  3.99776  0  0  0.223602  0  4.021406  0  0  0.080736  0.216954  0  3.982249  0
C  C41  1  0.22487336  0.06444876  0.06698475  1  0  0.21537  0  3.743696  0  0  0.219752  0  3.99786  0  0  0.223577  0  4.021507  0  0  0.080742  0.216921  0  3.982352  0
C  C42  1  0.37468675  0.77714334  0.68183205  1  0  0.212585  0  3.697185  0  0  0.149316  0  3.969154  0  0  0.163703  0  3.98187  0  0  0.130868  0.14014  0  3.959996  0
C  C43  1  0.87468694  0.72285971  0.81816798  1  0  0.212568  0  3.697293  0  0  0.1493  0  3.96924  0  0  0.163691  0  3.981958  0  0  0.130826  0.140119  0  3.960086  0
C  C44  1  0.62531218  0.22285600  0.31816591  1  0  0.212582  0  3.697239  0  0  0.149312  0  3.969204  0  0  0.163699  0  3.98192  0  0  0.13087  0.140134  0  3.960046  0
C  C45  1  0.12531562  0.27713962  0.18182998  1  0  0.212623  0  3.697316  0  0  0.14941  0  3.969255  0  0  0.163805  0  3.981973  0  0  0.130907  0.140229  0  3.9601  0
C  C46  1  0.20229745  0.40825599  0.53900041  1  0  -0.356301  0  3.733759  0  0  -0.432625  0  3.964967  0  0  -0.435133  0  3.973854  0  0  -0.240106  -0.430864  0  3.959115  0
C  C47  1  0.70229660  0.09174581  0.96100156  1  0  -0.356286  0  3.733735  0  0  -0.432611  0  3.964956  0  0  -0.435118  0  3.973843  0  0  -0.240094  -0.430851  0  3.959108  0
C  C48  1  0.79770390  0.59174337  0.46100027  1  0  -0.356361  0  3.733779  0  0  -0.432662  0  3.965005  0  0  -0.435177  0  3.973885  0  0  -0.240112  -0.430901  0  3.959155  0
C  C49  1  0.29770596  0.90825241  0.03899986  1  0  -0.356361  0  3.733816  0  0  -0.432676  0  3.965048  0  0  -0.435181  0  3.973936  0  0  -0.240111  -0.430915  0  3.959195  0
C  C50  1  0.11054218  0.01367686  0.45818989  1  0  0.193923  0  3.866245  0  0  0.169692  0  4.148445  0  0  0.182258  0  4.161432  0  0  0.097406  0.161153  0  4.139235  0
C  C51  1  0.61055306  0.48632799  0.04181264  1  0  0.193857  0  3.866089  0  0  0.169643  0  4.148237  0  0  0.18221  0  4.161222  0  0  0.097399  0.161104  0  4.139027  0
C  C52  1  0.88944587  0.98632594  0.54181129  1  0  0.193867  0  3.866118  0  0  0.169681  0  4.148247  0  0  0.182248  0  4.161232  0  0  0.09736  0.161141  0  4.13904  0
C  C53  1  0.38945192  0.51367483  0.95819035  1  0  0.193773  0  3.866296  0  0  0.169569  0  4.148439  0  0  0.182135  0  4.161424  0  0  0.09728  0.161031  0  4.139231  0
C  C54  1  0.04766644  0.05115882  0.58563071  1  0  0.194219  0  3.868403  0  0  0.16968  0  4.148468  0  0  0.181448  0  4.162134  0  0  0.099582  0.161807  0  4.138993  0
C  C55  1  0.54767372  0.44884871  0.91437070  1  0  0.194299  0  3.86822  0  0  0.169789  0  4.148246  0  0  0.181562  0  4.161909  0  0  0.099604  0.161915  0  4.138772  0
C  C56  1  0.95232160  0.94884513  0.41437063  1  0  0.194349  0  3.86818  0  0  0.169799  0  4.148276  0  0  0.181571  0  4.161943  0  0  0.099639  0.161926  0  4.138802  0
C  C57  1  0.45233005  0.55115068  0.08563269  1  0  0.194471  0  3.8681  0  0  0.169918  0  4.148179  0  0  0.181692  0  4.161842  0  0  0.099708  0.162044  0  4.138706  0
N  N58  1  0.39203989  0.79355590  0.56488420  1  0  -0.409044  0  3.306968  0  0  -0.328186  0  3.591956  0  0  -0.350289  0  3.612025  0  0  -0.3674  -0.313098  0  3.577932  0
N  N59  1  0.89203837  0.70644485  0.93511565  1  0  -0.40911  0  3.306996  0  0  -0.328258  0  3.591977  0  0  -0.350361  0  3.612044  0  0  -0.367427  -0.313169  0  3.577947  0
N  N60  1  0.60795904  0.20644343  0.43511376  1  0  -0.409109  0  3.307007  0  0  -0.32825  0  3.59198  0  0  -0.350353  0  3.61205  0  0  -0.367428  -0.313159  0  3.577945  0
N  N61  1  0.10796419  0.29355448  0.06488231  1  0  -0.409083  0  3.307039  0  0  -0.328228  0  3.592004  0  0  -0.350331  0  3.612067  0  0  -0.367418  -0.31314  0  3.57798  0
N  N62  1  0.30433095  0.64039570  0.68615120  1  0  -0.340906  0  3.42439  0  0  -0.276873  0  3.655297  0  0  -0.293276  0  3.668832  0  0  -0.379655  -0.265661  0  3.645912  0
N  N63  1  0.80432834  0.85960965  0.81384944  1  0  -0.341002  0  3.424484  0  0  -0.276883  0  3.655323  0  0  -0.2933  0  3.668865  0  0  -0.37963  -0.265664  0  3.645939  0
N  N64  1  0.69567161  0.35960363  0.31384676  1  0  -0.340952  0  3.424389  0  0  -0.276887  0  3.655295  0  0  -0.293296  0  3.668827  0  0  -0.379637  -0.265668  0  3.645909  0
N  N65  1  0.19567301  0.14039084  0.18614959  1  0  -0.341063  0  3.424498  0  0  -0.27694  0  3.655342  0  0  -0.293367  0  3.668886  0  0  -0.379647  -0.265723  0  3.645957  0
O  O66  1  0.24260992  0.03086359  0.40462453  1  0  -0.52246  0  2.138809  0  0  -0.461875  0  2.381621  0  0  -0.484458  0  2.37605  0  0  -0.306384  -0.445938  0  2.384556  0
O  O67  1  0.74261928  0.46914242  0.09537934  1  0  -0.522428  0  2.138911  0  0  -0.461847  0  2.381705  0  0  -0.484434  0  2.376136  0  0  -0.306333  -0.445908  0  2.384637  0
O  O68  1  0.75737934  0.96913923  0.59537755  1  0  -0.522425  0  2.138834  0  0  -0.461863  0  2.381622  0  0  -0.484446  0  2.376049  0  0  -0.306333  -0.445928  0  2.384558  0
O  O69  1  0.25738691  0.53086040  0.90462365  1  0  -0.522351  0  2.138925  0  0  -0.461783  0  2.381708  0  0  -0.484366  0  2.376137  0  0  -0.3063  -0.445851  0  2.384644  0
O  O70  1  0.10142488  0.11540817  0.68952850  1  0  -0.513468  0  2.114587  0  0  -0.452905  0  2.328825  0  0  -0.474585  0  2.324492  0  0  -0.293589  -0.437642  0  2.331139  0
O  O71  1  0.60143184  0.38460277  0.81046936  1  0  -0.513587  0  2.114573  0  0  -0.453032  0  2.328788  0  0  -0.474724  0  2.324458  0  0  -0.293649  -0.437766  0  2.331098  0
O  O72  1  0.89856679  0.88459235  0.31047324  1  0  -0.513593  0  2.114521  0  0  -0.45301  0  2.328768  0  0  -0.474702  0  2.324441  0  0  -0.293677  -0.437746  0  2.331081  0
O  O73  1  0.39857192  0.61539661  0.18953313  1  0  -0.513628  0  2.114511  0  0  -0.453071  0  2.328771  0  0  -0.474758  0  2.324437  0  0  -0.293697  -0.437809  0  2.331087  0
O  O74  1  0.42489609  0.13533509  0.69742078  1  0  -0.850337  0  1.870462  0  0  -0.789678  0  2.069211  0  0  -0.81134  0  2.035194  0  0  -0.595572  -0.774058  0  2.092531  0
O  O75  1  0.92489692  0.36466669  0.80258045  1  0  -0.850351  0  1.870416  0  0  -0.789715  0  2.06914  0  0  -0.811378  0  2.03512  0  0  -0.595595  -0.774101  0  2.092471  0
O  O76  1  0.57510042  0.86466541  0.30257915  1  0  -0.850232  0  1.870478  0  0  -0.789561  0  2.069178  0  0  -0.811225  0  2.035165  0  0  -0.595522  -0.773942  0  2.092498  0
O  O77  1  0.07510563  0.63533381  0.19742039  1  0  -0.850337  0  1.87043  0  0  -0.789679  0  2.069179  0  0  -0.81134  0  2.03516  0  0  -0.595569  -0.774059  0  2.0925  0
