# generated using pymatgen
data_CuH4C3BrN3
_symmetry_space_group_name_H-M   'P 1'
_cell_length_a   6.21899539
_cell_length_b   6.42057195
_cell_length_c   7.55813240
_cell_angle_alpha   83.78601848
_cell_angle_beta   74.20031383
_cell_angle_gamma   85.47661965
_symmetry_Int_Tables_number   1
_chemical_formula_structural   CuH4C3BrN3
_chemical_formula_sum   'Cu2 H8 C6 Br2 N6'
_cell_volume   288.29933035
_cell_formula_units_Z   2
loop_
 _symmetry_equiv_pos_site_id
 _symmetry_equiv_pos_as_xyz
  1  'x, y, z'
loop_
 _atom_site_type_symbol
 _atom_site_label
 _atom_site_symmetry_multiplicity
 _atom_site_fract_x
 _atom_site_fract_y
 _atom_site_fract_z
 _atom_site_occupancy
 _atom_site_hle17_bader_spin_density
 _atom_site_hle17_ddec_charge
 _atom_site_hle17_ddec_spin_density
 _atom_site_hle17_ddec_sum_bond_order
 _atom_site_hle17_magmom
 _atom_site_hse06_10hf_bader_spin_density
 _atom_site_hse06_10hf_ddec_charge
 _atom_site_hse06_10hf_ddec_spin_density
 _atom_site_hse06_10hf_ddec_sum_bond_order
 _atom_site_hse06_10hf_magmom
 _atom_site_hse06_bader_spin_density
 _atom_site_hse06_ddec_charge
 _atom_site_hse06_ddec_spin_density
 _atom_site_hse06_ddec_sum_bond_order
 _atom_site_hse06_magmom
 _atom_site_pbe_bader_spin_density
 _atom_site_pbe_cm5_charge
 _atom_site_pbe_ddec_charge
 _atom_site_pbe_ddec_spin_density
 _atom_site_pbe_ddec_sum_bond_order
 _atom_site_pbe_magmom
Cu  Cu0  1  0.53027617  0.27145529  0.96703074  1  0  0.369207  0  2.037983  0  0  0.257073  0  2.55538  0  0  0.265  0  2.501081  0  0  0.382657  0.254718  0  2.590202  0
Cu  Cu1  1  0.46972995  0.72855609  0.03296192  1  0  0.369219  0  2.038042  0  0  0.257059  0  2.555439  0  0  0.26495  0  2.501133  0  0  0.382713  0.254707  0  2.590258  0
H  H2  1  0.24280811  0.35701407  0.64987338  1  0  0.113718  0  0.940716  0  0  0.119447  0  1.009443  0  0  0.123023  0  1.005028  0  0  0.131187  0.116566  0  1.013015  0
H  H3  1  0.75717360  0.64299146  0.35013776  1  0  0.113686  0  0.940919  0  0  0.119375  0  1.009686  0  0  0.122953  0  1.00527  0  0  0.131191  0.116495  0  1.013256  0
H  H4  1  0.05957934  0.73267521  0.82675805  1  0  0.110219  0  0.956176  0  0  0.117861  0  1.023265  0  0  0.121313  0  1.019218  0  0  0.127745  0.115107  0  1.026473  0
H  H5  1  0.94040581  0.26732713  0.17325126  1  0  0.110186  0  0.956363  0  0  0.117839  0  1.023436  0  0  0.121294  0  1.019385  0  0  0.127776  0.115085  0  1.026645  0
H  H6  1  0.93890239  0.23387852  0.53098451  1  0  0.09013  0  0.959325  0  0  0.102172  0  1.026213  0  0  0.103281  0  1.026476  0  0  0.098186  0.101115  0  1.026404  0
H  H7  1  0.06110246  0.76612984  0.46901671  1  0  0.090072  0  0.959299  0  0  0.102125  0  1.026184  0  0  0.103226  0  1.026459  0  0  0.098127  0.101069  0  1.026373  0
H  H8  1  0.78866697  0.01872431  0.66330369  1  0  0.09324  0  0.930725  0  0  0.100273  0  1.006697  0  0  0.102917  0  1.003499  0  0  0.105058  0.098194  0  1.009086  0
H  H9  1  0.21133309  0.98127781  0.33669801  1  0  0.093233  0  0.930711  0  0  0.100268  0  1.006688  0  0  0.102909  0  1.003487  0  0  0.105064  0.098189  0  1.009079  0
C  C10  1  0.23281869  0.20212422  0.72378396  1  0  0.164335  0  3.619957  0  0  0.102642  0  3.883181  0  0  0.116086  0  3.893714  0  0  0.154501  0.093523  0  3.876779  0
C  C11  1  0.76719847  0.79785874  0.27620227  1  0  0.164261  0  3.619964  0  0  0.102579  0  3.883177  0  0  0.116022  0  3.893706  0  0  0.154431  0.093461  0  3.876776  0
C  C12  1  0.14258992  0.87877445  0.81237058  1  0  0.16643  0  3.601102  0  0  0.106481  0  3.862423  0  0  0.119206  0  3.873565  0  0  0.152873  0.097912  0  3.855532  0
C  C13  1  0.85742862  0.12122432  0.18762562  1  0  0.166568  0  3.600977  0  0  0.106605  0  3.862318  0  0  0.119333  0  3.87346  0  0  0.152875  0.098034  0  3.855427  0
C  C14  1  0.95398368  0.06779804  0.58026874  1  0  -0.02511  0  3.615199  0  0  -0.087735  0  3.86935  0  0  -0.084921  0  3.880008  0  0  -0.057676  -0.089427  0  3.862296  0
C  C15  1  0.04601273  0.93220401  0.41972460  1  0  -0.025123  0  3.615338  0  0  -0.087744  0  3.869469  0  0  -0.084931  0  3.880151  0  0  -0.057671  -0.089435  0  3.862412  0
Br  Br16  1  0.27711956  0.44579627  0.24702863  1  0  -0.568269  0  1.263082  0  0  -0.507547  0  1.645486  0  0  -0.523634  0  1.60857  0  0  -0.296519  -0.495667  0  1.670046  0
Br  Br17  1  0.72287836  0.55421367  0.75296883  1  0  -0.568222  0  1.263127  0  0  -0.507535  0  1.645611  0  0  -0.523625  0  1.608693  0  0  -0.2965  -0.495656  0  1.67017  0
N  N18  1  0.34248163  0.12941466  0.84694306  1  0  -0.222057  0  3.272874  0  0  -0.167821  0  3.602273  0  0  -0.175605  0  3.60387  0  0  -0.282957  -0.1637  0  3.601866  0
N  N19  1  0.65751527  0.87058119  0.15305741  1  0  -0.221973  0  3.272792  0  0  -0.167681  0  3.602154  0  0  -0.175455  0  3.603733  0  0  -0.282947  -0.163565  0  3.601751  0
N  N20  1  0.28610453  0.92197795  0.90238423  1  0  -0.216743  0  3.268066  0  0  -0.165959  0  3.599592  0  0  -0.17319  0  3.601486  0  0  -0.283598  -0.162137  0  3.598861  0
N  N21  1  0.71389240  0.07801632  0.09761507  1  0  -0.216873  0  3.267825  0  0  -0.166161  0  3.599438  0  0  -0.173398  0  3.601334  0  0  -0.283592  -0.162333  0  3.598704  0
N  N22  1  0.10502898  0.05020398  0.69926544  1  0  -0.075126  0  3.533585  0  0  0.023122  0  3.749403  0  0  0.006555  0  3.773746  0  0  -0.231489  0.033802  0  3.733205  0
N  N23  1  0.89496165  0.94979050  0.30074730  1  0  -0.075006  0  3.533755  0  0  0.023261  0  3.749575  0  0  0.00669  0  3.773916  0  0  -0.231437  0.033941  0  3.733375  0
