# generated using pymatgen
data_Ag2H16C19S(NO2)4
_symmetry_space_group_name_H-M   'P 1'
_cell_length_a   8.42289782
_cell_length_b   10.70697491
_cell_length_c   12.98611977
_cell_angle_alpha   101.51633100
_cell_angle_beta   95.73312650
_cell_angle_gamma   88.45708949
_symmetry_Int_Tables_number   1
_chemical_formula_structural   Ag2H16C19S(NO2)4
_chemical_formula_sum   'Ag4 H32 C38 S2 N8 O16'
_cell_volume   1141.79013880
_cell_formula_units_Z   2
loop_
 _symmetry_equiv_pos_site_id
 _symmetry_equiv_pos_as_xyz
  1  'x, y, z'
loop_
 _atom_site_type_symbol
 _atom_site_label
 _atom_site_symmetry_multiplicity
 _atom_site_fract_x
 _atom_site_fract_y
 _atom_site_fract_z
 _atom_site_occupancy
 _atom_site_hle17_bader_spin_density
 _atom_site_hle17_ddec_charge
 _atom_site_hle17_ddec_spin_density
 _atom_site_hle17_ddec_sum_bond_order
 _atom_site_hle17_magmom
 _atom_site_hse06_10hf_bader_spin_density
 _atom_site_hse06_10hf_ddec_charge
 _atom_site_hse06_10hf_ddec_spin_density
 _atom_site_hse06_10hf_ddec_sum_bond_order
 _atom_site_hse06_10hf_magmom
 _atom_site_hse06_bader_spin_density
 _atom_site_hse06_ddec_charge
 _atom_site_hse06_ddec_spin_density
 _atom_site_hse06_ddec_sum_bond_order
 _atom_site_hse06_magmom
 _atom_site_pbe_bader_spin_density
 _atom_site_pbe_cm5_charge
 _atom_site_pbe_ddec_charge
 _atom_site_pbe_ddec_spin_density
 _atom_site_pbe_ddec_sum_bond_order
 _atom_site_pbe_magmom
Ag  Ag0  1  0.51577375  0.60339368  0.58551072  1  0  0.614021  0  1.384986  0  0  0.49243  0  1.847885  0  0  0.527031  0  1.785284  0  0  0.417657  0.468558  0  1.89113  0
Ag  Ag1  1  0.48422647  0.39660750  0.41448879  1  0  0.614046  0  1.38495  0  0  0.492449  0  1.847853  0  0  0.527051  0  1.785248  0  0  0.417662  0.468574  0  1.891106  0
Ag  Ag2  1  0.58754127  0.39008435  0.05685661  1  0  0.517725  0  1.413094  0  0  0.366276  0  1.851067  0  0  0.396596  0  1.805556  0  0  0.470854  0.345209  0  1.881759  0
Ag  Ag3  1  0.41245663  0.60991584  0.94314645  1  0  0.517674  0  1.413051  0  0  0.366254  0  1.851029  0  0  0.396572  0  1.80552  0  0  0.470843  0.345186  0  1.881716  0
H  H4  1  0.24914392  0.80956316  0.49304996  1  0  0.118861  0  0.939373  0  0  0.131379  0  0.993291  0  0  0.13529  0  0.991595  0  0  0.107311  0.128622  0  0.994601  0
H  H5  1  0.75084917  0.19043712  0.50695053  1  0  0.11886  0  0.939351  0  0  0.131408  0  0.993241  0  0  0.135321  0  0.99154  0  0  0.107306  0.128649  0  0.994551  0
H  H6  1  0.36443256  0.68200850  0.33661443  1  0  0.094118  0  0.950459  0  0  0.107701  0  1.008383  0  0  0.110394  0  1.005987  0  0  0.105656  0.105683  0  1.010254  0
H  H7  1  0.63556652  0.31799457  0.66338689  1  0  0.09411  0  0.950479  0  0  0.107695  0  1.008393  0  0  0.110388  0  1.005996  0  0  0.105658  0.105678  0  1.010266  0
H  H8  1  0.96321802  0.42958224  0.27898267  1  0  0.11023  0  0.944863  0  0  0.120132  0  1.007886  0  0  0.123877  0  1.004395  0  0  0.10911  0.117373  0  1.010551  0
H  H9  1  0.03678454  0.57041798  0.72101526  1  0  0.110241  0  0.944844  0  0  0.12015  0  1.007865  0  0  0.123896  0  1.004373  0  0  0.109125  0.117382  0  1.010545  0
H  H10  1  0.71001469  0.20931471  0.87495905  1  0  0.094008  0  0.945404  0  0  0.103344  0  1.008468  0  0  0.105876  0  1.005786  0  0  0.118827  0.101393  0  1.0106  0
H  H11  1  0.28998677  0.79068545  0.12504344  1  0  0.094021  0  0.94542  0  0  0.103349  0  1.008484  0  0  0.105886  0  1.005805  0  0  0.118828  0.101397  0  1.010617  0
H  H12  1  0.64349273  0.00115192  0.75425571  1  0  0.132343  0  0.933034  0  0  0.141356  0  0.989218  0  0  0.145731  0  0.986344  0  0  0.11738  0.138137  0  0.991502  0
H  H13  1  0.35650873  0.99884920  0.24574617  1  0  0.132365  0  0.933002  0  0  0.141359  0  0.989195  0  0  0.145736  0  0.98632  0  0  0.11739  0.13814  0  0.991477  0
H  H14  1  0.22274839  0.99197591  0.91913177  1  0  0.110431  0  0.935263  0  0  0.127002  0  0.984  0  0  0.129759  0  0.98348  0  0  0.117543  0.125028  0  0.984506  0
H  H15  1  0.77725301  0.00802335  0.08086747  1  0  0.110422  0  0.935261  0  0  0.12697  0  0.984011  0  0  0.129727  0  0.983493  0  0  0.117527  0.124999  0  0.984518  0
H  H16  1  0.31096446  0.19445220  0.03604402  1  0  0.1  0  0.931633  0  0  0.110365  0  0.990324  0  0  0.112918  0  0.988247  0  0  0.122633  0.10834  0  0.992036  0
H  H17  1  0.68903337  0.80554708  0.96395579  1  0  0.099999  0  0.93164  0  0  0.110367  0  0.990327  0  0  0.11292  0  0.988251  0  0  0.122638  0.108341  0  0.992037  0
H  H18  1  0.88956775  0.52642402  0.03730236  1  0  0.093473  0  0.955477  0  0  0.102501  0  1.017471  0  0  0.104902  0  1.014959  0  0  0.119744  0.100676  0  1.0194  0
H  H19  1  0.11043245  0.47357428  0.96269742  1  0  0.093491  0  0.955478  0  0  0.102518  0  1.017462  0  0  0.10492  0  1.014951  0  0  0.119745  0.100692  0  1.01939  0
H  H20  1  0.03211418  0.72980633  0.11776235  1  0  0.119827  0  0.940789  0  0  0.131376  0  0.997577  0  0  0.134968  0  0.995432  0  0  0.114747  0.128692  0  0.999418  0
H  H21  1  0.96788718  0.27019104  0.88223579  1  0  0.119842  0  0.940752  0  0  0.131396  0  0.997535  0  0  0.134988  0  0.995388  0  0  0.114765  0.128711  0  0.999378  0
H  H22  1  0.67196334  0.80820391  0.33747582  1  0  0.101519  0  0.939806  0  0  0.117683  0  0.990954  0  0  0.120614  0  0.990342  0  0  0.110753  0.115574  0  0.991538  0
H  H23  1  0.32803807  0.19179631  0.66252359  1  0  0.101539  0  0.939791  0  0  0.117702  0  0.990944  0  0  0.120632  0  0.990332  0  0  0.110767  0.115594  0  0.991528  0
H  H24  1  0.54757608  0.60092885  0.24843833  1  0  0.082035  0  0.975243  0  0  0.089256  0  1.044196  0  0  0.091631  0  1.041556  0  0  0.113845  0.08742  0  1.046258  0
H  H25  1  0.45242534  0.39907135  0.75156184  1  0  0.082053  0  0.975272  0  0  0.089261  0  1.044236  0  0  0.091632  0  1.041592  0  0  0.113876  0.08743  0  1.046285  0
H  H26  1  0.24197540  0.70166667  0.71182689  1  0  0.358561  0  0.894599  0  0  0.338371  0  0.958817  0  0  0.347182  0  0.951078  0  0  0.307774  0.332074  0  0.964498  0
H  H27  1  0.75802363  0.29833355  0.28817316  1  0  0.35857  0  0.89459  0  0  0.338381  0  0.958803  0  0  0.347191  0  0.951066  0  0  0.307777  0.332085  0  0.964485  0
H  H28  1  0.19850682  0.81305577  0.82435328  1  0  0.337081  0  0.872797  0  0  0.326061  0  0.924718  0  0  0.333316  0  0.918533  0  0  0.319834  0.320994  0  0.929033  0
H  H29  1  0.80149460  0.18694442  0.17564689  1  0  0.337092  0  0.872771  0  0  0.326066  0  0.924704  0  0  0.333322  0  0.918517  0  0  0.319844  0.320998  0  0.929025  0
H  H30  1  0.95915133  0.06429206  0.40054331  1  0  0.346627  0  0.926448  0  0  0.325366  0  0.992691  0  0  0.334184  0  0.984995  0  0  0.300199  0.319084  0  0.998215  0
H  H31  1  0.04085009  0.93570910  0.59945626  1  0  0.346646  0  0.926427  0  0  0.325383  0  0.992673  0  0  0.334203  0  0.984975  0  0  0.300199  0.319096  0  0.998211  0
H  H32  1  0.84849347  0.93482169  0.41909829  1  0  0.327894  0  0.886836  0  0  0.31556  0  0.941677  0  0  0.322799  0  0.935961  0  0  0.311692  0.310463  0  0.945651  0
H  H33  1  0.15150672  0.06517663  0.58090071  1  0  0.327866  0  0.886868  0  0  0.315537  0  0.941704  0  0  0.322776  0  0.935988  0  0  0.311679  0.310442  0  0.945677  0
H  H34  1  0.86193961  0.73140091  0.55418404  1  0  0.397625  0  0.886333  0  0  0.369647  0  0.956457  0  0  0.382255  0  0.942972  0  0  0.306219  0.360831  0  0.965748  0
H  H35  1  0.13805700  0.26859746  0.44581477  1  0  0.397661  0  0.886302  0  0  0.369678  0  0.956426  0  0  0.382284  0  0.942945  0  0  0.30625  0.360863  0  0.965713  0
C  C36  1  0.95519373  0.58643438  0.41191936  1  0  -0.220701  0  3.777911  0  0  -0.199385  0  4.023886  0  0  -0.214358  0  4.04724  0  0  -0.039979  -0.189639  0  4.008255  0
C  C37  1  0.04480650  0.41356583  0.58808075  1  0  -0.22068  0  3.777897  0  0  -0.199368  0  4.023893  0  0  -0.214341  0  4.047252  0  0  -0.039982  -0.18962  0  4.008257  0
C  C38  1  0.03602426  0.69601697  0.47079207  1  0  0.341235  0  3.77774  0  0  0.318841  0  4.046056  0  0  0.33469  0  4.059826  0  0  0.087561  0.308166  0  4.036665  0
C  C39  1  0.96397116  0.30398044  0.52920727  1  0  0.341214  0  3.777826  0  0  0.318823  0  4.046132  0  0  0.334661  0  4.059914  0  0  0.087572  0.308155  0  4.036729  0
C  C40  1  0.18520050  0.72808933  0.44441547  1  0  -0.186742  0  3.724682  0  0  -0.207681  0  3.988231  0  0  -0.214997  0  4.005437  0  0  -0.10506  -0.203041  0  3.976831  0
C  C41  1  0.81479856  0.27191086  0.55558611  1  0  -0.186757  0  3.724846  0  0  -0.207718  0  3.988392  0  0  -0.215036  0  4.005606  0  0  -0.105048  -0.203079  0  3.976988  0
C  C42  1  0.25074723  0.65453743  0.35841273  1  0  -0.039592  0  3.77923  0  0  -0.067524  0  4.040306  0  0  -0.06225  0  4.056116  0  0  -0.080968  -0.070746  0  4.029684  0
C  C43  1  0.74925300  0.34546278  0.64158739  1  0  -0.039591  0  3.779203  0  0  -0.067524  0  4.040293  0  0  -0.062247  0  4.056104  0  0  -0.080976  -0.070747  0  4.029669  0
C  C44  1  0.17013634  0.54674335  0.29866810  1  0  -0.155018  0  3.781172  0  0  -0.126501  0  4.029401  0  0  -0.137679  0  4.053023  0  0  -0.035879  -0.119502  0  4.013885  0
C  C45  1  0.82986271  0.45325878  0.70133229  1  0  -0.155013  0  3.781027  0  0  -0.126501  0  4.029276  0  0  -0.137686  0  4.052911  0  0  -0.035904  -0.119492  0  4.013747  0
C  C46  1  0.02508097  0.51258844  0.32626766  1  0  -0.023097  0  3.731993  0  0  -0.065973  0  3.988451  0  0  -0.05903  0  4.005803  0  0  -0.080098  -0.070284  0  3.976616  0
C  C47  1  0.97491923  0.48741083  0.67373151  1  0  -0.023112  0  3.731977  0  0  -0.065992  0  3.988449  0  0  -0.059039  0  4.005785  0  0  -0.080099  -0.070307  0  3.97661  0
C  C48  1  0.79536484  0.55375636  0.43696333  1  0  0.653534  0  3.909542  0  0  0.593802  0  4.203096  0  0  0.62956  0  4.199853  0  0  0.206411  0.569571  0  4.204358  0
C  C49  1  0.20463296  0.44624296  0.56303494  1  0  0.653473  0  3.909603  0  0  0.593714  0  4.203203  0  0  0.629472  0  4.19996  0  0  0.206384  0.569467  0  4.204484  0
C  C50  1  0.60521997  0.15617091  0.88316010  1  0  0.112452  0  3.68612  0  0  0.082728  0  3.932775  0  0  0.088549  0  3.952281  0  0  0.04526  0.079028  0  3.91951  0
C  C51  1  0.39477908  0.84383025  0.11684088  1  0  0.112437  0  3.686184  0  0  0.082733  0  3.932837  0  0  0.088546  0  3.952351  0  0  0.045263  0.079028  0  3.919579  0
C  C52  1  0.56621124  0.04159411  0.81508785  1  0  -0.109439  0  3.687914  0  0  -0.130459  0  3.928954  0  0  -0.135753  0  3.949449  0  0  -0.070888  -0.127089  0  3.915351  0
C  C53  1  0.43379014  0.95840708  0.18491019  1  0  -0.109444  0  3.687996  0  0  -0.130427  0  3.929  0  0  -0.135722  0  3.949496  0  0  -0.070878  -0.127054  0  3.915392  0
C  C54  1  0.42682855  0.97868722  0.82550968  1  0  -0.014597  0  3.724756  0  0  0.004603  0  3.95826  0  0  0.002369  0  3.979945  0  0  0.007358  0.00608  0  3.943703  0
C  C55  1  0.57317285  0.02131299  0.17448973  1  0  -0.014651  0  3.7249  0  0  0.004519  0  3.958341  0  0  0.002286  0  3.980022  0  0  0.007307  0.005991  0  3.943788  0
C  C56  1  0.33438639  0.03344827  0.90688975  1  0  -0.127372  0  3.712717  0  0  -0.152103  0  3.964144  0  0  -0.157854  0  3.987059  0  0  -0.076428  -0.148388  0  3.948871  0
C  C57  1  0.66561503  0.96655288  0.09311060  1  0  -0.127365  0  3.712753  0  0  -0.152057  0  3.96414  0  0  -0.157806  0  3.987051  0  0  -0.076436  -0.148351  0  3.948875  0
C  C58  1  0.38189172  0.14824105  0.97297408  1  0  0.122389  0  3.671977  0  0  0.091049  0  3.922895  0  0  0.096971  0  3.943068  0  0  0.048627  0.087222  0  3.909294  0
C  C59  1  0.61810848  0.85175726  0.02702570  1  0  0.122371  0  3.671876  0  0  0.091041  0  3.922806  0  0  0.096965  0  3.942976  0  0  0.04865  0.087222  0  3.909199  0
C  C60  1  0.38567482  0.85802258  0.74639512  1  0  0.612452  0  3.838224  0  0  0.567226  0  4.120772  0  0  0.597086  0  4.120004  0  0  0.241631  0.547256  0  4.120402  0
C  C61  1  0.61432662  0.14197761  0.25360582  1  0  0.61234  0  3.838415  0  0  0.567211  0  4.120813  0  0  0.597072  0  4.120041  0  0  0.241631  0.547248  0  4.120436  0
C  C62  1  0.84775801  0.59109144  0.10474798  1  0  0.133697  0  3.673265  0  0  0.100627  0  3.922457  0  0  0.107757  0  3.940318  0  0  0.051119  0.095857  0  3.910499  0
C  C63  1  0.15224338  0.40890782  0.89525126  1  0  0.133609  0  3.673353  0  0  0.100574  0  3.922525  0  0  0.1077  0  3.940388  0  0  0.051123  0.095805  0  3.910569  0
C  C64  1  0.92573233  0.70431301  0.14954615  1  0  -0.102659  0  3.692408  0  0  -0.124802  0  3.9358  0  0  -0.13054  0  3.956811  0  0  -0.070262  -0.121122  0  3.921929  0
C  C65  1  0.07426785  0.29568628  0.85045226  1  0  -0.102651  0  3.692438  0  0  -0.124796  0  3.93588  0  0  -0.130529  0  3.956896  0  0  -0.07027  -0.121126  0  3.921999  0
C  C66  1  0.86535537  0.78575457  0.23464926  1  0  -0.017075  0  3.747814  0  0  0.004093  0  3.97613  0  0  0.002284  0  3.999221  0  0  0.003858  0.005377  0  3.960775  0
C  C67  1  0.13464841  0.21424369  0.76535070  1  0  -0.017017  0  3.747948  0  0  0.004058  0  3.976365  0  0  0.002233  0  3.99947  0  0  0.003825  0.005374  0  3.960962  0
C  C68  1  0.72725118  0.74881631  0.27217514  1  0  -0.14047  0  3.73322  0  0  -0.164797  0  3.985243  0  0  -0.171321  0  4.008462  0  0  -0.085382  -0.160701  0  3.970075  0
C  C69  1  0.27275020  0.25118488  0.72782290  1  0  -0.140493  0  3.733165  0  0  -0.164802  0  3.985218  0  0  -0.171319  0  4.008438  0  0  -0.085373  -0.16072  0  3.970044  0
C  C70  1  0.65509488  0.63433650  0.22300245  1  0  0.128689  0  3.689447  0  0  0.094793  0  3.941434  0  0  0.101536  0  3.960585  0  0  0.041496  0.09019  0  3.928791  0
C  C71  1  0.34490772  0.36566466  0.77699642  1  0  0.128682  0  3.689382  0  0  0.094819  0  3.941367  0  0  0.101567  0  3.960503  0  0  0.041494  0.090214  0  3.928724  0
C  C72  1  0.94757837  0.91123695  0.27667468  1  0  0.595378  0  3.888559  0  0  0.551974  0  4.176406  0  0  0.579953  0  4.176385  0  0  0.232876  0.533024  0  4.175856  0
C  C73  1  0.05242309  0.08876417  0.72332720  1  0  0.595258  0  3.888656  0  0  0.551925  0  4.176444  0  0  0.579917  0  4.176408  0  0  0.232833  0.532977  0  4.175875  0
S  S74  1  0.24963067  0.45928006  0.18345313  1  0  1.281894  0  5.696672  0  0  1.193365  0  6.205252  0  0  1.241237  0  6.183958  0  0  0.48619  1.160422  0  6.218627  0
S  S75  1  0.75037078  0.54072300  0.81654755  1  0  1.281802  0  5.696579  0  0  1.193272  0  6.205174  0  0  1.241145  0  6.183878  0  0  0.486153  1.160318  0  6.218554  0
N  N76  1  0.51452433  0.20951857  0.96096648  1  0  -0.290626  0  3.349807  0  0  -0.201312  0  3.630547  0  0  -0.220471  0  3.649081  0  0  -0.345078  -0.188306  0  3.617497  0
N  N77  1  0.48547354  0.79048164  0.03903504  1  0  -0.290556  0  3.349734  0  0  -0.201309  0  3.630545  0  0  -0.220469  0  3.64908  0  0  -0.345083  -0.188309  0  3.6175  0
N  N78  1  0.71364607  0.55693127  0.14023457  1  0  -0.29152  0  3.345153  0  0  -0.197849  0  3.619983  0  0  -0.217113  0  3.636049  0  0  -0.348467  -0.184738  0  3.608808  0
N  N79  1  0.28635295  0.44306800  0.85976530  1  0  -0.291439  0  3.345127  0  0  -0.197809  0  3.61997  0  0  -0.217069  0  3.636038  0  0  -0.348481  -0.1847  0  3.608791  0
N  N80  1  0.26723671  0.78569783  0.76404883  1  0  -0.672704  0  3.095931  0  0  -0.638902  0  3.336518  0  0  -0.660909  0  3.328161  0  0  -0.559786  -0.623992  0  3.342041  0
N  N81  1  0.73276233  0.21430143  0.23595181  1  0  -0.672683  0  3.096031  0  0  -0.638906  0  3.336571  0  0  -0.660918  0  3.328222  0  0  -0.559789  -0.624003  0  3.342102  0
N  N82  1  0.91290257  0.97486606  0.37259124  1  0  -0.695846  0  3.115503  0  0  -0.660732  0  3.35123  0  0  -0.683828  0  3.346161  0  0  -0.576458  -0.644526  0  3.354446  0
N  N83  1  0.08710114  0.02513323  0.62740505  1  0  -0.695857  0  3.115358  0  0  -0.660751  0  3.351044  0  0  -0.683851  0  3.345966  0  0  -0.576427  -0.644544  0  3.354263  0
O  O84  1  0.73230376  0.63428283  0.51022249  1  0  -0.633615  0  2.149592  0  0  -0.550397  0  2.410581  0  0  -0.582318  0  2.397606  0  0  -0.319865  -0.528274  0  2.418712  0
O  O85  1  0.26769166  0.36571555  0.48977626  1  0  -0.63362  0  2.149591  0  0  -0.550378  0  2.41057  0  0  -0.582299  0  2.397597  0  0  -0.319846  -0.528246  0  2.418699  0
O  O86  1  0.72808485  0.45303141  0.38567967  1  0  -0.604633  0  2.142848  0  0  -0.525261  0  2.406118  0  0  -0.556962  0  2.397573  0  0  -0.304176  -0.503355  0  2.411455  0
O  O87  1  0.27191291  0.54696699  0.61431690  1  0  -0.604594  0  2.142887  0  0  -0.5252  0  2.406127  0  0  -0.556912  0  2.397605  0  0  -0.304162  -0.503289  0  2.411465  0
O  O88  1  0.13165801  0.36329068  0.13210086  1  0  -0.651044  0  1.879112  0  0  -0.608694  0  2.107358  0  0  -0.628281  0  2.093628  0  0  -0.359112  -0.59471  0  2.116346  0
O  O89  1  0.86834701  0.63670849  0.86790088  1  0  -0.651034  0  1.879207  0  0  -0.60869  0  2.107461  0  0  -0.628277  0  2.093731  0  0  -0.359116  -0.594704  0  2.116454  0
O  O90  1  0.40274746  0.40370560  0.22136569  1  0  -0.69798  0  2.033208  0  0  -0.633584  0  2.315744  0  0  -0.657963  0  2.297525  0  0  -0.362029  -0.616325  0  2.327755  0
O  O91  1  0.59725639  0.59630126  0.77863426  1  0  -0.697934  0  2.033034  0  0  -0.633535  0  2.315549  0  0  -0.657918  0  2.29734  0  0  -0.362026  -0.616274  0  2.327558  0
O  O92  1  0.27771060  0.55689040  0.12164799  1  0  -0.707333  0  1.989158  0  0  -0.658832  0  2.267367  0  0  -0.681929  0  2.252142  0  0  -0.358629  -0.642149  0  2.276965  0
O  O93  1  0.72228603  0.44311179  0.87835073  1  0  -0.70728  0  1.989098  0  0  -0.658758  0  2.267262  0  0  -0.681864  0  2.252058  0  0  -0.358597  -0.642088  0  2.276888  0
O  O94  1  0.46306101  0.82918820  0.66757696  1  0  -0.567418  0  1.943464  0  0  -0.514938  0  2.178673  0  0  -0.538758  0  2.167539  0  0  -0.309307  -0.498138  0  2.18569  0
O  O95  1  0.53693918  0.17081108  0.33242222  1  0  -0.567346  0  1.943505  0  0  -0.514903  0  2.178659  0  0  -0.538724  0  2.167525  0  0  -0.309295  -0.498101  0  2.185666  0
O  O96  1  0.03876038  0.95389623  0.22265092  1  0  -0.56338  0  1.839285  0  0  -0.524623  0  2.038468  0  0  -0.544058  0  2.032232  0  0  -0.316801  -0.511059  0  2.042475  0
O  O97  1  0.96124103  0.04610590  0.77734805  1  0  -0.563318  0  1.839476  0  0  -0.524577  0  2.038629  0  0  -0.544012  0  2.032386  0  0  -0.31678  -0.51102  0  2.04264  0
O  O98  1  0.97106185  0.77182620  0.55246971  1  0  -0.525228  0  2.12171  0  0  -0.464572  0  2.329777  0  0  -0.484955  0  2.318769  0  0  -0.339496  -0.450252  0  2.337093  0
O  O99  1  0.02893357  0.22817313  0.44752921  1  0  -0.525259  0  2.121693  0  0  -0.4646  0  2.329762  0  0  -0.484965  0  2.318747  0  0  -0.339562  -0.450287  0  2.337073  0
