# generated using pymatgen
data_Zn4H26C32N4O25
_symmetry_space_group_name_H-M   'P 1'
_cell_length_a   10.69716601
_cell_length_b   10.98362284
_cell_length_c   19.56593919
_cell_angle_alpha   92.70171521
_cell_angle_beta   97.15733088
_cell_angle_gamma   97.47816042
_symmetry_Int_Tables_number   1
_chemical_formula_structural   Zn4H26C32N4O25
_chemical_formula_sum   'Zn4 H26 C32 N4 O25'
_cell_volume   2256.86514635
_cell_formula_units_Z   1
loop_
 _symmetry_equiv_pos_site_id
 _symmetry_equiv_pos_as_xyz
  1  'x, y, z'
loop_
 _atom_site_type_symbol
 _atom_site_label
 _atom_site_symmetry_multiplicity
 _atom_site_fract_x
 _atom_site_fract_y
 _atom_site_fract_z
 _atom_site_occupancy
 _atom_site_pbe_bader_charge
 _atom_site_pbe_bader_spin_density
 _atom_site_pbe_cm5_charge
 _atom_site_pbe_ddec_charge
 _atom_site_pbe_ddec_spin_density
 _atom_site_pbe_ddec_sum_bond_order
 _atom_site_pbe_magmom
Zn  Zn0  1  0.43507463  0.60659662  0.56428662  1  1.316075  0  0.682164  0.970325  0  2.373086  0
Zn  Zn1  1  0.60398380  0.61963352  0.44246498  1  1.31674  0  0.682224  0.984172  0  2.32445  0
Zn  Zn2  1  0.38282229  0.38985405  0.43984632  1  1.315372  0  0.683397  0.974211  0  2.338419  0
Zn  Zn3  1  0.62002786  0.41216396  0.55742051  1  1.316808  0  0.683341  0.970183  0  2.360684  0
H  H4  1  0.34174719  0.49006304  0.98538298  1  0.096274  0  0.106873  0.110078  0  1.015245  0
H  H5  1  0.74174140  0.49651538  0.91393913  1  0.118776  0  0.118231  0.133285  0  0.994083  0
H  H6  1  0.64484683  0.48428301  0.11217099  1  0.120737  0  0.120542  0.133544  0  0.999427  0
H  H7  1  0.63015596  0.47960485  0.00867268  1  0.066684  0  0.109112  0.108197  0  0.992061  0
H  H8  1  0.33028707  0.45438775  0.87780561  1  0.099567  0  0.111475  0.121616  0  1.025397  0
H  H9  1  0.50873484  0.00468010  0.41314914  1  0.141016  0  0.135493  0.169379  0  0.94374  0
H  H10  1  0.19417433  0.53154384  0.79272696  1  0.052938  0  0.104357  0.064096  0  0.961892  0
H  H11  1  0.17875381  0.36712453  0.79043198  1  0.061768  0  0.104831  0.06501  0  0.956503  0
H  H12  1  0.10441779  0.35527349  0.66327185  1  0.037977  0  0.091604  0.125124  0  0.995495  0
H  H13  1  0.00710096  0.44196461  0.70855290  1  0.078189  0  0.092466  0.132431  0  1.019711  0
H  H14  1  0.12604288  0.51898444  0.66370758  1  0.051492  0  0.092321  0.133032  0  1.008933  0
H  H15  1  0.89530011  0.29346671  0.53322534  1  0.044421  0  0.091333  0.054225  0  0.998439  0
H  H16  1  0.04241939  0.26005294  0.50678102  1  0.053186  0  0.095422  0.059022  0  0.988082  0
H  H17  1  0.93148519  0.17742207  0.39139577  1  0.025928  0  0.093227  0.128377  0  0.988779  0
H  H18  1  0.85389582  0.10166325  0.45654681  1  0.035337  0  0.08951  0.121524  0  1.001367  0
H  H19  1  0.78546198  0.22052182  0.41260325  1  0.057309  0  0.087357  0.124691  0  1.003292  0
H  H20  1  0.90810542  0.71574116  0.62401515  1  0.063149  0  0.10745  0.078576  0  0.971236  0
H  H21  1  0.91054097  0.80896845  0.55108924  1  0.060669  0  0.103722  0.070831  0  0.970799  0
H  H22  1  0.12360013  0.92176437  0.60444972  1  0.052182  0  0.097087  0.132889  0  0.98832  0
H  H23  1  0.00534335  0.93310121  0.66022800  1  0.054421  0  0.102293  0.138763  0  0.983152  0
H  H24  1  0.11897907  0.82938737  0.67686522  1  0.047905  0  0.098036  0.133175  0  0.98624  0
H  H25  1  0.17105966  0.66642723  0.23903072  1  0.074436  0  0.103841  0.068129  0  0.960818  0
H  H26  1  0.28747392  0.62068602  0.30243282  1  0.064543  0  0.097147  0.055472  0  1.005746  0
H  H27  1  0.12158629  0.45806321  0.33739221  1  0.067621  0  0.090008  0.133636  0  1.01174  0
H  H28  1  0.07551986  0.60733368  0.34616287  1  0.039756  0  0.094525  0.131142  0  0.986808  0
H  H29  1  0.00503874  0.50599410  0.27468531  1  0.099141  0  0.09189  0.136702  0  1.015137  0
C  C30  1  0.84329903  0.56315875  0.51548417  1  1.605948  0  0.235948  0.579289  0  4.217205  0
C  C31  1  0.18120748  0.49273395  0.50169563  1  1.503574  0  0.211315  0.567367  0  4.233899  0
C  C32  1  0.54090916  0.83946011  0.51132675  1  1.62987  0  0.232035  0.593091  0  4.222173  0
C  C33  1  0.52018381  0.18148183  0.47541838  1  1.615959  0  0.232116  0.65399  0  4.181489  0
C  C34  1  0.45904830  0.49815858  0.31406558  1  1.603381  0  0.227463  0.617996  0  4.221628  0
C  C35  1  0.54364982  0.49096325  0.68510688  1  1.625278  0  0.227626  0.626047  0  4.207905  0
C  C36  1  0.54465022  0.48388466  0.76154251  1  0.004416  0  -0.00321  -0.149046  0  3.884163  0
C  C37  1  0.42600814  0.46735667  0.78749812  1  0.565906  0  0.101717  0.258347  0  4.053142  0
C  C38  1  0.42197502  0.46620391  0.85855450  1  -0.049596  0  -0.091663  -0.250666  0  3.91547  0
C  C39  1  0.53504730  0.47824580  0.90529937  1  0.035925  0  -0.00383  0.145935  0  4.061961  0
C  C40  1  0.65244002  0.48847341  0.87956211  1  0.070813  0  -0.084884  -0.199446  0  3.939061  0
C  C41  1  0.65483285  0.49262814  0.80875624  1  0.208817  0  0.084315  0.074304  0  3.951506  0
C  C42  1  0.55554648  0.48773079  0.13285278  1  0.058019  0  -0.076062  -0.175573  0  3.93434  0
C  C43  1  0.55684675  0.48823990  0.20353516  1  0.153817  0  0.084426  0.072212  0  3.954407  0
C  C44  1  0.33243732  0.49692015  0.19464952  1  0.646923  0  0.107189  0.211809  0  4.052209  0
C  C45  1  0.33239231  0.49606961  0.12263842  1  0.225585  0  0.079646  -0.065618  0  3.854096  0
C  C46  1  0.44079627  0.48960858  0.08930663  1  0.06678  0  0.005485  0.104708  0  4.0329  0
C  C47  1  0.53618981  0.48129723  0.97983767  1  -0.071598  0  -0.073235  -0.09774  0  3.944954  0
C  C48  1  0.43509762  0.48733495  0.01446651  1  -0.039053  0  -0.089521  -0.128738  0  3.964977  0
C  C49  1  0.44837534  0.49259526  0.23674125  1  0.059616  0  -0.009321  -0.166136  0  3.924536  0
C  C50  1  0.04407081  0.49438798  0.49766302  1  0.583494  0  0.040138  -0.056063  0  4.061447  0
C  C51  1  0.98706906  0.58516810  0.52599806  1  0.59256  0  0.100522  0.079655  0  3.989007  0
C  C52  1  0.52748171  0.04755611  0.46548410  1  0.04635  0  -0.056661  -0.210936  0  3.825821  0
C  C53  1  0.54754689  0.97637320  0.51818714  1  0.188322  0  0.086489  -0.024403  0  3.872307  0
C  C54  1  0.19721668  0.44786317  0.75987121  1  0.375652  0  -0.057741  0.094703  0  3.890105  0
C  C55  1  0.10327729  0.44043137  0.69478747  1  -0.066017  0  -0.246827  -0.401617  0  3.955877  0
C  C56  1  0.94772425  0.28425780  0.48859312  1  0.38886  0  -0.072502  0.07942  0  3.898822  0
C  C57  1  0.87553114  0.19045154  0.43389769  1  -0.055871  0  -0.244202  -0.386189  0  3.976188  0
C  C58  1  0.96991001  0.77037479  0.59240747  1  0.367914  0  -0.061961  0.071128  0  3.868008  0
C  C59  1  0.06040841  0.86938673  0.63600126  1  -0.059554  0  -0.237745  -0.392946  0  3.969677  0
C  C60  1  0.19798522  0.58883037  0.26862283  1  0.346833  0  -0.059302  0.097991  0  3.876099  0
C  C61  1  0.09420243  0.53611093  0.30880660  1  -0.100856  0  -0.247293  -0.398448  0  3.949761  0
N  N62  1  0.20945710  0.50575151  0.08115518  1  0.412178  0  0.059351  0.533991  0  4.238781  0
N  N63  1  0.57035865  0.02745323  0.59075305  1  0.435348  0  0.059539  0.533581  0  4.241634  0
N  N64  1  0.67944319  0.47326297  0.24428569  1  0.39614  0  0.062505  0.522524  0  4.196269  0
N  N65  1  0.78045449  0.51335012  0.78427735  1  0.388396  0  0.061619  0.521224  0  4.186629  0
O  O66  1  0.51121035  0.50639709  0.49856849  1  -1.233818  0  -0.574301  -1.037198  0  2.530606  0
O  O67  1  0.79471832  0.49129771  0.55695011  1  -1.158634  0  -0.299578  -0.523221  0  2.375546  0
O  O68  1  0.25336841  0.57978476  0.53904175  1  -1.167413  0  -0.319966  -0.546756  0  2.396096  0
O  O69  1  0.57343012  0.79368441  0.45648924  1  -1.151897  0  -0.304585  -0.526105  0  2.301129  0
O  O70  1  0.42639860  0.21979588  0.44067861  1  -1.151804  0  -0.302027  -0.524639  0  2.27423  0
O  O71  1  0.53909135  0.58621361  0.34449945  1  -1.165195  0  -0.315043  -0.549319  0  2.346672  0
O  O72  1  0.58110098  0.40253100  0.65238734  1  -1.152674  0  -0.308111  -0.531098  0  2.315787  0
O  O73  1  0.38688877  0.41867944  0.34091619  1  -1.143  0  -0.296263  -0.51657  0  2.33316  0
O  O74  1  0.49984565  0.58365189  0.66013014  1  -1.155079  0  -0.302174  -0.527573  0  2.347368  0
O  O75  1  0.50047001  0.78343622  0.56112206  1  -1.151895  0  -0.30051  -0.513957  0  2.32232  0
O  O76  1  0.60797855  0.24304338  0.51792032  1  -1.146045  0  -0.301865  -0.533604  0  2.338257  0
O  O77  1  0.78758576  0.62082573  0.46854053  1  -1.148308  0  -0.302783  -0.524613  0  2.326994  0
O  O78  1  0.21742026  0.40368998  0.46762353  1  -1.163602  0  -0.320666  -0.551573  0  2.372375  0
O  O79  1  0.32278620  0.45230457  0.73891438  1  -1.065121  0  -0.172814  -0.191938  0  2.538872  0
O  O80  1  0.15849702  0.41486013  0.04320695  1  -0.428209  0  -0.128681  -0.322567  0  1.850264  0
O  O81  1  0.16787659  0.60512324  0.08663672  1  -0.433307  0  -0.123482  -0.319115  0  1.856789  0
O  O82  1  0.96260341  0.40242775  0.45785841  1  -1.045993  0  -0.199026  -0.198669  0  2.526485  0
O  O83  1  0.04728137  0.68883572  0.56052555  1  -1.033898  0  -0.155454  -0.137241  0  2.548331  0
O  O84  1  0.67703781  0.01944258  0.62135553  1  -0.430855  0  -0.123875  -0.31633  0  1.845118  0
O  O85  1  0.48338595  0.07080179  0.61487402  1  -0.417526  0  -0.116326  -0.304616  0  1.866929  0
O  O86  1  0.67558645  0.40629608  0.29342297  1  -0.440832  0  -0.121719  -0.316732  0  1.892848  0
O  O87  1  0.77739821  0.52562773  0.22503506  1  -0.437551  0  -0.118415  -0.319241  0  1.887978  0
O  O88  1  0.21844247  0.49330848  0.21816755  1  -1.061364  0  -0.184042  -0.206657  0  2.5199  0
O  O89  1  0.78781172  0.56620639  0.72992115  1  -0.457947  0  -0.122545  -0.325498  0  1.921648  0
O  O90  1  0.87140308  0.47823390  0.82004049  1  -0.448573  0  -0.130514  -0.332755  0  1.870116  0
