# generated using pymatgen
data_Zn4H72C89N20O17F18
_symmetry_space_group_name_H-M   'P 1'
_cell_length_a   19.82974477
_cell_length_b   20.42646146
_cell_length_c   21.06933369
_cell_angle_alpha   108.07480142
_cell_angle_beta   105.88856672
_cell_angle_gamma   111.44011943
_symmetry_Int_Tables_number   1
_chemical_formula_structural   Zn4H72C89N20O17F18
_chemical_formula_sum   'Zn4 H72 C89 N20 O17 F18'
_cell_volume   6790.34898029
_cell_formula_units_Z   1
loop_
 _symmetry_equiv_pos_site_id
 _symmetry_equiv_pos_as_xyz
  1  'x, y, z'
loop_
 _atom_site_type_symbol
 _atom_site_label
 _atom_site_symmetry_multiplicity
 _atom_site_fract_x
 _atom_site_fract_y
 _atom_site_fract_z
 _atom_site_occupancy
 _atom_site_pbe_bader_charge
 _atom_site_pbe_bader_spin_density
 _atom_site_pbe_cm5_charge
 _atom_site_pbe_ddec_charge
 _atom_site_pbe_ddec_spin_density
 _atom_site_pbe_ddec_sum_bond_order
 _atom_site_pbe_magmom
Zn  Zn0  1  0.58404492  0.59577454  0.47591132  1  1.218509  0  0.770804  0.742077  0  2.247933  0
Zn  Zn1  1  0.39904485  0.36628544  0.49578877  1  1.223836  0  0.761988  0.76536  0  2.098306  0
Zn  Zn2  1  0.48639566  0.57893148  0.58552970  1  1.224616  0  0.753309  0.731285  0  2.230763  0
Zn  Zn3  1  0.50231696  0.39246920  0.38783507  1  1.199378  0  0.746326  0.671847  0  2.395178  0
H  H4  1  0.23348618  0.34614155  0.53232704  1  0.114881  0  0.122382  0.113771  0  0.979099  0
H  H5  1  0.63155841  0.40327867  0.52879205  1  0.122749  0  0.119417  0.111221  0  1.024861  0
H  H6  1  0.48109554  0.92814772  0.53229470  1  0.104796  0  0.107139  0.067506  0  0.991565  0
H  H7  1  0.39771100  0.62635331  0.11651873  1  0.125741  0  0.119974  0.152653  0  0.971714  0
H  H8  1  0.29719892  0.35950249  0.68753689  1  0.091938  0  0.102315  0.118795  0  1.0396  0
H  H9  1  0.31642036  0.37795762  0.99103855  1  0.128263  0  0.115028  0.145204  0  0.999426  0
H  H10  1  0.20134351  0.30397249  0.14866251  1  0.100048  0  0.107674  0.115142  0  0.982096  0
H  H11  1  0.08576067  0.20318589  0.02447279  1  0.086143  0  0.10628  0.115734  0  0.998756  0
H  H12  1  0.97604762  0.95319794  0.87463500  1  0.085068  0  0.103061  0.117139  0  1.041507  0
H  H13  1  0.80497642  0.03616825  0.86471581  1  0.056502  0  0.106737  0.116309  0  0.993321  0
H  H14  1  0.02234059  0.03709830  0.11271835  1  0.103163  0  0.11583  0.144797  0  0.979428  0
H  H15  1  0.46919800  0.38604659  0.21382859  1  0.097943  0  0.119634  0.108233  0  1.0113  0
H  H16  1  0.70015119  0.90934834  0.74986115  1  0.070423  0  0.10185  0.105799  0  1.007865  0
H  H17  1  0.46650028  0.59515086  0.34410228  1  0.153805  0  0.116336  0.112211  0  1.032078  0
H  H18  1  0.84326109  0.86020059  0.64080397  1  0.065549  0  0.097271  0.098226  0  1.01205  0
H  H19  1  0.75015624  0.85311839  0.58787740  1  0.049067  0  0.099294  0.102763  0  1.001153  0
H  H20  1  0.80471722  0.82162170  0.54176433  1  0.077905  0  0.11236  0.120342  0  0.963397  0
H  H21  1  0.53647353  0.83434100  0.70748894  1  0.1095  0  0.105324  0.111048  0  0.989688  0
H  H22  1  0.43601271  0.78939986  0.69983944  1  0.042129  0  0.111587  0.114498  0  0.972132  0
H  H23  1  0.45582648  0.83080273  0.63892037  1  0.082568  0  0.104101  0.110953  0  0.985186  0
H  H24  1  0.36336543  0.19921806  0.23338436  1  0.054661  0  0.106399  0.112157  0  0.974761  0
H  H25  1  0.45139658  0.28457370  0.25206628  1  0.015031  0  0.091125  0.080431  0  1.025574  0
H  H26  1  0.33041042  0.58822692  0.56532884  1  0.119671  0  0.121217  0.116541  0  1.010406  0
H  H27  1  0.37765331  0.21719102  0.15825114  1  0.093416  0  0.113961  0.122856  0  0.96248  0
H  H28  1  0.10982389  0.28252457  0.29002045  1  0.055541  0  0.096799  0.096751  0  1.008612  0
H  H29  1  0.17589953  0.38344701  0.36119337  1  0.060673  0  0.102477  0.105284  0  0.97812  0
H  H30  1  0.11244273  0.31154935  0.38070276  1  0.050922  0  0.108581  0.115355  0  0.982152  0
H  H31  1  0.17341712  0.47667901  0.71831814  1  0.05191  0  0.093146  0.09313  0  1.012591  0
H  H32  1  0.12014810  0.37317301  0.65602458  1  0.062957  0  0.093832  0.094286  0  1.021174  0
H  H33  1  0.12420703  0.40661578  0.74728920  1  0.090889  0  0.109374  0.124408  0  0.96798  0
H  H34  1  0.90744992  0.29323782  0.60834786  1  0.060948  0  0.097804  0.099986  0  1.013208  0
H  H35  1  0.81389468  0.28535852  0.60718028  1  0.079812  0  0.1016  0.114864  0  0.987747  0
H  H36  1  0.90079657  0.33020001  0.69389004  1  0.044176  0  0.102984  0.1087  0  0.980813  0
H  H37  1  0.12641137  0.55952418  0.71886560  1  0.11855  0  0.110978  0.085197  0  0.983599  0
H  H38  1  0.13641904  0.71709425  0.76093419  1  0.070477  0  0.095637  0.099986  0  1.007945  0
H  H39  1  0.05284271  0.70434222  0.78367703  1  0.044209  0  0.098236  0.100599  0  0.990893  0
H  H40  1  0.07299161  0.75502373  0.72928508  1  0.067513  0  0.108137  0.114528  0  0.974038  0
H  H41  1  0.56338077  0.33386571  0.65205122  1  0.057779  0  0.099912  0.104666  0  0.978057  0
H  H42  1  0.53361039  0.23003984  0.61587610  1  0.099638  0  0.097648  0.112125  0  1.046342  0
H  H43  1  0.47896825  0.26693083  0.65764302  1  0.060606  0  0.102435  0.111817  0  0.986417  0
H  H44  1  0.92159420  0.35316419  0.42584567  1  0.085195  0  0.089606  0.101797  0  1.033762  0
H  H45  1  0.01427916  0.35067143  0.44391906  1  0.048142  0  0.082285  0.083015  0  1.02864  0
H  H46  1  0.96733572  0.36048476  0.36415675  1  0.025979  0  0.10055  0.106451  0  0.975505  0
H  H47  1  0.75173547  0.00123853  0.66705375  1  0.076051  0  0.090789  0.095886  0  1.045304  0
H  H48  1  0.96391282  0.56628866  0.54055036  1  0.08992  0  0.109912  0.071631  0  0.962155  0
H  H49  1  0.79365276  0.07791486  0.75984449  1  0.04499  0  0.093064  0.096919  0  1.014021  0
H  H50  1  0.84674261  0.08844190  0.70383825  1  0.056475  0  0.107781  0.11804  0  0.964228  0
H  H51  1  0.46450517  0.64906785  0.79943356  1  0.088294  0  0.097152  0.103604  0  1.012114  0
H  H52  1  0.38098064  0.58004625  0.70899895  1  0.086705  0  0.100519  0.104771  0  1.014457  0
H  H53  1  0.44721073  0.67841680  0.72732385  1  0.069772  0  0.107507  0.115257  0  0.999204  0
H  H54  1  0.80838278  0.24252704  0.76627646  1  0.074071  0  0.097404  0.10073  0  1.010122  0
H  H55  1  0.73526914  0.27212125  0.77639823  1  0.056993  0  0.099271  0.105309  0  0.994319  0
H  H56  1  0.80928152  0.32502742  0.75164916  1  0.069963  0  0.110468  0.118917  0  0.975452  0
H  H57  1  0.43593342  0.07639552  0.63981456  1  0.038973  0  0.096571  0.104358  0  0.9908  0
H  H58  1  0.37690275  0.98693500  0.55412775  1  0.072197  0  0.09259  0.086376  0  1.018533  0
H  H59  1  0.07711349  0.56375361  0.54739012  1  0.098966  0  0.114502  0.079734  0  0.964642  0
H  H60  1  0.36742176  0.07227161  0.56045594  1  0.057753  0  0.103682  0.108873  0  0.975497  0
H  H61  1  0.36473446  0.97961491  0.42644013  1  0.040428  0  0.100663  0.102687  0  0.991727  0
H  H62  1  0.37703492  0.90313728  0.44422093  1  0.006809  0  0.088982  0.076524  0  1.0146  0
H  H63  1  0.38327238  0.91317703  0.36438958  1  0.092131  0  0.110788  0.118965  0  0.966563  0
H  H64  1  0.23132832  0.25115773  0.70902819  1  0.051271  0  0.104268  0.105112  0  0.977811  0
H  H65  1  0.16997144  0.28570374  0.66564491  1  0.051628  0  0.099576  0.095636  0  1.000821  0
H  H66  1  0.13879972  0.23434132  0.71637195  1  0.085982  0  0.115689  0.12379  0  0.961368  0
H  H67  1  0.96776941  0.83038375  0.83151113  1  0.046379  0  0.101954  0.100962  0  0.980822  0
H  H68  1  0.99727955  0.87961804  0.77839461  1  0.048872  0  0.097449  0.092596  0  0.988784  0
H  H69  1  0.94918713  0.77345219  0.73818089  1  0.079948  0  0.114131  0.122976  0  0.975826  0
H  H70  1  0.61947011  0.05788660  0.46313624  1  0.05023  0  0.109356  0.13591  0  0.958781  0
H  H71  1  0.73589478  0.79155732  0.83739924  1  0.053224  0  0.097286  0.098387  0  1.000106  0
H  H72  1  0.66111830  0.68921000  0.79997954  1  0.054161  0  0.100174  0.104769  0  0.985573  0
H  H73  1  0.64777010  0.76665102  0.85398742  1  0.045121  0  0.107993  0.115203  0  0.969461  0
H  H74  1  0.70789511  0.11210296  0.54908870  1  0.09728  0  0.109732  0.134781  0  0.971799  0
H  H75  1  0.57589545  0.94268517  0.47991771  1  0.059072  0  0.107685  0.06206  0  0.958985  0
C  C76  1  0.70567828  0.73300091  0.61705615  1  1.037464  0  0.182814  0.305028  0  4.122048  0
C  C77  1  0.54806895  0.73134136  0.50051624  1  1.052399  0  0.202973  0.338632  0  4.126289  0
C  C78  1  0.47566627  0.43699333  0.25670941  1  0.474323  0  0.02113  -0.015911  0  3.957169  0
C  C79  1  0.48473435  0.26983809  0.50596061  1  1.101029  0  0.196997  0.322298  0  4.098528  0
C  C80  1  0.31742281  0.52848765  0.55507089  1  0.404692  0  0.01358  -0.04703  0  3.941377  0
C  C81  1  0.44929673  0.49090618  0.24885178  1  -0.007141  0  -0.036171  -0.013672  0  4.064659  0
C  C82  1  0.25421975  0.46952133  0.55705177  1  0.167693  0  -0.034342  0.025245  0  4.207834  0
C  C83  1  0.53666060  0.77767075  0.55762013  1  0.200588  0  -0.053688  -0.204035  0  4.231461  0
C  C84  1  0.24815603  0.28376594  0.27146127  1  0.063565  0  -0.056204  -0.258629  0  4.099305  0
C  C85  1  0.93207470  0.41572972  0.59357108  1  1.107445  0  0.18283  0.316766  0  3.878675  0
C  C86  1  0.01856984  0.56694233  0.66956063  1  1.051488  0  0.18317  0.365864  0  3.838752  0
C  C87  1  0.53593058  0.24507224  0.48232920  1  0.182775  0  -0.043578  -0.187058  0  4.198468  0
C  C88  1  0.09574467  0.56199410  0.66856976  1  0.487566  0  0.023192  0.045746  0  3.783582  0
C  C89  1  0.19253870  0.47542194  0.57451667  1  -0.311589  0  -0.046387  -0.080701  0  4.159603  0
C  C90  1  0.94071568  0.49665048  0.59842486  1  0.117609  0  -0.005491  -0.087415  0  3.882365  0
C  C91  1  0.47951314  0.52995358  0.69131344  1  1.003706  0  0.179384  0.299571  0  4.100659  0
C  C92  1  0.01553490  0.41705262  0.60578053  1  1.034239  0  0.177953  0.297081  0  3.845605  0
C  C93  1  0.07198582  0.48816921  0.59747272  1  0.089361  0  -0.014472  -0.038412  0  3.885937  0
C  C94  1  0.03191387  0.50320977  0.53094699  1  0.509046  0  0.006001  0.064402  0  3.813396  0
C  C95  1  0.95537070  0.50751819  0.53211740  1  0.535111  0  0.028508  0.136216  0  3.780956  0
C  C96  1  0.14108263  0.48271300  0.59193262  1  -0.053423  0  -0.067637  -0.126569  0  4.134777  0
C  C97  1  0.86893162  0.50187823  0.59499052  1  0.155172  0  -0.058361  -0.093254  0  4.096146  0
C  C98  1  0.43832280  0.46947301  0.70773041  1  0.113073  0  -0.053531  -0.249744  0  4.089594  0
C  C99  1  0.80691362  0.50475953  0.57520383  1  -0.42516  0  -0.046209  -0.060234  0  4.148785  0
C  C100  1  0.65357883  0.14798017  0.64573630  1  1.077573  0  0.182816  0.305652  0  3.84419  0
C  C101  1  0.64284561  0.07082170  0.52154309  1  -0.008672  0  -0.159849  -0.278171  0  3.872876  0
C  C102  1  0.62757745  0.99545073  0.52910792  1  0.536311  0  0.030738  0.201778  0  3.810391  0
C  C103  1  0.65582157  0.45499688  0.52014859  1  0.425284  0  0.020252  -0.001686  0  3.92565  0
C  C104  1  0.56969097  0.85977694  0.58759286  1  -0.068758  0  -0.051738  -0.049935  0  4.209484  0
C  C105  1  0.60187427  0.11058050  0.55996270  1  0.10763  0  0.002532  0.002008  0  3.859993  0
C  C106  1  0.67279148  0.08451404  0.66396159  1  1.068823  0  0.177466  0.304654  0  3.843315  0
C  C107  1  0.60976803  0.00017398  0.59761081  1  0.078613  0  -0.012459  -0.045476  0  3.898227  0
C  C108  1  0.52340914  0.98995156  0.57423760  1  0.472219  0  0.026289  0.064294  0  3.804167  0
C  C109  1  0.73694215  0.50839408  0.54363781  1  0.197338  0  -0.030331  -0.065789  0  4.177681  0
C  C110  1  0.51464594  0.04478920  0.53877031  1  0.992455  0  0.163888  0.305206  0  3.83463  0
C  C111  1  0.60335103  0.93094480  0.60738813  1  -0.284058  0  -0.069867  -0.143621  0  4.056323  0
C  C112  1  0.59354018  0.16747247  0.53573014  1  0.111936  0  -0.049068  -0.090682  0  4.063598  0
C  C113  1  0.57012011  0.20338786  0.50741757  1  -0.37392  0  -0.050626  -0.049005  0  4.16672  0
C  C114  1  0.41034942  0.49345278  0.18102585  1  0.100921  0  -0.016773  -0.120342  0  4.032902  0
C  C115  1  0.43338625  0.40430257  0.65401377  1  1.022584  0  0.197669  0.334534  0  4.11252  0
C  C116  1  0.37008576  0.42733920  0.10994448  1  0.390971  0  0.099907  0.268594  0  4.051734  0
C  C117  1  0.34259483  0.42997137  0.04387992  1  0.062205  0  -0.106075  -0.298369  0  3.987902  0
C  C118  1  0.35448976  0.50299463  0.04585744  1  0.352311  0  0.086265  0.215556  0  4.074911  0
C  C119  1  0.38758834  0.56941359  0.11432536  1  0.055325  0  -0.096045  -0.285222  0  3.96783  0
C  C120  1  0.47352606  0.54380951  0.32252005  1  0.453922  0  0.01663  -0.024601  0  3.947629  0
C  C121  1  0.41354769  0.56285309  0.17889253  1  0.3894  0  0.099564  0.264171  0  4.045682  0
C  C122  1  0.41766951  0.53410140  0.88607695  1  0.518839  0  0.095039  0.130177  0  4.067031  0
C  C123  1  0.44875905  0.53212425  0.83433957  1  0.482603  0  0.07281  0.087425  0  4.090641  0
C  C124  1  0.34436332  0.47000995  0.86992616  1  0.464031  0  0.075058  -0.025637  0  4.073657  0
C  C125  1  0.40622195  0.47012485  0.76204508  1  0.093129  0  -0.014925  0.068224  0  4.100797  0
C  C126  1  0.33115436  0.40742062  0.74389798  1  0.003088  0  -0.119433  -0.284936  0  4.00879  0
C  C127  1  0.73116276  0.56117487  0.51499569  1  1.071251  0  0.219087  0.361741  0  4.058425  0
C  C128  1  0.30106256  0.40641582  0.79612638  1  0.514376  0  0.087507  0.204135  0  4.058301  0
C  C129  1  0.77890746  0.86042736  0.74581162  1  0.044434  0  -0.016656  0.017893  0  4.029944  0
C  C130  1  0.76113073  0.91980252  0.77661100  1  -0.021891  0  -0.088765  -0.106351  0  3.998074  0
C  C131  1  0.26922251  0.40517171  0.53968868  1  0.405977  0  0.019942  -0.03957  0  3.967683  0
C  C132  1  0.81907029  0.99048402  0.84014113  1  -0.036992  0  -0.097316  -0.174069  0  3.991248  0
C  C133  1  0.89513808  0.99999460  0.87618343  1  0.294503  0  0.078367  0.185571  0  4.09897  0
C  C134  1  0.91603072  0.94318278  0.84512388  1  -0.005048  0  -0.115942  -0.306995  0  4.000298  0
C  C135  1  0.85884641  0.87480823  0.77926067  1  0.436049  0  0.081736  0.203992  0  4.052525  0
C  C136  1  0.09610878  0.19036620  0.07163100  1  -0.011581  0  -0.092662  -0.164857  0  3.973966  0
C  C137  1  0.15990799  0.24627564  0.14088401  1  -0.013691  0  -0.084302  -0.097539  0  3.980549  0
C  C138  1  0.04656765  0.11448625  0.06122188  1  0.340423  0  0.082884  0.187472  0  4.085622  0
C  C139  1  0.53536238  0.26756740  0.42568585  1  1.069067  0  0.205544  0.334638  0  4.151454  0
C  C140  1  0.17451894  0.23005777  0.20210042  1  0.084328  0  -0.014475  0.014515  0  4.054074  0
C  C141  1  0.12101187  0.15467620  0.18986215  1  0.292641  0  0.094712  0.242415  0  4.056346  0
C  C142  1  0.48589163  0.71810896  0.57031061  1  1.04589  0  0.18794  0.304255  0  4.096823  0
C  C143  1  0.05951720  0.09635927  0.12097785  1  0.096115  0  -0.097926  -0.277282  0  3.976  0
C  C144  1  0.64826686  0.73263113  0.69287747  1  1.041413  0  0.183061  0.304367  0  4.10012  0
C  C145  1  0.71520068  0.78190072  0.68640799  1  0.083064  0  -0.054032  -0.258754  0  4.094313  0
C  C146  1  0.78853353  0.82552368  0.58797062  1  0.383757  0  -0.132202  -0.161056  0  3.883925  0
C  C147  1  0.47200064  0.79949262  0.66909539  1  0.350384  0  -0.127666  -0.16042  0  3.867739  0
C  C148  1  0.38630716  0.24464313  0.21562699  1  0.404718  0  -0.128564  -0.162288  0  3.895996  0
C  C149  1  0.14835603  0.32104990  0.34983231  1  0.393612  0  -0.131156  -0.159735  0  3.882586  0
C  C150  1  0.12077403  0.41962342  0.70020280  1  0.348497  0  -0.143731  -0.164893  0  3.891248  0
C  C151  1  0.87975042  0.32195510  0.63671789  1  0.383689  0  -0.14089  -0.159242  0  3.865616  0
C  C152  1  0.07448750  0.70695306  0.74131034  1  0.381851  0  -0.140491  -0.16543  0  3.912794  0
C  C153  1  0.32597161  0.30673973  0.27561223  1  1.077242  0  0.185433  0.310296  0  4.108847  0
C  C154  1  0.51255290  0.27321285  0.62450157  1  0.359908  0  -0.140562  -0.168725  0  3.844739  0
C  C155  1  0.97899949  0.37621443  0.42230247  1  0.414185  0  -0.154948  -0.180185  0  3.942683  0
C  C156  1  0.78720884  0.06533978  0.70330639  1  0.386001  0  -0.144559  -0.167459  0  3.886699  0
C  C157  1  0.44327261  0.62918919  0.73955514  1  0.333366  0  -0.136705  -0.169803  0  3.849832  0
C  C158  1  0.77117603  0.26679612  0.74565324  1  0.358821  0  -0.14173  -0.171358  0  3.894626  0
C  C159  1  0.40957075  0.05181307  0.57909836  1  0.396896  0  -0.142681  -0.167712  0  3.938377  0
C  C160  1  0.39715985  0.94596829  0.42262189  1  0.423852  0  -0.141699  -0.164885  0  3.960233  0
C  C161  1  0.19090088  0.27571727  0.71407786  1  0.387895  0  -0.12934  -0.170655  0  3.911522  0
C  C162  1  0.95169759  0.82631283  0.77552982  1  0.387714  0  -0.132027  -0.170792  0  3.922749  0
C  C163  1  0.67121556  0.74956644  0.81397970  1  0.398776  0  -0.133809  -0.158843  0  3.879648  0
C  C164  1  0.26270322  0.31161653  0.34658830  1  0.990266  0  0.183671  0.31244  0  4.10691  0
N  N165  1  0.64011156  0.66128819  0.58628614  1  -0.805556  0  -0.299125  -0.300641  0  3.571534  0
N  N166  1  0.32433598  0.45691106  0.92449870  1  -0.524553  0  -0.154066  -0.094229  0  3.354959  0
N  N167  1  0.94880554  0.06700566  0.94615493  1  -0.448487  0  -0.151052  -0.13666  0  3.243143  0
N  N168  1  0.45909960  0.30454839  0.46756736  1  -0.816281  0  -0.279346  -0.30529  0  3.464429  0
N  N169  1  0.98712087  0.05049103  0.99180711  1  -0.499817  0  -0.151349  -0.131794  0  3.303007  0
N  N170  1  0.49860106  0.50312878  0.63607804  1  -0.783096  0  -0.291814  -0.322494  0  3.430001  0
N  N171  1  0.60737517  0.47418693  0.47982709  1  -0.836359  0  -0.295241  -0.234778  0  3.585571  0
N  N172  1  0.46912313  0.42215337  0.61174336  1  -0.801847  0  -0.288211  -0.311558  0  3.461251  0
N  N173  1  0.65544789  0.54143495  0.47696804  1  -0.798234  0  -0.288716  -0.324947  0  3.502859  0
N  N174  1  0.49075933  0.30205735  0.41581009  1  -0.833574  0  -0.292156  -0.310882  0  3.545383  0
N  N175  1  0.60447735  0.66038704  0.63383410  1  -0.800006  0  -0.284768  -0.277726  0  3.533691  0
N  N176  1  0.33628632  0.42520911  0.52976694  1  -0.773247  0  -0.258274  -0.183895  0  3.562339  0
N  N177  1  0.51077261  0.52259131  0.36931111  1  -0.822722  0  -0.288069  -0.207959  0  3.61615  0
N  N178  1  0.47169214  0.64608695  0.52640762  1  -0.790692  0  -0.287536  -0.313007  0  3.406725  0
N  N179  1  0.38184104  0.34601257  0.34640666  1  -0.835916  0  -0.295731  -0.286724  0  3.583274  0
N  N180  1  0.34277968  0.34958254  0.39125542  1  -0.764303  0  -0.289158  -0.303167  0  3.521637  0
N  N181  1  0.51154702  0.65503695  0.48176880  1  -0.792153  0  -0.281757  -0.316292  0  3.468344  0
N  N182  1  0.51279379  0.45645995  0.32861111  1  -0.783017  0  -0.277304  -0.195142  0  3.513018  0
N  N183  1  0.36643594  0.50126498  0.53946535  1  -0.780315  0  -0.277695  -0.206381  0  3.576149  0
N  N184  1  0.34819928  0.51784473  0.98419603  1  -0.443219  0  -0.159176  -0.144302  0  3.238489  0
O  O185  1  0.74494502  0.74513513  0.57488678  1  -1.087444  0  -0.189555  -0.189608  0  2.596796  0
O  O186  1  0.75171687  0.10724808  0.67594479  1  -1.054342  0  -0.209219  -0.224392  0  2.574562  0
O  O187  1  0.49599881  0.60644384  0.71466174  1  -1.087976  0  -0.176318  -0.173494  0  2.636322  0
O  O188  1  0.71971241  0.21819453  0.66697199  1  -1.056085  0  -0.204779  -0.22001  0  2.584589  0
O  O189  1  0.47072383  0.08174250  0.55563489  1  -1.062078  0  -0.207109  -0.221703  0  2.585589  0
O  O190  1  0.48223633  0.99747193  0.45999851  1  -1.045213  0  -0.220215  -0.24498  0  2.504366  0
O  O191  1  0.22995529  0.34685311  0.78224039  1  -1.073903  0  -0.17981  -0.150798  0  2.587774  0
O  O192  1  0.87288171  0.81619348  0.74401980  1  -1.073619  0  -0.182906  -0.149284  0  2.591174  0
O  O193  1  0.62651523  0.75218838  0.74872356  1  -1.089217  0  -0.203078  -0.209042  0  2.567273  0
O  O194  1  0.45240840  0.72196669  0.61834208  1  -1.087726  0  -0.17992  -0.175372  0  2.583252  0
O  O195  1  0.34207174  0.28691012  0.21606716  1  -1.105043  0  -0.189332  -0.188432  0  2.597761  0
O  O196  1  0.21009276  0.30192764  0.37685525  1  -1.087898  0  -0.196172  -0.195967  0  2.584244  0
O  O197  1  0.04659131  0.42170966  0.67551747  1  -1.049524  0  -0.207088  -0.222185  0  2.573888  0
O  O198  1  0.90227732  0.39978504  0.64134847  1  -1.05611  0  -0.205596  -0.212117  0  2.570595  0
O  O199  1  0.02049899  0.63599276  0.67200746  1  -1.050566  0  -0.209287  -0.231493  0  2.556036  0
O  O200  1  0.45567493  0.25866755  0.55449004  1  -1.088582  0  -0.190959  -0.190824  0  2.581894  0
O  O201  1  0.02496193  0.46110373  0.46062936  1  -1.064238  0  -0.234208  -0.193713  0  2.51583  0
F  F202  1  0.59236839  0.75844239  0.46675645  1  -0.64028  0  -0.086665  -0.133992  0  1.334366  0
F  F203  1  0.66539312  0.08665311  0.72899808  1  -0.611184  0  -0.139022  -0.208447  0  1.283169  0
F  F204  1  0.52419423  0.59141407  0.85684828  1  -0.627869  0  -0.096917  -0.117565  0  1.379745  0
F  F205  1  0.46488217  0.59485722  0.95520567  1  -0.613721  0  -0.091156  -0.109389  0  1.404917  0
F  F206  1  0.44904983  0.62956198  0.24466169  1  -0.632973  0  -0.101095  -0.142128  0  1.332268  0
F  F207  1  0.36051003  0.35639811  0.10657885  1  -0.631266  0  -0.098914  -0.141532  0  1.348739  0
F  F208  1  0.39444685  0.32890844  0.64242757  1  -0.643329  0  -0.084448  -0.136625  0  1.387894  0
F  F209  1  0.13323034  0.13612894  0.24743208  1  -0.630448  0  -0.112192  -0.149871  0  1.324915  0
F  F210  1  0.79239231  0.62380901  0.52174752  1  -0.63249  0  -0.086821  -0.132141  0  1.345275  0
F  F211  1  0.57438678  0.25867145  0.38344369  1  -0.641022  0  -0.091172  -0.134236  0  1.329004  0
F  F212  1  0.01334029  0.56052490  0.73291543  1  -0.611673  0  -0.129898  -0.206243  0  1.264082  0
F  F213  1  0.15031360  0.63051593  0.67005995  1  -0.628693  0  -0.127476  -0.164631  0  1.319668  0
F  F214  1  0.88775107  0.45381456  0.46440992  1  -0.619828  0  -0.126953  -0.161541  0  1.319324  0
F  F215  1  0.87695712  0.35657011  0.52014662  1  -0.600031  0  -0.126191  -0.200272  0  1.304958  0
F  F216  1  0.00200753  0.34587691  0.55267761  1  -0.622802  0  -0.123972  -0.204182  0  1.327842  0
F  F217  1  0.69430514  0.98347091  0.53528691  1  -0.626175  0  -0.143116  -0.190207  0  1.256541  0
F  F218  1  0.50568853  0.00059444  0.63546211  1  -0.620096  0  -0.126358  -0.159128  0  1.345157  0
F  F219  1  0.60744872  0.16317325  0.68292297  1  -0.614928  0  -0.126459  -0.20302  0  1.316453  0
