# generated using pymatgen
data_CdH10C14(NO2)2
_symmetry_space_group_name_H-M   'P 1'
_cell_length_a   9.80195446
_cell_length_b   9.80195708
_cell_length_c   16.02261155
_cell_angle_alpha   90.00002079
_cell_angle_beta   90.00003792
_cell_angle_gamma   106.54154082
_symmetry_Int_Tables_number   1
_chemical_formula_structural   CdH10C14(NO2)2
_chemical_formula_sum   'Cd4 H40 C56 N8 O16'
_cell_volume   1475.71452186
_cell_formula_units_Z   4
loop_
 _symmetry_equiv_pos_site_id
 _symmetry_equiv_pos_as_xyz
  1  'x, y, z'
loop_
 _atom_site_type_symbol
 _atom_site_label
 _atom_site_symmetry_multiplicity
 _atom_site_fract_x
 _atom_site_fract_y
 _atom_site_fract_z
 _atom_site_occupancy
 _atom_site_hle17_bader_spin_density
 _atom_site_hle17_ddec_charge
 _atom_site_hle17_ddec_spin_density
 _atom_site_hle17_ddec_sum_bond_order
 _atom_site_hle17_magmom
 _atom_site_hse06_10hf_bader_spin_density
 _atom_site_hse06_10hf_ddec_charge
 _atom_site_hse06_10hf_ddec_spin_density
 _atom_site_hse06_10hf_ddec_sum_bond_order
 _atom_site_hse06_10hf_magmom
 _atom_site_hse06_bader_spin_density
 _atom_site_hse06_ddec_charge
 _atom_site_hse06_ddec_spin_density
 _atom_site_hse06_ddec_sum_bond_order
 _atom_site_hse06_magmom
 _atom_site_pbe_bader_spin_density
 _atom_site_pbe_cm5_charge
 _atom_site_pbe_ddec_charge
 _atom_site_pbe_ddec_spin_density
 _atom_site_pbe_ddec_sum_bond_order
 _atom_site_pbe_magmom
Cd  Cd0  1  0.41308288  0.58691736  0.40913632  1  0  1.114186  0  1.717619  0  0  0.911492  0  2.184084  0  0  0.970861  0  2.128925  0  0  0.773751  0.868651  0  2.22272  0
Cd  Cd1  1  0.08691797  0.91308112  0.90913531  1  0  1.114121  0  1.71764  0  0  0.911465  0  2.184074  0  0  0.970836  0  2.128915  0  0  0.773725  0.868621  0  2.22271  0
Cd  Cd2  1  0.91308226  0.08691824  0.09086428  1  0  1.11413  0  1.717624  0  0  0.911464  0  2.184087  0  0  0.970832  0  2.128929  0  0  0.773726  0.868619  0  2.222722  0
Cd  Cd3  1  0.58691838  0.41308200  0.59086452  1  0  1.114145  0  1.71765  0  0  0.91146  0  2.184084  0  0  0.970829  0  2.128929  0  0  0.773722  0.868616  0  2.222721  0
H  H4  1  0.90842551  0.92594698  0.30799440  1  0  0.115154  0  0.978391  0  0  0.12296  0  1.043498  0  0  0.126682  0  1.041085  0  0  0.109184  0.120245  0  1.045723  0
H  H5  1  0.59157312  0.57405399  0.80799331  1  0  0.115113  0  0.978303  0  0  0.122895  0  1.043457  0  0  0.126618  0  1.041043  0  0  0.109149  0.120178  0  1.045683  0
H  H6  1  0.57405437  0.59157614  0.19200571  1  0  0.115174  0  0.978372  0  0  0.122961  0  1.043507  0  0  0.126682  0  1.041095  0  0  0.109186  0.120245  0  1.045733  0
H  H7  1  0.92594717  0.90842474  0.69200608  1  0  0.115143  0  0.978402  0  0  0.122935  0  1.043529  0  0  0.126658  0  1.041116  0  0  0.109182  0.120219  0  1.045754  0
H  H8  1  0.09157575  0.07405239  0.69200644  1  0  0.115136  0  0.978419  0  0  0.12293  0  1.043542  0  0  0.126652  0  1.041128  0  0  0.109176  0.120214  0  1.045766  0
H  H9  1  0.40842565  0.42594748  0.19200566  1  0  0.11515  0  0.978376  0  0  0.122949  0  1.043493  0  0  0.126671  0  1.041081  0  0  0.109186  0.120233  0  1.04572  0
H  H10  1  0.42594543  0.40842534  0.80799326  1  0  0.1151  0  0.978365  0  0  0.122886  0  1.043515  0  0  0.126608  0  1.041102  0  0  0.109143  0.120169  0  1.04574  0
H  H11  1  0.07405234  0.09157568  0.30799351  1  0  0.115148  0  0.978401  0  0  0.122941  0  1.043525  0  0  0.126664  0  1.041113  0  0  0.109182  0.120226  0  1.04575  0
H  H12  1  0.70094014  0.71157728  0.31756705  1  0  0.077713  0  0.954284  0  0  0.087741  0  1.015418  0  0  0.089573  0  1.014425  0  0  0.116043  0.086493  0  1.016073  0
H  H13  1  0.79905851  0.78842369  0.81756735  1  0  0.077713  0  0.954351  0  0  0.087754  0  1.015469  0  0  0.089578  0  1.014483  0  0  0.116055  0.086505  0  1.016121  0
H  H14  1  0.78842233  0.79906012  0.18243306  1  0  0.077699  0  0.954369  0  0  0.087735  0  1.015489  0  0  0.08956  0  1.014504  0  0  0.116044  0.086487  0  1.016142  0
H  H15  1  0.71157861  0.70093862  0.68243267  1  0  0.077741  0  0.954367  0  0  0.087769  0  1.015496  0  0  0.089595  0  1.01451  0  0  0.116047  0.08652  0  1.016149  0
H  H16  1  0.29906112  0.28842209  0.68243316  1  0  0.0777  0  0.954343  0  0  0.08773  0  1.015472  0  0  0.089555  0  1.014485  0  0  0.116027  0.08648  0  1.016124  0
H  H17  1  0.20093925  0.21157777  0.18243287  1  0  0.077707  0  0.954348  0  0  0.087742  0  1.015467  0  0  0.089567  0  1.014482  0  0  0.116028  0.086494  0  1.016121  0
H  H18  1  0.21157674  0.20094241  0.81756716  1  0  0.07771  0  0.954353  0  0  0.087751  0  1.015471  0  0  0.089571  0  1.014492  0  0  0.116048  0.086502  0  1.016124  0
H  H19  1  0.28842133  0.29905968  0.31756692  1  0  0.077714  0  0.954334  0  0  0.087744  0  1.015465  0  0  0.089569  0  1.01448  0  0  0.116033  0.086496  0  1.016119  0
H  H20  1  0.74407806  0.08597817  0.52764823  1  0  0.12451  0  0.987698  0  0  0.131134  0  1.051015  0  0  0.135483  0  1.048661  0  0  0.107202  0.128082  0  1.052807  0
H  H21  1  0.75592219  0.41402096  0.02764675  1  0  0.124507  0  0.987655  0  0  0.131118  0  1.051002  0  0  0.135467  0  1.048648  0  0  0.107206  0.128067  0  1.052794  0
H  H22  1  0.41402285  0.75592140  0.97235227  1  0  0.124516  0  0.98769  0  0  0.131138  0  1.051008  0  0  0.135487  0  1.048653  0  0  0.107204  0.128087  0  1.052799  0
H  H23  1  0.08597838  0.74407821  0.47235194  1  0  0.124506  0  0.987711  0  0  0.131131  0  1.051027  0  0  0.13548  0  1.048673  0  0  0.10719  0.128081  0  1.052817  0
H  H24  1  0.25592247  0.91402226  0.47235199  1  0  0.124511  0  0.9877  0  0  0.131136  0  1.051018  0  0  0.135484  0  1.048664  0  0  0.107195  0.128086  0  1.052809  0
H  H25  1  0.24407804  0.58597841  0.97235159  1  0  0.124494  0  0.987715  0  0  0.131117  0  1.051035  0  0  0.135466  0  1.048681  0  0  0.107192  0.128066  0  1.052826  0
H  H26  1  0.58597708  0.24407690  0.02764732  1  0  0.124503  0  0.987669  0  0  0.131119  0  1.051011  0  0  0.135468  0  1.048657  0  0  0.107195  0.128068  0  1.052803  0
H  H27  1  0.91402215  0.25592221  0.52764828  1  0  0.124514  0  0.987706  0  0  0.131139  0  1.051023  0  0  0.135487  0  1.048669  0  0  0.1072  0.128087  0  1.052815  0
H  H28  1  0.12783815  0.87216183  0.30152650  1  0  0.106249  0  0.959093  0  0  0.113552  0  1.024656  0  0  0.117237  0  1.02261  0  0  0.101829  0.110629  0  1.026698  0
H  H29  1  0.37216153  0.62783654  0.80152616  1  0  0.106253  0  0.959134  0  0  0.113558  0  1.024699  0  0  0.117245  0  1.022651  0  0  0.101831  0.110634  0  1.02674  0
H  H30  1  0.62783709  0.37216068  0.19847406  1  0  0.10627  0  0.959088  0  0  0.113572  0  1.024653  0  0  0.117258  0  1.022606  0  0  0.101838  0.110649  0  1.026695  0
H  H31  1  0.87216208  0.12783753  0.69847434  1  0  0.106252  0  0.959145  0  0  0.113559  0  1.024701  0  0  0.117245  0  1.022654  0  0  0.101834  0.110635  0  1.026743  0
H  H32  1  0.54112574  0.86675756  0.52395974  1  0  0.082338  0  0.932177  0  0  0.092818  0  0.991341  0  0  0.094883  0  0.990108  0  0  0.117557  0.09148  0  0.992065  0
H  H33  1  0.95887454  0.63324314  0.02395953  1  0  0.082365  0  0.932124  0  0  0.092851  0  0.991285  0  0  0.094917  0  0.990051  0  0  0.11757  0.091513  0  0.992011  0
H  H34  1  0.63324279  0.95887502  0.97604025  1  0  0.082352  0  0.932156  0  0  0.092833  0  0.991313  0  0  0.094897  0  0.990082  0  0  0.117566  0.091493  0  0.992038  0
H  H35  1  0.86675885  0.54112507  0.47603999  1  0  0.082329  0  0.932157  0  0  0.092816  0  0.991316  0  0  0.094882  0  0.990082  0  0  0.117552  0.09148  0  0.992041  0
H  H36  1  0.45887478  0.13324286  0.47604048  1  0  0.082365  0  0.932132  0  0  0.092855  0  0.991284  0  0  0.094921  0  0.99005  0  0  0.11757  0.091517  0  0.99201  0
H  H37  1  0.04112526  0.36675834  0.97603944  1  0  0.082351  0  0.932167  0  0  0.092828  0  0.991326  0  0  0.094893  0  0.990093  0  0  0.117561  0.091491  0  0.99205  0
H  H38  1  0.36675642  0.04112433  0.02395934  1  0  0.08239  0  0.932123  0  0  0.092856  0  0.991301  0  0  0.094923  0  0.990066  0  0  0.117563  0.091518  0  0.992027  0
H  H39  1  0.13324343  0.45887431  0.52396023  1  0  0.082332  0  0.932188  0  0  0.092811  0  0.991348  0  0  0.094876  0  0.990116  0  0  0.117548  0.091473  0  0.992073  0
H  H40  1  0.23961633  0.76038390  0.14346551  1  0  0.122187  0  0.951783  0  0  0.128882  0  1.015066  0  0  0.132685  0  1.013905  0  0  0.104363  0.126224  0  1.015902  0
H  H41  1  0.26038343  0.73961538  0.64346515  1  0  0.122163  0  0.951689  0  0  0.128872  0  1.014966  0  0  0.132675  0  1.013795  0  0  0.104365  0.126215  0  1.015803  0
H  H42  1  0.73961680  0.26038398  0.35653506  1  0  0.122182  0  0.951642  0  0  0.128895  0  1.014918  0  0  0.132696  0  1.013747  0  0  0.10437  0.126237  0  1.015757  0
H  H43  1  0.76038420  0.23961652  0.85653471  1  0  0.122223  0  0.951685  0  0  0.128928  0  1.014966  0  0  0.132727  0  1.013797  0  0  0.10439  0.126269  0  1.015804  0
C  C44  1  0.26748147  0.73251775  0.31221703  1  0  0.64807  0  3.964187  0  0  0.610371  0  4.241718  0  0  0.644495  0  4.234983  0  0  0.18095  0.587374  0  4.245427  0
C  C45  1  0.23251823  0.76748063  0.81221604  1  0  0.648032  0  3.96428  0  0  0.610319  0  4.241823  0  0  0.644442  0  4.23509  0  0  0.180904  0.587319  0  4.245526  0
C  C46  1  0.76748098  0.23251872  0.18778417  1  0  0.648004  0  3.964219  0  0  0.610303  0  4.241742  0  0  0.644427  0  4.235009  0  0  0.180917  0.587303  0  4.245449  0
C  C47  1  0.73251876  0.26748161  0.68778381  1  0  0.647989  0  3.964342  0  0  0.610275  0  4.24188  0  0  0.6444  0  4.235149  0  0  0.180885  0.587277  0  4.245584  0
C  C48  1  0.84856582  0.02520085  0.41879707  1  0  0.102233  0  3.727031  0  0  0.112916  0  3.959104  0  0  0.116959  0  3.979924  0  0  0.017483  0.11024  0  3.944946  0
C  C49  1  0.65143688  0.47480185  0.91879610  1  0  0.102271  0  3.727156  0  0  0.112916  0  3.959223  0  0  0.11696  0  3.980042  0  0  0.017486  0.110239  0  3.945061  0
C  C50  1  0.47479927  0.65143434  0.08120291  1  0  0.102176  0  3.727199  0  0  0.112893  0  3.959218  0  0  0.116935  0  3.980036  0  0  0.017477  0.110216  0  3.945058  0
C  C51  1  0.02520172  0.84856595  0.58120373  1  0  0.102228  0  3.727018  0  0  0.112926  0  3.959079  0  0  0.116972  0  3.979897  0  0  0.017489  0.11025  0  3.94492  0
C  C52  1  0.15143412  0.97479745  0.58120377  1  0  0.102225  0  3.72698  0  0  0.112903  0  3.959062  0  0  0.116946  0  3.979881  0  0  0.017492  0.110227  0  3.944902  0
C  C53  1  0.34856688  0.52520284  0.08120350  1  0  0.10216  0  3.72711  0  0  0.112855  0  3.95915  0  0  0.116899  0  3.979968  0  0  0.017481  0.110179  0  3.944992  0
C  C54  1  0.52519994  0.34856501  0.91879543  1  0  0.10214  0  3.727137  0  0  0.112891  0  3.959128  0  0  0.116936  0  3.979945  0  0  0.017483  0.110214  0  3.944966  0
C  C55  1  0.97479851  0.15143341  0.41879649  1  0  0.10217  0  3.727099  0  0  0.112858  0  3.959174  0  0  0.116904  0  3.979993  0  0  0.017481  0.110182  0  3.945016  0
C  C56  1  0.83236746  0.91751066  0.35864343  1  0  -0.138283  0  3.679544  0  0  -0.158882  0  3.928526  0  0  -0.165412  0  3.94834  0  0  -0.076079  -0.154563  0  3.915398  0
C  C57  1  0.66763168  0.58248824  0.85864362  1  0  -0.138192  0  3.679555  0  0  -0.158764  0  3.928544  0  0  -0.165294  0  3.948356  0  0  -0.076035  -0.154445  0  3.91541  0
C  C58  1  0.58248960  0.66763126  0.14135605  1  0  -0.138279  0  3.679601  0  0  -0.158896  0  3.928598  0  0  -0.165424  0  3.94841  0  0  -0.076088  -0.154578  0  3.915472  0
C  C59  1  0.91751128  0.83236744  0.64135702  1  0  -0.138219  0  3.679563  0  0  -0.158813  0  3.928544  0  0  -0.165341  0  3.948355  0  0  -0.076063  -0.154492  0  3.915411  0
C  C60  1  0.16763248  0.08248764  0.64135741  1  0  -0.138215  0  3.679509  0  0  -0.158809  0  3.928496  0  0  -0.165336  0  3.948307  0  0  -0.076062  -0.154489  0  3.915362  0
C  C61  1  0.33236753  0.41751112  0.14135660  1  0  -0.138171  0  3.679513  0  0  -0.158774  0  3.928484  0  0  -0.165302  0  3.948297  0  0  -0.076056  -0.154456  0  3.915357  0
C  C62  1  0.41751136  0.33236705  0.85864354  1  0  -0.138207  0  3.679619  0  0  -0.158815  0  3.928592  0  0  -0.165343  0  3.948402  0  0  -0.076049  -0.154495  0  3.915459  0
C  C63  1  0.08248720  0.16763296  0.35864319  1  0  -0.138162  0  3.67955  0  0  -0.158751  0  3.928532  0  0  -0.16528  0  3.948345  0  0  -0.076037  -0.154432  0  3.915404  0
C  C64  1  0.71553994  0.79806721  0.36244365  1  0  0.122258  0  3.721874  0  0  0.093024  0  3.970422  0  0  0.099185  0  3.990733  0  0  0.044755  0.088926  0  3.956476  0
C  C65  1  0.78445745  0.70193273  0.86244329  1  0  0.122218  0  3.721827  0  0  0.092976  0  3.970367  0  0  0.099143  0  3.990678  0  0  0.044728  0.088878  0  3.956416  0
C  C66  1  0.70193471  0.78445953  0.13755646  1  0  0.122291  0  3.721866  0  0  0.093063  0  3.970408  0  0  0.099229  0  3.99072  0  0  0.044761  0.088964  0  3.956462  0
C  C67  1  0.79806749  0.71554024  0.63755673  1  0  0.122175  0  3.721917  0  0  0.092944  0  3.970462  0  0  0.099111  0  3.990772  0  0  0.044723  0.088847  0  3.95651  0
C  C68  1  0.28445927  0.20193214  0.63755720  1  0  0.122199  0  3.721841  0  0  0.092975  0  3.970387  0  0  0.099141  0  3.990697  0  0  0.044735  0.088877  0  3.956434  0
C  C69  1  0.21554001  0.29806767  0.13755693  1  0  0.122123  0  3.721891  0  0  0.092899  0  3.970431  0  0  0.099064  0  3.990745  0  0  0.044691  0.0888  0  3.956485  0
C  C70  1  0.29806714  0.21554197  0.86244314  1  0  0.12227  0  3.721823  0  0  0.09303  0  3.970369  0  0  0.099201  0  3.990682  0  0  0.044757  0.088932  0  3.956417  0
C  C71  1  0.20193202  0.28446018  0.36244286  1  0  0.122141  0  3.721917  0  0  0.092909  0  3.970466  0  0  0.099074  0  3.990778  0  0  0.044709  0.088811  0  3.95652  0
C  C72  1  0.74093327  0.00652807  0.47935459  1  0  -0.162306  0  3.676522  0  0  -0.178988  0  3.921428  0  0  -0.187023  0  3.942238  0  0  -0.080889  -0.173336  0  3.907011  0
C  C73  1  0.75906688  0.49347255  0.97935304  1  0  -0.162262  0  3.676556  0  0  -0.178929  0  3.921478  0  0  -0.186964  0  3.942291  0  0  -0.080838  -0.173279  0  3.907061  0
C  C74  1  0.49347155  0.75906684  0.02064538  1  0  -0.162276  0  3.676511  0  0  -0.178966  0  3.921404  0  0  -0.187  0  3.942213  0  0  -0.080879  -0.173315  0  3.906984  0
C  C75  1  0.00652877  0.74093127  0.52064555  1  0  -0.162334  0  3.676477  0  0  -0.179018  0  3.921381  0  0  -0.187053  0  3.942191  0  0  -0.080873  -0.173369  0  3.906967  0
C  C76  1  0.25906799  0.99347130  0.52064563  1  0  -0.162315  0  3.676455  0  0  -0.178996  0  3.92137  0  0  -0.18703  0  3.942179  0  0  -0.080864  -0.173347  0  3.906955  0
C  C77  1  0.24093293  0.50652893  0.02064530  1  0  -0.162267  0  3.676541  0  0  -0.178962  0  3.921443  0  0  -0.186998  0  3.942252  0  0  -0.080872  -0.173311  0  3.907023  0
C  C78  1  0.50652737  0.24093145  0.97935296  1  0  -0.162277  0  3.676538  0  0  -0.178977  0  3.921424  0  0  -0.187013  0  3.942236  0  0  -0.08087  -0.173326  0  3.907005  0
C  C79  1  0.99347219  0.25906704  0.47935467  1  0  -0.162321  0  3.676578  0  0  -0.17901  0  3.921482  0  0  -0.187046  0  3.942292  0  0  -0.080898  -0.173358  0  3.907064  0
C  C80  1  0.18620396  0.81379519  0.26463614  1  0  -0.143869  0  3.663732  0  0  -0.16125  0  3.90846  0  0  -0.165376  0  3.922088  0  0  -0.083967  -0.158312  0  3.899356  0
C  C81  1  0.31379567  0.68620314  0.76463579  1  0  -0.143824  0  3.663768  0  0  -0.161222  0  3.908526  0  0  -0.165349  0  3.922153  0  0  -0.083941  -0.15828  0  3.899416  0
C  C82  1  0.68620324  0.31379514  0.23536567  1  0  -0.143798  0  3.663762  0  0  -0.16119  0  3.908503  0  0  -0.165317  0  3.922132  0  0  -0.083918  -0.158246  0  3.899395  0
C  C83  1  0.81379598  0.18620311  0.73536408  1  0  -0.143826  0  3.663798  0  0  -0.161211  0  3.908533  0  0  -0.165338  0  3.922159  0  0  -0.083947  -0.158272  0  3.899425  0
C  C84  1  0.62635953  0.88417829  0.47791171  1  0  0.131687  0  3.714834  0  0  0.101015  0  3.966093  0  0  0.107802  0  3.985924  0  0  0.046649  0.096449  0  3.952139  0
C  C85  1  0.87363904  0.61582178  0.97791136  1  0  0.131684  0  3.714743  0  0  0.100992  0  3.966021  0  0  0.107778  0  3.985853  0  0  0.046634  0.096424  0  3.952068  0
C  C86  1  0.61582424  0.87364113  0.02208838  1  0  0.131689  0  3.714835  0  0  0.101019  0  3.966091  0  0  0.107806  0  3.985923  0  0  0.04665  0.096454  0  3.952135  0
C  C87  1  0.88417809  0.62635959  0.52208805  1  0  0.131731  0  3.714825  0  0  0.101049  0  3.966081  0  0  0.107837  0  3.985912  0  0  0.046646  0.096481  0  3.95213  0
C  C88  1  0.37363998  0.11582213  0.52208914  1  0  0.131673  0  3.714794  0  0  0.100993  0  3.966062  0  0  0.10778  0  3.985893  0  0  0.046635  0.096426  0  3.95211  0
C  C89  1  0.12635944  0.38417863  0.02208823  1  0  0.131703  0  3.714867  0  0  0.101046  0  3.966114  0  0  0.107834  0  3.985944  0  0  0.046681  0.09648  0  3.952157  0
C  C90  1  0.38417761  0.12636036  0.97791121  1  0  0.131653  0  3.71485  0  0  0.100989  0  3.966113  0  0  0.107775  0  3.985947  0  0  0.046638  0.096422  0  3.952159  0
C  C91  1  0.11582244  0.37364084  0.47791217  1  0  0.131688  0  3.714863  0  0  0.10103  0  3.96611  0  0  0.107816  0  3.985942  0  0  0.046672  0.096464  0  3.952156  0
C  C92  1  0.18172365  0.81827532  0.18107423  1  0  -0.17459  0  3.662466  0  0  -0.188887  0  3.909185  0  0  -0.195573  0  3.923642  0  0  -0.089427  -0.184675  0  3.899354  0
C  C93  1  0.31827586  0.68172293  0.68107388  1  0  -0.174613  0  3.662384  0  0  -0.18893  0  3.909152  0  0  -0.19561  0  3.923602  0  0  -0.089485  -0.184721  0  3.899318  0
C  C94  1  0.68172335  0.31827642  0.31892633  1  0  -0.174677  0  3.662381  0  0  -0.189003  0  3.909153  0  0  -0.195682  0  3.923602  0  0  -0.089514  -0.184794  0  3.899323  0
C  C95  1  0.81827658  0.18172404  0.81892661  1  0  -0.174697  0  3.662424  0  0  -0.189008  0  3.909177  0  0  -0.195682  0  3.923621  0  0  -0.089511  -0.184797  0  3.899343  0
C  C96  1  0.09897856  0.90102158  0.13577200  1  0  0.678698  0  3.940036  0  0  0.631916  0  4.231137  0  0  0.667611  0  4.221611  0  0  0.196872  0.607823  0  4.236647  0
C  C97  1  0.40102222  0.59897770  0.63577229  1  0  0.678775  0  3.940067  0  0  0.631944  0  4.231207  0  0  0.66764  0  4.221676  0  0  0.196928  0.607853  0  4.236714  0
C  C98  1  0.59897802  0.40102166  0.36422793  1  0  0.678794  0  3.940037  0  0  0.631971  0  4.231162  0  0  0.667668  0  4.221634  0  0  0.19694  0.607881  0  4.236672  0
C  C99  1  0.90102270  0.09897779  0.86422760  1  0  0.678687  0  3.940098  0  0  0.631888  0  4.231219  0  0  0.667583  0  4.221692  0  0  0.196861  0.607796  0  4.236725  0
N  N100  1  0.61369885  0.78041140  0.42103894  1  0  -0.327517  0  3.268628  0  0  -0.248454  0  3.533281  0  0  -0.26888  0  3.553066  0  0  -0.328883  -0.233636  0  3.519191  0
N  N101  1  0.88630095  0.71958968  0.92103863  1  0  -0.327554  0  3.268474  0  0  -0.248493  0  3.533153  0  0  -0.268917  0  3.552933  0  0  -0.328907  -0.233674  0  3.519059  0
N  N102  1  0.71958860  0.88630090  0.07896116  1  0  -0.327557  0  3.268625  0  0  -0.248502  0  3.533286  0  0  -0.268926  0  3.553068  0  0  -0.328904  -0.233683  0  3.519193  0
N  N103  1  0.78041219  0.61369774  0.57896078  1  0  -0.327504  0  3.268611  0  0  -0.248452  0  3.533278  0  0  -0.268877  0  3.553059  0  0  -0.328868  -0.233633  0  3.519185  0
N  N104  1  0.38630138  0.21958796  0.57896128  1  0  -0.32748  0  3.268547  0  0  -0.248434  0  3.533214  0  0  -0.268858  0  3.552996  0  0  -0.328877  -0.233615  0  3.51912  0
N  N105  1  0.11369812  0.28041286  0.07896097  1  0  -0.327448  0  3.268591  0  0  -0.248416  0  3.533256  0  0  -0.268841  0  3.553038  0  0  -0.328863  -0.233597  0  3.519164  0
N  N106  1  0.28040988  0.11369951  0.92103844  1  0  -0.327561  0  3.268536  0  0  -0.248506  0  3.53321  0  0  -0.26893  0  3.55299  0  0  -0.328911  -0.233686  0  3.519116  0
N  N107  1  0.21958775  0.38630056  0.42103882  1  0  -0.327435  0  3.268586  0  0  -0.248392  0  3.533242  0  0  -0.268815  0  3.553023  0  0  -0.32886  -0.233573  0  3.51915  0
O  O108  1  0.33821186  0.66178849  0.27424195  1  0  -0.622001  0  1.932934  0  0  -0.566665  0  2.16126  0  0  -0.594689  0  2.155252  0  0  -0.330417  -0.547213  0  2.164991  0
O  O109  1  0.16178910  0.83821092  0.77424158  1  0  -0.621977  0  1.932932  0  0  -0.566631  0  2.161248  0  0  -0.594653  0  2.155238  0  0  -0.330383  -0.547185  0  2.164991  0
O  O110  1  0.83821113  0.16178844  0.22575864  1  0  -0.621993  0  1.932926  0  0  -0.566651  0  2.161233  0  0  -0.594674  0  2.155223  0  0  -0.330409  -0.547203  0  2.164973  0
O  O111  1  0.66178939  0.33821087  0.72575826  1  0  -0.621963  0  1.932945  0  0  -0.566621  0  2.161269  0  0  -0.594642  0  2.155261  0  0  -0.330381  -0.547174  0  2.165009  0
O  O112  1  0.26121317  0.73878603  0.39237188  1  0  -0.655259  0  1.955115  0  0  -0.591618  0  2.185692  0  0  -0.620981  0  2.175606  0  0  -0.336035  -0.571684  0  2.19233  0
O  O113  1  0.23878664  0.76121243  0.89237214  1  0  -0.65524  0  1.955111  0  0  -0.591569  0  2.185652  0  0  -0.620932  0  2.175568  0  0  -0.336001  -0.571635  0  2.192291  0
O  O114  1  0.76121257  0.23878692  0.10762870  1  0  -0.655217  0  1.955084  0  0  -0.591538  0  2.185616  0  0  -0.620901  0  2.175532  0  0  -0.336006  -0.571601  0  2.192249  0
O  O115  1  0.73878707  0.26121333  0.60762834  1  0  -0.655212  0  1.955129  0  0  -0.591554  0  2.185689  0  0  -0.620917  0  2.175605  0  0  -0.335995  -0.571618  0  2.192322  0
O  O116  1  0.03024278  0.96975838  0.17896844  1  0  -0.653633  0  2.017129  0  0  -0.584412  0  2.265587  0  0  -0.613248  0  2.253472  0  0  -0.326794  -0.564526  0  2.273431  0
O  O117  1  0.46975762  0.53024306  0.67896812  1  0  -0.653741  0  2.017267  0  0  -0.584388  0  2.265597  0  0  -0.613235  0  2.253507  0  0  -0.3268  -0.564501  0  2.273439  0
O  O118  1  0.53024290  0.46975736  0.32103210  1  0  -0.653738  0  2.017254  0  0  -0.584392  0  2.265598  0  0  -0.613228  0  2.253482  0  0  -0.326794  -0.564506  0  2.273442  0
O  O119  1  0.96975673  0.03024204  0.82103240  1  0  -0.653568  0  2.017189  0  0  -0.584327  0  2.265617  0  0  -0.613172  0  2.253522  0  0  -0.32676  -0.564442  0  2.273459  0
O  O120  1  0.10089447  0.89910599  0.05664632  1  0  -0.675576  0  2.02585  0  0  -0.61396  0  2.296284  0  0  -0.641545  0  2.280532  0  0  -0.337177  -0.595053  0  2.306624  0
O  O121  1  0.39910619  0.60089322  0.55664598  1  0  -0.675576  0  2.025831  0  0  -0.61396  0  2.296287  0  0  -0.641544  0  2.280534  0  0  -0.337184  -0.595055  0  2.306628  0
O  O122  1  0.60089404  0.39910615  0.44335423  1  0  -0.675595  0  2.025798  0  0  -0.613993  0  2.296276  0  0  -0.641579  0  2.280523  0  0  -0.337205  -0.595086  0  2.306617  0
O  O123  1  0.89910679  0.10089338  0.94335452  1  0  -0.675566  0  2.025787  0  0  -0.613941  0  2.296221  0  0  -0.641525  0  2.280468  0  0  -0.337152  -0.595034  0  2.306559  0
