# generated using pymatgen
data_CoH10C12N2O3F
_symmetry_space_group_name_H-M   'P 1'
_cell_length_a   7.31265972
_cell_length_b   9.49854134
_cell_length_c   11.28107886
_cell_angle_alpha   99.40211257
_cell_angle_beta   90.15544312
_cell_angle_gamma   112.67767367
_symmetry_Int_Tables_number   1
_chemical_formula_structural   CoH10C12N2O3F
_chemical_formula_sum   'Co2 H20 C24 N4 O6 F2'
_cell_volume   711.42673284
_cell_formula_units_Z   2
loop_
 _symmetry_equiv_pos_site_id
 _symmetry_equiv_pos_as_xyz
  1  'x, y, z'
loop_
 _atom_site_type_symbol
 _atom_site_label
 _atom_site_symmetry_multiplicity
 _atom_site_fract_x
 _atom_site_fract_y
 _atom_site_fract_z
 _atom_site_occupancy
 _atom_site_pbe_cm5_charge
 _atom_site_pbe_ddec_charge
 _atom_site_pbe_ddec_spin_density
 _atom_site_pbe_ddec_sum_bond_order
 _atom_site_pbe_magmom
Co  Co0  1  0.89728739  0.49367839  0.49982189  1  0.665879  0.963386  2.79361  2.520702  2.566
Co  Co1  1  0.40317883  0.50637747  0.50016115  1  0.666019  0.963581  -2.793854  2.523779  -2.566
H  H2  1  0.19358252  0.06943674  0.39742953  1  0.309628  0.35076  -0.000219  0.929348  0.0
H  H3  1  0.12398703  0.92950417  0.60377395  1  0.308573  0.3495  0.000212  0.932372  0.0
H  H4  1  0.84777602  0.25786187  0.27002517  1  0.117809  0.091453  0.000304  1.007385  0.001
H  H5  1  0.58927180  0.74145405  0.72940088  1  0.117526  0.091173  -0.000351  1.007064  -0.001
H  H6  1  0.85337648  0.25014514  0.04861050  1  0.103476  0.10762  0.000392  1.003524  0.0
H  H7  1  0.60369482  0.75011419  0.95097768  1  0.103202  0.107285  -0.000408  1.002712  0.0
H  H8  1  0.95289620  0.73649609  0.11866758  1  0.10511  0.110522  0.000346  1.001216  0.0
H  H9  1  0.21687248  0.26345029  0.88164172  1  0.105039  0.110428  -0.000332  1.001803  0.0
H  H10  1  0.95997591  0.72655134  0.33526604  1  0.11618  0.098849  0.000291  1.052497  0.001
H  H11  1  0.23336860  0.27241779  0.66491019  1  0.116357  0.099068  -0.000242  1.05416  -0.001
H  H12  1  0.12082477  0.71344484  0.72136444  1  0.119337  0.094703  0.000368  0.993606  0.001
H  H13  1  0.40667184  0.28709605  0.27909652  1  0.119348  0.094739  -0.000446  0.993422  -0.001
H  H14  1  0.13065627  0.72464122  0.94442020  1  0.102819  0.105634  0.000423  1.009204  0.0
H  H15  1  0.40579388  0.27588422  0.05608670  1  0.102396  0.10512  -0.000432  1.009449  0.0
H  H16  1  0.66910968  0.26278592  0.87997861  1  0.10399  0.107992  0.000438  1.005446  0.0
H  H17  1  0.40713521  0.73769259  0.11940914  1  0.103537  0.107354  -0.000436  1.005358  0.0
H  H18  1  0.67432390  0.27566782  0.66032793  1  0.123192  0.102311  0.000457  0.981777  0.001
H  H19  1  0.39900510  0.72485073  0.33909224  1  0.123157  0.102645  -0.000381  0.981558  -0.001
H  H20  1  0.78294589  0.97869069  0.38636454  1  0.109938  0.078071  -0.000147  0.956578  0.0
H  H21  1  0.80537110  0.02075649  0.61426070  1  0.109742  0.077451  0.000164  0.957196  0.0
C  C22  1  0.87145769  0.36145234  0.23223645  1  0.04381  0.0951  -0.004608  3.958438  -0.006
C  C23  1  0.50983848  0.63793313  0.76738824  1  0.043847  0.094468  0.00469  3.959891  0.006
C  C24  1  0.87177280  0.35771002  0.10869423  1  -0.09112  -0.187469  0.000321  3.982613  0.002
C  C25  1  0.51455367  0.64219290  0.89101355  1  -0.091452  -0.188032  -0.000414  3.982841  -0.002
C  C26  1  0.90105476  0.49290467  0.06253406  1  0.003295  0.091312  -0.009112  4.010874  -0.011
C  C27  1  0.40875893  0.50724289  0.93739919  1  0.002538  0.0916  0.009272  4.012442  0.011
C  C28  1  0.93128867  0.62712953  0.14699457  1  -0.08592  -0.174654  0.000148  3.956514  0.001
C  C29  1  0.30467846  0.37261459  0.85307732  1  -0.08608  -0.175704  6.2e-05  3.95622  -0.001
C  C30  1  0.93131446  0.62182423  0.26933976  1  0.047214  0.099405  -0.004863  3.923173  -0.006
C  C31  1  0.30951010  0.37735998  0.73070493  1  0.047371  0.10132  0.004966  3.922057  0.006
C  C32  1  0.02181911  0.61771206  0.76159663  1  0.047099  0.099997  -0.005634  3.956232  -0.007
C  C33  1  0.40359127  0.38279945  0.23863503  1  0.045884  0.098398  0.005602  3.956943  0.007
C  C34  1  0.02577424  0.62246163  0.88519639  1  -0.090448  -0.184742  0.000929  3.978203  0.003
C  C35  1  0.40318145  0.37804861  0.11505598  1  -0.090368  -0.183672  -0.000928  3.979439  -0.003
C  C36  1  0.90034545  0.49346990  0.93231253  1  0.00211  0.093355  -0.010133  4.001663  -0.012
C  C37  1  0.40726567  0.50701191  0.06763089  1  0.002684  0.093319  0.010338  4.002954  0.012
C  C38  1  0.77365076  0.36517053  0.84929969  1  -0.09009  -0.184377  0.0009  3.9744  0.002
C  C39  1  0.40892960  0.63529164  0.15034837  1  -0.089899  -0.184709  -0.000908  3.974235  -0.003
C  C40  1  0.77478384  0.37091901  0.72712626  1  0.048815  0.100493  -0.005612  3.944304  -0.007
C  C41  1  0.40388862  0.62953024  0.27253541  1  0.048436  0.100602  0.005972  3.946102  0.008
C  C42  1  0.00289925  0.20653211  0.46079156  1  0.209465  0.553831  0.000148  4.1877  -0.001
C  C43  1  0.79721031  0.79328669  0.53941461  1  0.208893  0.551631  -0.00014  4.189926  0.001
C  C44  1  0.92774506  0.02884268  0.43865485  1  -0.010988  0.036382  0.000232  3.888321  0.0
C  C45  1  0.89973434  0.97102936  0.56175854  1  -0.010414  0.036954  -0.000309  3.889243  0.0
N  N46  1  0.89758795  0.49471070  0.68309036  1  -0.326604  -0.242406  0.023012  3.583346  0.038
N  N47  1  0.40250157  0.50584128  0.31688065  1  -0.325808  -0.241546  -0.022741  3.584483  -0.039
N  N48  1  0.90041772  0.49098612  0.31286455  1  -0.319099  -0.247954  0.019575  3.560556  0.033
N  N49  1  0.40894558  0.50803258  0.68689870  1  -0.319385  -0.249262  -0.019281  3.561417  -0.033
O  O50  1  0.87373976  0.26494908  0.47595475  1  -0.309336  -0.561543  0.038138  2.392561  0.06
O  O51  1  0.60968054  0.73465193  0.52233471  1  -0.308873  -0.56043  -0.038435  2.39566  -0.061
O  O52  1  0.19028306  0.27635523  0.46228387  1  -0.302732  -0.565086  -0.03225  2.423763  -0.05
O  O53  1  0.91493843  0.72389817  0.53967525  1  -0.302021  -0.563755  0.031656  2.423908  0.049
O  O54  1  0.06583968  0.98155390  0.37235059  1  -0.408693  -0.492746  0.001215  2.240032  0.002
O  O55  1  0.08602024  0.01844750  0.62771265  1  -0.409079  -0.493033  -0.001238  2.242569  -0.002
F  F56  1  0.60206016  0.40981090  0.48548234  1  -0.342588  -0.538466  -0.00057  1.171596  -0.001
F  F57  1  0.19302263  0.59129706  0.51364136  1  -0.342717  -0.538225  0.000241  1.170756  0.0
