# generated using pymatgen
data_LaH4C5O9
_symmetry_space_group_name_H-M   'P 1'
_cell_length_a   6.23168884
_cell_length_b   6.67998623
_cell_length_c   23.98379849
_cell_angle_alpha   90.00137983
_cell_angle_beta   88.93231221
_cell_angle_gamma   89.99903449
_symmetry_Int_Tables_number   1
_chemical_formula_structural   LaH4C5O9
_chemical_formula_sum   'La4 H16 C20 O36'
_cell_volume   998.21452518
_cell_formula_units_Z   4
loop_
 _symmetry_equiv_pos_site_id
 _symmetry_equiv_pos_as_xyz
  1  'x, y, z'
loop_
 _atom_site_type_symbol
 _atom_site_label
 _atom_site_symmetry_multiplicity
 _atom_site_fract_x
 _atom_site_fract_y
 _atom_site_fract_z
 _atom_site_occupancy
 _atom_site_pbe_bader_charge
 _atom_site_pbe_bader_spin_density
 _atom_site_pbe_cm5_charge
 _atom_site_pbe_ddec_charge
 _atom_site_pbe_ddec_spin_density
 _atom_site_pbe_ddec_sum_bond_order
 _atom_site_pbe_magmom
La  La0  1  0.60681513  0.04425805  0.13200923  1  2.26151  0  1.373799  1.86212  0  2.321065  0
La  La1  1  0.39315987  0.54428442  0.36799487  1  2.261426  0  1.373907  1.862202  0  2.321028  0
La  La2  1  0.39315448  0.95573805  0.86799083  1  2.261532  0  1.373906  1.862207  0  2.320961  0
La  La3  1  0.60686892  0.45572366  0.63200736  1  2.261482  0  1.373932  1.862135  0  2.321162  0
H  H4  1  0.92646306  0.06424560  0.30142796  1  0.11582  0  0.126093  0.084724  0  0.975138  0
H  H5  1  0.80947344  0.07270115  0.41067149  1  0.164247  0  0.124973  0.087606  0  1.011631  0
H  H6  1  0.05528201  0.90469335  0.12777309  1  0.629974  0  0.306957  0.390297  0  0.952701  0
H  H7  1  0.97749667  0.83339986  0.07019628  1  0.601105  0  0.328512  0.41426  0  0.870095  0
H  H8  1  0.07353438  0.56429695  0.19857215  1  0.115795  0  0.126076  0.084707  0  0.975387  0
H  H9  1  0.19047227  0.57266479  0.08933112  1  0.164217  0  0.124989  0.087664  0  1.011475  0
H  H10  1  0.94469895  0.40470839  0.37223089  1  0.63003  0  0.307002  0.390427  0  0.952504  0
H  H11  1  0.02249078  0.33340278  0.42980424  1  0.601034  0  0.328536  0.414258  0  0.870162  0
H  H12  1  0.07353547  0.93571158  0.69857172  1  0.115854  0  0.126054  0.084655  0  0.975279  0
H  H13  1  0.19055627  0.92729645  0.58933824  1  0.164456  0  0.124957  0.087559  0  1.011414  0
H  H14  1  0.94469658  0.09529975  0.87223407  1  0.630108  0  0.306932  0.390317  0  0.952684  0
H  H15  1  0.02247409  0.16661570  0.92980879  1  0.60089  0  0.32861  0.414329  0  0.870123  0
H  H16  1  0.92645892  0.43571112  0.80143211  1  0.115722  0  0.126046  0.084703  0  0.97517  0
H  H17  1  0.80948955  0.42732382  0.91066643  1  0.164362  0  0.12498  0.087629  0  1.011395  0
H  H18  1  0.05531746  0.59528921  0.62776631  1  0.629981  0  0.306941  0.390358  0  0.952608  0
H  H19  1  0.97752704  0.66663074  0.57019505  1  0.601014  0  0.328538  0.414223  0  0.870223  0
C  C20  1  0.62797729  0.20897731  0.26611054  1  1.626065  0  0.230469  0.572138  0  4.213345  0
C  C21  1  0.82486407  0.07024346  0.26399950  1  0.936341  0  0.136943  0.215207  0  3.781643  0
C  C22  1  0.74029994  0.92738710  0.39861582  1  0.894101  0  0.137099  0.215973  0  3.767151  0
C  C23  1  0.88820121  0.76766165  0.37217833  1  1.604193  0  0.220036  0.531046  0  4.231271  0
C  C24  1  0.60266152  0.06143841  0.99224918  1  1.575046  0  0.210847  0.482702  0  4.256907  0
C  C25  1  0.37201370  0.70897752  0.23389486  1  1.626969  0  0.230552  0.572439  0  4.213304  0
C  C26  1  0.17511076  0.57026468  0.23600105  1  0.935858  0  0.136997  0.215121  0  3.781584  0
C  C27  1  0.25965623  0.42735006  0.10139122  1  0.894165  0  0.137086  0.215959  0  3.766775  0
C  C28  1  0.11176443  0.26763773  0.12782874  1  1.603857  0  0.220068  0.531318  0  4.231039  0
C  C29  1  0.39736126  0.56146479  0.50775053  1  1.595013  0  0.210989  0.482632  0  4.256851  0
C  C30  1  0.37201918  0.79099783  0.73389414  1  1.626913  0  0.230458  0.57228  0  4.213783  0
C  C31  1  0.17512159  0.92973018  0.73600058  1  0.936228  0  0.137042  0.215257  0  3.781566  0
C  C32  1  0.25973466  0.07262397  0.60139308  1  0.89341  0  0.137225  0.216277  0  3.766281  0
C  C33  1  0.11183701  0.23235391  0.62782599  1  1.604373  0  0.220141  0.531126  0  4.231168  0
C  C34  1  0.39730389  0.93854721  0.00774420  1  1.596262  0  0.210779  0.482874  0  4.257897  0
C  C35  1  0.62798491  0.29101559  0.76610399  1  1.62711  0  0.230612  0.572402  0  4.213463  0
C  C36  1  0.82488132  0.42973142  0.76399904  1  0.935913  0  0.136988  0.215142  0  3.781606  0
C  C37  1  0.74030379  0.57264005  0.89860841  1  0.893705  0  0.13706  0.215962  0  3.766635  0
C  C38  1  0.88820155  0.73236286  0.87217590  1  1.604165  0  0.220177  0.531273  0  4.23098  0
C  C39  1  0.60271383  0.43855975  0.49225425  1  1.575507  0  0.210767  0.483043  0  4.257692  0
O  O40  1  0.54432074  0.24826370  0.21974460  1  -1.165377  0  -0.351078  -0.57842  0  2.230731  0
O  O41  1  0.56870856  0.26774313  0.31407073  1  -1.176018  0  -0.356274  -0.567907  0  2.22901  0
O  O42  1  0.86691452  0.97014765  0.22242872  1  -1.091803  0  -0.229353  -0.323549  0  2.299251  0
O  O43  1  0.55036191  0.88787526  0.40730629  1  -1.080952  0  -0.235749  -0.317714  0  2.266841  0
O  O44  1  0.79188192  0.61175421  0.35521210  1  -1.170439  0  -0.348738  -0.586994  0  2.377683  0
O  O45  1  0.08725299  0.79917804  0.37144593  1  -1.162663  0  -0.336968  -0.545117  0  2.233046  0
O  O46  1  0.62292560  0.11553229  0.94171757  1  -1.189546  0  -0.361476  -0.572974  0  2.292336  0
O  O47  1  0.73293789  0.09627741  0.03086083  1  -1.174646  0  -0.363474  -0.575269  0  2.256177  0
O  O48  1  0.93750542  0.82790911  0.10977426  1  -1.207352  0  -0.612767  -0.788323  0  2.029313  0
O  O49  1  0.45567440  0.74826913  0.28025985  1  -1.16555  0  -0.351001  -0.578439  0  2.231042  0
O  O50  1  0.43129429  0.76772242  0.18593305  1  -1.176409  0  -0.356392  -0.56814  0  2.228911  0
O  O51  1  0.13304802  0.47017202  0.27756990  1  -1.091618  0  -0.229405  -0.323502  0  2.298948  0
O  O52  1  0.44959711  0.38784078  0.09269544  1  -1.080335  0  -0.235693  -0.317758  0  2.26646  0
O  O53  1  0.20808341  0.11173315  0.14479585  1  -1.170597  0  -0.348683  -0.587121  0  2.377634  0
O  O54  1  0.91270847  0.29916638  0.12856513  1  -1.162681  0  -0.337049  -0.545225  0  2.233  0
O  O55  1  0.37708778  0.61555076  0.55828589  1  -1.189354  0  -0.361445  -0.572851  0  2.29237  0
O  O56  1  0.26708918  0.59632366  0.46914207  1  -1.174362  0  -0.363672  -0.575348  0  2.256145  0
O  O57  1  0.06247885  0.32793094  0.39022704  1  -1.207293  0  -0.612836  -0.788457  0  2.029333  0
O  O58  1  0.45566786  0.75171893  0.78025840  1  -1.165613  0  -0.351004  -0.578429  0  2.231151  0
O  O59  1  0.43129593  0.73224699  0.68593396  1  -1.176385  0  -0.356339  -0.568063  0  2.229183  0
O  O60  1  0.13306957  0.02982749  0.77757094  1  -1.091893  0  -0.229407  -0.323548  0  2.29903  0
O  O61  1  0.44968697  0.11210736  0.59270430  1  -1.080222  0  -0.235795  -0.317837  0  2.266275  0
O  O62  1  0.20815711  0.38827632  0.64478346  1  -1.170725  0  -0.348969  -0.587253  0  2.377805  0
O  O63  1  0.91278669  0.20084052  0.62856006  1  -1.162881  0  -0.336853  -0.545023  0  2.23307  0
O  O64  1  0.37705788  0.88447429  0.05827124  1  -1.189737  0  -0.361452  -0.573008  0  2.292187  0
O  O65  1  0.26708590  0.90371569  0.96914347  1  -1.175052  0  -0.363406  -0.575172  0  2.257419  0
O  O66  1  0.06247645  0.17209148  0.89023207  1  -1.207207  0  -0.612844  -0.788434  0  2.029307  0
O  O67  1  0.54432910  0.25172697  0.71973816  1  -1.165427  0  -0.351015  -0.578372  0  2.231014  0
O  O68  1  0.56870928  0.23226170  0.81406413  1  -1.176715  0  -0.35644  -0.56819  0  2.22903  0
O  O69  1  0.86695502  0.52983006  0.72243312  1  -1.091537  0  -0.229378  -0.323488  0  2.299061  0
O  O70  1  0.55035700  0.61213885  0.90729876  1  -1.080394  0  -0.235713  -0.317714  0  2.266541  0
O  O71  1  0.79188070  0.88827044  0.85521171  1  -1.170657  0  -0.348882  -0.587226  0  2.377723  0
O  O72  1  0.08725445  0.70083421  0.87143784  1  -1.162727  0  -0.336919  -0.545072  0  2.23294  0
O  O73  1  0.62294674  0.38448875  0.44172385  1  -1.189283  0  -0.361379  -0.573054  0  2.292208  0
O  O74  1  0.73293212  0.40370987  0.53085430  1  -1.175097  0  -0.363433  -0.575215  0  2.257218  0
O  O75  1  0.93752774  0.67208163  0.60977223  1  -1.207201  0  -0.612792  -0.788345  0  2.029307  0
