# generated using pymatgen
data_KH15(C5O4)2
_symmetry_space_group_name_H-M   'P 1'
_cell_length_a   9.39826019
_cell_length_b   11.14759238
_cell_length_c   12.78200000
_cell_angle_alpha   90.00000000
_cell_angle_beta   90.00000000
_cell_angle_gamma   93.34204984
_symmetry_Int_Tables_number   1
_chemical_formula_structural   KH15(C5O4)2
_chemical_formula_sum   'K4 H60 C40 O32'
_cell_volume   1336.86675875
_cell_formula_units_Z   4
loop_
 _symmetry_equiv_pos_site_id
 _symmetry_equiv_pos_as_xyz
  1  'x, y, z'
loop_
 _atom_site_type_symbol
 _atom_site_label
 _atom_site_symmetry_multiplicity
 _atom_site_fract_x
 _atom_site_fract_y
 _atom_site_fract_z
 _atom_site_occupancy
 _atom_site_hle17_bader_spin_density
 _atom_site_hle17_ddec_charge
 _atom_site_hle17_ddec_spin_density
 _atom_site_hle17_ddec_sum_bond_order
 _atom_site_hle17_magmom
 _atom_site_hse06_10hf_bader_spin_density
 _atom_site_hse06_10hf_ddec_charge
 _atom_site_hse06_10hf_ddec_spin_density
 _atom_site_hse06_10hf_ddec_sum_bond_order
 _atom_site_hse06_10hf_magmom
 _atom_site_hse06_bader_spin_density
 _atom_site_hse06_ddec_charge
 _atom_site_hse06_ddec_spin_density
 _atom_site_hse06_ddec_sum_bond_order
 _atom_site_hse06_magmom
 _atom_site_pbe_bader_charge
 _atom_site_pbe_bader_spin_density
 _atom_site_pbe_cm5_charge
 _atom_site_pbe_ddec_charge
 _atom_site_pbe_ddec_spin_density
 _atom_site_pbe_ddec_sum_bond_order
 _atom_site_pbe_magmom
K  K0  1  0.56446172  0.88182254  0.58039039  1  0  0.926863  0  0.439781  0  0  0.871049  0  0.629976  0  0  0.887094  0  0.605879  0  0.894699  0  0.748989  0.859067  0  0.647296  0
K  K1  1  0.93553693  0.11817713  0.08039118  1  0  0.926877  0  0.439762  0  0  0.871063  0  0.629952  0  0  0.887111  0  0.605855  0  0.894716  0  0.748988  0.859076  0  0.647283  0
K  K2  1  0.43553688  0.11817623  0.41960961  1  0  0.926868  0  0.43978  0  0  0.871049  0  0.62998  0  0  0.887094  0  0.605883  0  0.8947  0  0.748985  0.859048  0  0.647334  0
K  K3  1  0.06446286  0.88182344  0.91960882  1  0  0.926874  0  0.43976  0  0  0.871065  0  0.629947  0  0  0.887112  0  0.60585  0  0.894704  0  0.748992  0.859075  0  0.647283  0
H  H4  1  0.20922896  0.33557309  0.45572759  1  0  0.38959  0  0.921112  0  0  0.357085  0  1.002249  0  0  0.370672  0  0.985045  0  0.641583  0  0.292964  0.347668  0  1.011153  0
H  H5  1  0.29076966  0.66442568  0.95572680  1  0  0.389608  0  0.921087  0  0  0.357102  0  1.002226  0  0  0.370689  0  0.98502  0  0.641586  0  0.292964  0.347684  0  1.01113  0
H  H6  1  0.79077077  0.66442658  0.54427241  1  0  0.389594  0  0.921107  0  0  0.357093  0  1.002236  0  0  0.370679  0  0.985034  0  0.641585  0  0.292957  0.347676  0  1.01114  0
H  H7  1  0.70923007  0.33557399  0.04427320  1  0  0.389612  0  0.92109  0  0  0.357106  0  1.002227  0  0  0.370693  0  0.985017  0  0.641588  0  0.292955  0.347689  0  1.011132  0
H  H8  1  0.74547202  0.85818981  0.79887185  1  0  0.390812  0  0.908561  0  0  0.357792  0  0.992018  0  0  0.371666  0  0.977385  0  0.63603  0  0.297558  0.348086  0  1.002115  0
H  H9  1  0.75452770  0.14180986  0.29887107  1  0  0.390794  0  0.908604  0  0  0.357766  0  0.992079  0  0  0.37164  0  0.977433  0  0.636025  0  0.297541  0.348059  0  1.002176  0
H  H10  1  0.25452665  0.14180986  0.20112893  1  0  0.39082  0  0.908558  0  0  0.357795  0  0.99202  0  0  0.371668  0  0.977384  0  0.636029  0  0.297554  0.348088  0  1.002118  0
H  H11  1  0.24547209  0.85819071  0.70112893  1  0  0.39081  0  0.908582  0  0  0.357785  0  0.992048  0  0  0.371659  0  0.977403  0  0.636014  0  0.297554  0.348079  0  1.002146  0
H  H12  1  0.09052784  0.33208928  0.91658035  1  0  0.407095  0  0.888253  0  0  0.376103  0  0.964843  0  0  0.388722  0  0.946831  0  0.662332  0  0.306823  0.367373  0  0.977253  0
H  H13  1  0.40947084  0.66791038  0.41658035  1  0  0.407102  0  0.888252  0  0  0.376112  0  0.964832  0  0  0.388732  0  0.946819  0  0.662337  0  0.306828  0.367382  0  0.977241  0
H  H14  1  0.90947089  0.66791128  0.08341965  1  0  0.407098  0  0.888259  0  0  0.376108  0  0.964839  0  0  0.388726  0  0.946828  0  0.662337  0  0.306825  0.367378  0  0.977248  0
H  H15  1  0.59052895  0.33209018  0.58341965  1  0  0.407104  0  0.888246  0  0  0.376116  0  0.964826  0  0  0.388735  0  0.946814  0  0.662334  0  0.306828  0.367386  0  0.977235  0
H  H16  1  0.43571225  0.55575466  0.86645048  1  0  0.110801  0  0.932896  0  0  0.126521  0  0.989422  0  0  0.128962  0  0.988246  0  0.059204  0  0.102382  0.124615  0  0.99062  0
H  H17  1  0.06428655  0.44424681  0.36645126  1  0  0.110773  0  0.932903  0  0  0.126499  0  0.989427  0  0  0.128942  0  0.988253  0  0.059174  0  0.102364  0.124591  0  0.990624  0
H  H18  1  0.56428754  0.44424591  0.13354952  1  0  0.110786  0  0.932901  0  0  0.126515  0  0.989431  0  0  0.128955  0  0.988255  0  0.059198  0  0.102375  0.124608  0  0.99063  0
H  H19  1  0.93571324  0.55575376  0.63354952  1  0  0.110775  0  0.932914  0  0  0.126499  0  0.989439  0  0  0.128942  0  0.988264  0  0.059185  0  0.102366  0.12459  0  0.990638  0
H  H20  1  0.57044282  0.65824163  0.81880457  1  0  0.111666  0  0.930366  0  0  0.127893  0  0.986978  0  0  0.130287  0  0.986016  0  0.056199  0  0.107856  0.126079  0  0.987814  0
H  H21  1  0.92955796  0.34175804  0.31880535  1  0  0.111679  0  0.930344  0  0  0.127907  0  0.986958  0  0  0.130302  0  0.985998  0  0.056181  0  0.107859  0.12609  0  0.987793  0
H  H22  1  0.42955797  0.34175804  0.18119465  1  0  0.111673  0  0.930352  0  0  0.127908  0  0.986967  0  0  0.130301  0  0.986004  0  0.056199  0  0.107861  0.126094  0  0.987802  0
H  H23  1  0.07044390  0.65824163  0.68119387  1  0  0.111657  0  0.930355  0  0  0.127885  0  0.986972  0  0  0.130281  0  0.986012  0  0.056167  0  0.107846  0.126069  0  0.987807  0
H  H24  1  0.52181472  0.59521413  0.63580269  1  0  0.072002  0  0.958045  0  0  0.085322  0  1.0259  0  0  0.087254  0  1.025441  0  0.049161  0  0.093234  0.083811  0  1.026354  0
H  H25  1  0.97818500  0.40478554  0.13580426  1  0  0.071998  0  0.958029  0  0  0.085313  0  1.025882  0  0  0.087243  0  1.025424  0  0.049169  0  0.093235  0.083808  0  1.02633  0
H  H26  1  0.47818495  0.40478464  0.36419653  1  0  0.072025  0  0.958039  0  0  0.085347  0  1.025886  0  0  0.08728  0  1.025425  0  0.049161  0  0.093232  0.083825  0  1.02635  0
H  H27  1  0.02181480  0.59521503  0.86419574  1  0  0.072001  0  0.958039  0  0  0.085318  0  1.025881  0  0  0.08725  0  1.025422  0  0.049168  0  0.093235  0.083795  0  1.026346  0
H  H28  1  0.55304354  0.46909083  0.71399312  1  0  0.064691  0  0.952917  0  0  0.082603  0  1.016628  0  0  0.083406  0  1.017111  0  0.031045  0  0.091113  0.081816  0  1.016515  0
H  H29  1  0.94695625  0.53090974  0.21399312  1  0  0.064716  0  0.952885  0  0  0.082611  0  1.016614  0  0  0.083414  0  1.017096  0  0.031045  0  0.091109  0.081824  0  1.0165  0
H  H30  1  0.44695619  0.53090884  0.28600688  1  0  0.064711  0  0.952921  0  0  0.082619  0  1.01663  0  0  0.083423  0  1.017112  0  0.031041  0  0.091112  0.081832  0  1.016514  0
H  H31  1  0.05304355  0.46909083  0.78600688  1  0  0.064692  0  0.952926  0  0  0.082598  0  1.016634  0  0  0.083402  0  1.017116  0  0.031043  0  0.091106  0.081811  0  1.016517  0
H  H32  1  0.25772769  0.55202284  0.65200282  1  0  0.10913  0  0.942943  0  0  0.123501  0  1.000887  0  0  0.125915  0  1.000089  0  0.062097  0  0.104015  0.121895  0  1.001459  0
H  H33  1  0.24227205  0.44797683  0.15200282  1  0  0.109143  0  0.942949  0  0  0.123504  0  1.000895  0  0  0.125919  0  1.000098  0  0.062077  0  0.104011  0.121898  0  1.001467  0
H  H34  1  0.74227204  0.44797683  0.34799718  1  0  0.109143  0  0.942943  0  0  0.123505  0  1.000883  0  0  0.12592  0  1.000086  0  0.062098  0  0.104016  0.121899  0  1.001456  0
H  H35  1  0.75772768  0.55202284  0.84799640  1  0  0.109123  0  0.942948  0  0  0.123499  0  1.000885  0  0  0.125914  0  1.000087  0  0.062081  0  0.10401  0.121893  0  1.001457  0
H  H36  1  0.28584200  0.42759068  0.73246284  1  0  0.109735  0  0.942758  0  0  0.122845  0  1.007788  0  0  0.124913  0  1.007376  0  0.066907  0  0.103979  0.12135  0  1.008161  0
H  H37  1  0.21415781  0.57240989  0.23246284  1  0  0.109732  0  0.942814  0  0  0.122845  0  1.00783  0  0  0.124915  0  1.007418  0  0.066901  0  0.103975  0.121351  0  1.008201  0
H  H38  1  0.71415880  0.57240899  0.26753638  1  0  0.109745  0  0.942764  0  0  0.122837  0  1.007799  0  0  0.124906  0  1.007387  0  0.066933  0  0.103964  0.121342  0  1.008172  0
H  H39  1  0.78584198  0.42759068  0.76753638  1  0  0.109782  0  0.942757  0  0  0.122853  0  1.007833  0  0  0.124921  0  1.007422  0  0.066923  0  0.103978  0.121358  0  1.008205  0
H  H40  1  0.40872593  0.26156490  0.79054139  1  0  0.107127  0  0.920537  0  0  0.125344  0  0.975707  0  0  0.126815  0  0.976445  0  0.052988  0  0.107526  0.124293  0  0.975312  0
H  H41  1  0.09127387  0.73843566  0.29054139  1  0  0.10711  0  0.920537  0  0  0.125336  0  0.975703  0  0  0.126806  0  0.976441  0  0.052986  0  0.107521  0.124286  0  0.975308  0
H  H42  1  0.59127386  0.73843566  0.20945861  1  0  0.107127  0  0.920541  0  0  0.125345  0  0.975707  0  0  0.126816  0  0.976445  0  0.052988  0  0.107523  0.124294  0  0.975312  0
H  H43  1  0.90872479  0.26156401  0.70945940  1  0  0.107076  0  0.920554  0  0  0.1253  0  0.975729  0  0  0.126769  0  0.976469  0  0.052971  0  0.107506  0.124251  0  0.975334  0
H  H44  1  0.45931809  0.29258399  0.91972618  1  0  0.118745  0  0.914264  0  0  0.13597  0  0.967189  0  0  0.138481  0  0.966376  0  0.090498  0  0.109048  0.134057  0  0.968086  0
H  H45  1  0.04068171  0.70741658  0.41972618  1  0  0.118737  0  0.914244  0  0  0.135966  0  0.967174  0  0  0.138478  0  0.966359  0  0.090524  0  0.109043  0.134054  0  0.968071  0
H  H46  1  0.54068170  0.70741658  0.08027382  1  0  0.11875  0  0.914254  0  0  0.135973  0  0.967186  0  0  0.138486  0  0.96637  0  0.090502  0  0.109045  0.134061  0  0.968081  0
H  H47  1  0.95931802  0.29258309  0.58027460  1  0  0.118712  0  0.914272  0  0  0.135945  0  0.967201  0  0  0.138456  0  0.966387  0  0.090563  0  0.109038  0.134033  0  0.968098  0
H  H48  1  0.45694603  0.06674854  0.95483492  1  0  0.06626  0  0.942796  0  0  0.086663  0  0.999341  0  0  0.087315  0  0.999718  0  0.044408  0  0.095862  0.08603  0  0.999313  0
H  H49  1  0.04305371  0.93325113  0.45483571  1  0  0.066293  0  0.942779  0  0  0.086706  0  0.999297  0  0  0.08736  0  0.999672  0  0.04435  0  0.095877  0.086062  0  0.999284  0
H  H50  1  0.54305370  0.93325113  0.04516429  1  0  0.06629  0  0.942777  0  0  0.086703  0  0.999294  0  0  0.087357  0  0.999669  0  0.044348  0  0.095875  0.086057  0  0.999285  0
H  H51  1  0.95694609  0.06674943  0.54516429  1  0  0.066288  0  0.942784  0  0  0.086701  0  0.999303  0  0  0.087355  0  0.999678  0  0.044408  0  0.095876  0.086056  0  0.999291  0
H  H52  1  0.41933161  0.03994291  0.82106713  1  0  0.077837  0  0.939822  0  0  0.094508  0  1.001752  0  0  0.096098  0  1.001403  0  0.041336  0  0.101287  0.093225  0  1.002193  0
H  H53  1  0.08066925  0.96005766  0.32106791  1  0  0.077846  0  0.939819  0  0  0.094518  0  1.001752  0  0  0.096107  0  1.001403  0  0.041333  0  0.101288  0.093253  0  1.002168  0
H  H54  1  0.58066924  0.96005766  0.17893209  1  0  0.077845  0  0.939815  0  0  0.094517  0  1.001749  0  0  0.096107  0  1.0014  0  0.041333  0  0.10129  0.093252  0  1.002165  0
H  H55  1  0.91933048  0.03994201  0.67893209  1  0  0.077838  0  0.93982  0  0  0.094509  0  1.001753  0  0  0.0961  0  1.001404  0  0.041329  0  0.101287  0.093244  0  1.00217  0
H  H56  1  0.67817573  0.19270380  0.90443905  1  0  0.097334  0  0.965962  0  0  0.109473  0  1.029651  0  0  0.111503  0  1.029529  0  0.057987  0  0.102711  0.108046  0  1.029688  0
H  H57  1  0.82182399  0.80729587  0.40443749  1  0  0.097355  0  0.965931  0  0  0.109508  0  1.029619  0  0  0.111539  0  1.029496  0  0.057712  0  0.102746  0.108082  0  1.029657  0
H  H58  1  0.32182400  0.80729587  0.09556173  1  0  0.09734  0  0.965951  0  0  0.10949  0  1.029643  0  0  0.11152  0  1.029521  0  0.057993  0  0.102726  0.108064  0  1.02968  0
H  H59  1  0.17817574  0.19270380  0.59556173  1  0  0.097341  0  0.965953  0  0  0.10949  0  1.029643  0  0  0.111521  0  1.02952  0  0.057718  0  0.102726  0.108064  0  1.029679  0
H  H60  1  0.63676706  0.16774566  0.77140275  1  0  0.103986  0  0.943014  0  0  0.121393  0  0.999246  0  0  0.122571  0  1.000003  0  0.060889  0  0.107333  0.120526  0  0.998895  0
H  H61  1  0.86323485  0.83225491  0.27140119  1  0  0.103974  0  0.943029  0  0  0.121396  0  0.999261  0  0  0.122575  0  1.000018  0  0.060871  0  0.107334  0.12053  0  0.99891  0
H  H62  1  0.36323380  0.83225491  0.22859803  1  0  0.10397  0  0.943035  0  0  0.12139  0  0.999269  0  0  0.122568  0  1.000027  0  0.060887  0  0.107331  0.120524  0  0.998918  0
H  H63  1  0.13676594  0.16774476  0.72859803  1  0  0.103968  0  0.943038  0  0  0.121384  0  0.999277  0  0  0.122562  0  1.000034  0  0.060884  0  0.107327  0.120517  0  0.998925  0
C  C64  1  0.36272109  0.71326366  0.79092943  1  0  0.727528  0  3.787648  0  0  0.682506  0  4.088341  0  0  0.715489  0  4.080456  0  1.53962  0  0.228122  0.660124  0  4.092929  0
C  C65  1  0.13727878  0.28673781  0.29092630  1  0  0.727321  0  3.787787  0  0  0.682309  0  4.088464  0  0  0.715295  0  4.080581  0  1.539615  0  0.228016  0.659926  0  4.093051  0
C  C66  1  0.63727865  0.28673601  0.20907057  1  0  0.727538  0  3.787546  0  0  0.68254  0  4.088213  0  0  0.715524  0  4.080325  0  1.539626  0  0.22812  0.660158  0  4.092801  0
C  C67  1  0.86272202  0.71326186  0.70907370  1  0  0.727364  0  3.787774  0  0  0.68235  0  4.088462  0  0  0.715336  0  4.080578  0  1.539622  0  0.22802  0.659966  0  4.093051  0
C  C68  1  0.46595139  0.61362070  0.79951260  1  0  -0.280971  0  3.661369  0  0  -0.317765  0  3.912462  0  0  -0.323771  0  3.920473  0  -0.030519  0  -0.162259  -0.313629  0  3.906833  0
C  C69  1  0.03404741  0.38638077  0.29951416  1  0  -0.280861  0  3.661264  0  0  -0.317685  0  3.912373  0  0  -0.323704  0  3.920399  0  -0.030534  0  -0.162182  -0.313543  0  3.90674  0
C  C70  1  0.53404840  0.38637987  0.20048740  1  0  -0.280917  0  3.661372  0  0  -0.31776  0  3.912498  0  0  -0.323766  0  3.920507  0  -0.030519  0  -0.162237  -0.313623  0  3.906865  0
C  C71  1  0.96595338  0.61361890  0.70048584  1  0  -0.280837  0  3.661284  0  0  -0.317666  0  3.912397  0  0  -0.323685  0  3.920424  0  -0.030522  0  -0.162172  -0.313521  0  3.906758  0
C  C72  1  0.47774724  0.53896014  0.69982475  1  0  -0.05869  0  3.693263  0  0  -0.104322  0  3.955536  0  0  -0.104235  0  3.969165  0  0.022335  0  -0.166066  -0.104088  0  3.946151  0
C  C73  1  0.02225250  0.46103953  0.19982554  1  0  -0.058703  0  3.693281  0  0  -0.104318  0  3.955548  0  0  -0.104223  0  3.96918  0  0.022337  0  -0.166072  -0.104091  0  3.946162  0
C  C74  1  0.52225143  0.46103953  0.30017446  1  0  -0.058764  0  3.693331  0  0  -0.104383  0  3.955572  0  0  -0.104296  0  3.969201  0  0.022309  0  -0.166073  -0.104142  0  3.946188  0
C  C75  1  0.97774830  0.53896014  0.80017446  1  0  -0.058728  0  3.693286  0  0  -0.104321  0  3.955526  0  0  -0.10423  0  3.969158  0  0.022324  0  -0.166076  -0.104081  0  3.946141  0
C  C76  1  0.33264706  0.48230359  0.66760053  1  0  -0.284065  0  3.678262  0  0  -0.319427  0  3.925877  0  0  -0.326204  0  3.934863  0  -0.040252  0  -0.164965  -0.314755  0  3.919555  0
C  C77  1  0.16735375  0.51769608  0.16760131  1  0  -0.284117  0  3.678379  0  0  -0.319472  0  3.925915  0  0  -0.326257  0  3.934912  0  -0.040244  0  -0.164963  -0.314801  0  3.919595  0
C  C78  1  0.66735267  0.51769608  0.33239869  1  0  -0.284102  0  3.678307  0  0  -0.319428  0  3.925852  0  0  -0.326209  0  3.934846  0  -0.040273  0  -0.164957  -0.314756  0  3.919527  0
C  C79  1  0.83264598  0.48230359  0.83239790  1  0  -0.284079  0  3.678306  0  0  -0.319451  0  3.925894  0  0  -0.326229  0  3.93488  0  -0.040277  0  -0.164977  -0.314779  0  3.919568  0
C  C80  1  0.33041995  0.40151650  0.57320764  1  0  0.730077  0  3.73929  0  0  0.681292  0  4.043898  0  0  0.714621  0  4.034579  0  1.534908  0  0.24103  0.658745  0  4.049624  0
C  C81  1  0.16957973  0.59848227  0.07320685  1  0  0.730095  0  3.739315  0  0  0.68137  0  4.04382  0  0  0.7147  0  4.034502  0  1.534922  0  0.240992  0.658822  0  4.049546  0
C  C82  1  0.66957972  0.59848227  0.42679236  1  0  0.730129  0  3.739246  0  0  0.681374  0  4.043797  0  0  0.714703  0  4.034479  0  1.534916  0  0.241072  0.658826  0  4.049525  0
C  C83  1  0.83042000  0.40151739  0.92679236  1  0  0.730047  0  3.739375  0  0  0.681352  0  4.04384  0  0  0.71468  0  4.034522  0  1.534922  0  0.241022  0.658804  0  4.049567  0
C  C84  1  0.24650081  0.22281262  0.90269363  1  0  0.706254  0  3.776511  0  0  0.663693  0  4.078918  0  0  0.695513  0  4.070301  0  1.533411  0  0.235761  0.642158  0  4.084005  0
C  C85  1  0.25349999  0.77718705  0.40269363  1  0  0.706261  0  3.776541  0  0  0.66371  0  4.078934  0  0  0.69553  0  4.070318  0  1.533413  0  0.235776  0.642177  0  4.084022  0
C  C86  1  0.75350005  0.77718795  0.09730637  1  0  0.706271  0  3.776474  0  0  0.663729  0  4.078861  0  0  0.695551  0  4.070244  0  1.533392  0  0.235787  0.642198  0  4.083947  0
C  C87  1  0.74649974  0.22281262  0.59730637  1  0  0.706263  0  3.776542  0  0  0.66371  0  4.07894  0  0  0.69553  0  4.070325  0  1.533419  0  0.23578  0.642178  0  4.084027  0
C  C88  1  0.40101930  0.22485150  0.87063449  1  0  -0.267663  0  3.673439  0  0  -0.304811  0  3.925368  0  0  -0.311371  0  3.935032  0  -0.057902  0  -0.157259  -0.300296  0  3.918646  0
C  C89  1  0.09898150  0.77514817  0.37063449  1  0  -0.267628  0  3.673402  0  0  -0.304803  0  3.925354  0  0  -0.31136  0  3.935019  0  -0.057914  0  -0.157267  -0.300295  0  3.918642  0
C  C90  1  0.59898149  0.77514817  0.12936551  1  0  -0.267669  0  3.673425  0  0  -0.304824  0  3.925347  0  0  -0.311385  0  3.935012  0  -0.057892  0  -0.157261  -0.300311  0  3.918625  0
C  C91  1  0.90101829  0.22485240  0.62936630  1  0  -0.267564  0  3.673423  0  0  -0.304742  0  3.925366  0  0  -0.311297  0  3.935032  0  -0.057941  0  -0.157252  -0.300234  0  3.918654  0
C  C92  1  0.47039774  0.10477567  0.87593960  1  0  -0.050859  0  3.683  0  0  -0.098717  0  3.947928  0  0  -0.097494  0  3.959782  0  -0.015154  0  -0.158132  -0.099379  0  3.939727  0
C  C93  1  0.02960206  0.89522490  0.37593960  1  0  -0.050936  0  3.683008  0  0  -0.098781  0  3.947944  0  0  -0.097561  0  3.959801  0  -0.015151  0  -0.158134  -0.099443  0  3.939741  0
C  C94  1  0.52960205  0.89522490  0.12406040  1  0  -0.050901  0  3.682994  0  0  -0.098752  0  3.947928  0  0  -0.097529  0  3.959786  0  -0.015145  0  -0.158129  -0.099416  0  3.939728  0
C  C95  1  0.97039767  0.10477477  0.62406040  1  0  -0.050916  0  3.682985  0  0  -0.098762  0  3.947921  0  0  -0.097542  0  3.959779  0  -0.015144  0  -0.158128  -0.099425  0  3.939719  0
C  C96  1  0.62843678  0.12709107  0.84994524  1  0  -0.273528  0  3.675802  0  0  -0.307267  0  3.921051  0  0  -0.31346  0  3.930354  0  -0.031855  0  -0.159529  -0.302863  0  3.914548  0
C  C97  1  0.87156406  0.87290949  0.34994445  1  0  -0.273491  0  3.675745  0  0  -0.307292  0  3.921068  0  0  -0.313487  0  3.930377  0  -0.031554  0  -0.159574  -0.302899  0  3.91458  0
C  C98  1  0.37156301  0.87290949  0.15005476  1  0  -0.273465  0  3.675754  0  0  -0.307256  0  3.921063  0  0  -0.313451  0  3.930374  0  -0.031848  0  -0.159536  -0.30286  0  3.91457  0
C  C99  1  0.12843679  0.12709107  0.65005476  1  0  -0.273478  0  3.675775  0  0  -0.307271  0  3.921083  0  0  -0.313465  0  3.930392  0  -0.031583  0  -0.15954  -0.302872  0  3.914586  0
C  C100  1  0.72234943  0.02207818  0.84761148  1  0  0.722448  0  3.76629  0  0  0.679385  0  4.067704  0  0  0.711427  0  4.05907  0  1.533909  0  0.235774  0.657485  0  4.073091  0
C  C101  1  0.77765035  0.97792239  0.34761070  1  0  0.722405  0  3.766282  0  0  0.67935  0  4.067711  0  0  0.711393  0  4.05908  0  1.533914  0  0.23576  0.657454  0  4.073097  0
C  C102  1  0.27765036  0.97792239  0.15238930  1  0  0.722405  0  3.766285  0  0  0.679342  0  4.067722  0  0  0.711384  0  4.05909  0  1.533909  0  0.235757  0.657444  0  4.073108  0
C  C103  1  0.22234944  0.02207818  0.65238930  1  0  0.722409  0  3.766376  0  0  0.679361  0  4.067783  0  0  0.711404  0  4.05915  0  1.533992  0  0.235762  0.657463  0  4.073169  0
O  O104  1  0.66738544  0.92342154  0.80113754  1  0  -0.588455  0  2.056659  0  0  -0.538796  0  2.278946  0  0  -0.561909  0  2.264357  0  -1.180214  0  -0.355823  -0.522705  0  2.288559  0
O  O105  1  0.83261535  0.07657813  0.30113597  1  0  -0.588456  0  2.056662  0  0  -0.538788  0  2.278946  0  0  -0.561901  0  2.264348  0  -1.180257  0  -0.355829  -0.522696  0  2.288559  0
O  O106  1  0.33261429  0.07657813  0.19886325  1  0  -0.588453  0  2.056641  0  0  -0.538783  0  2.278925  0  0  -0.561894  0  2.264332  0  -1.180225  0  -0.355812  -0.52269  0  2.288538  0
O  O107  1  0.16738551  0.92342243  0.69886325  1  0  -0.588435  0  2.056641  0  0  -0.53877  0  2.278922  0  0  -0.561884  0  2.264324  0  -1.180312  0  -0.355816  -0.522679  0  2.288535  0
O  O108  1  0.35142536  0.76621266  0.70349163  1  0  -0.647277  0  1.994138  0  0  -0.594984  0  2.224179  0  0  -0.619951  0  2.213758  0  -1.190701  0  -0.359986  -0.577649  0  2.230833  0
O  O109  1  0.14857244  0.23378971  0.20349476  1  0  -0.647222  0  1.994405  0  0  -0.594913  0  2.224411  0  0  -0.619877  0  2.213989  0  -1.190711  0  -0.359969  -0.577579  0  2.231066  0
O  O110  1  0.64857218  0.23378611  0.29650837  1  0  -0.647289  0  1.994089  0  0  -0.594992  0  2.224106  0  0  -0.619959  0  2.213684  0  -1.190707  0  -0.360002  -0.577655  0  2.230759  0
O  O111  1  0.85142736  0.76621086  0.79650602  1  0  -0.647233  0  1.99436  0  0  -0.594933  0  2.224382  0  0  -0.619898  0  2.21396  0  -1.190711  0  -0.359995  -0.577599  0  2.231037  0
O  O112  1  0.29101314  0.74143873  0.87170396  1  0  -0.662914  0  2.006449  0  0  -0.60888  0  2.233735  0  0  -0.634288  0  2.222012  0  -1.192423  0  -0.377868  -0.591148  0  2.240266  0
O  O113  1  0.20898547  0.25856004  0.37170552  1  0  -0.662832  0  2.006354  0  0  -0.608808  0  2.233633  0  0  -0.634215  0  2.221912  0  -1.192387  0  -0.377839  -0.591073  0  2.240163  0
O  O114  1  0.70898772  0.25856184  0.12829682  1  0  -0.662926  0  2.006441  0  0  -0.608897  0  2.233712  0  0  -0.634303  0  2.221986  0  -1.19241  0  -0.377845  -0.591165  0  2.240245  0
O  O115  1  0.79101313  0.74143873  0.62829448  1  0  -0.662856  0  2.006383  0  0  -0.60883  0  2.233661  0  0  -0.634238  0  2.221941  0  -1.192382  0  -0.377806  -0.591098  0  2.240191  0
O  O116  1  0.20869945  0.39663719  0.52287827  1  0  -0.569377  0  2.076582  0  0  -0.521037  0  2.300685  0  0  -0.544855  0  2.284536  0  -1.187254  0  -0.32717  -0.504645  0  2.309547  0
O  O117  1  0.29130141  0.60336338  0.02287905  1  0  -0.569346  0  2.076587  0  0  -0.521029  0  2.300672  0  0  -0.544846  0  2.284519  0  -1.187262  0  -0.327138  -0.50464  0  2.309541  0
O  O118  1  0.79130134  0.60336248  0.47712095  1  0  -0.569389  0  2.07657  0  0  -0.521068  0  2.30066  0  0  -0.544887  0  2.284516  0  -1.187258  0  -0.327183  -0.504671  0  2.309514  0
O  O119  1  0.70869944  0.39663719  0.97712095  1  0  -0.569368  0  2.076616  0  0  -0.521058  0  2.300686  0  0  -0.544874  0  2.284533  0  -1.18725  0  -0.327159  -0.504667  0  2.309551  0
O  O120  1  0.43185992  0.34047216  0.54588484  1  0  -0.625438  0  1.991119  0  0  -0.575672  0  2.220302  0  0  -0.598414  0  2.208439  0  -1.203788  0  -0.323111  -0.560126  0  2.228051  0
O  O121  1  0.06814094  0.65952840  0.04588484  1  0  -0.625464  0  1.991072  0  0  -0.575723  0  2.220218  0  0  -0.598464  0  2.208354  0  -1.203784  0  -0.323087  -0.560178  0  2.227966  0
O  O122  1  0.56814100  0.65952930  0.45411516  1  0  -0.625475  0  1.991082  0  0  -0.575723  0  2.220249  0  0  -0.598466  0  2.208388  0  -1.203783  0  -0.323138  -0.56018  0  2.228  0
O  O123  1  0.93185879  0.34047127  0.95411438  1  0  -0.62544  0  1.991121  0  0  -0.575704  0  2.220255  0  0  -0.598448  0  2.208399  0  -1.203781  0  -0.323099  -0.56016  0  2.228007  0
O  O124  1  0.19588963  0.33234718  0.89665780  1  0  -0.573893  0  2.079001  0  0  -0.527261  0  2.297734  0  0  -0.549417  0  2.279178  0  -1.186687  0  -0.340312  -0.511819  0  2.309922  0
O  O125  1  0.30411011  0.66765249  0.39665780  1  0  -0.573904  0  2.078975  0  0  -0.527274  0  2.297697  0  0  -0.54943  0  2.279139  0  -1.186705  0  -0.340328  -0.511835  0  2.309887  0
O  O126  1  0.80411010  0.66765249  0.10334220  1  0  -0.573925  0  2.078904  0  0  -0.527299  0  2.29763  0  0  -0.549454  0  2.279073  0  -1.186692  0  -0.340345  -0.51186  0  2.309819  0
O  O127  1  0.69588969  0.33234808  0.60334220  1  0  -0.573922  0  2.078982  0  0  -0.527289  0  2.297702  0  0  -0.549444  0  2.279145  0  -1.186707  0  -0.340335  -0.511851  0  2.309892  0
O  O128  1  0.17454836  0.13222827  0.92996792  1  0  -0.613539  0  1.937428  0  0  -0.575979  0  2.163703  0  0  -0.596254  0  2.155426  0  -1.178189  0  -0.353064  -0.561781  0  2.169191  0
O  O129  1  0.32545244  0.86777140  0.42996792  1  0  -0.613542  0  1.937453  0  0  -0.575984  0  2.163726  0  0  -0.596258  0  2.155447  0  -1.178192  0  -0.353069  -0.561784  0  2.169211  0
O  O130  1  0.82545143  0.86777230  0.07003129  1  0  -0.613542  0  1.937487  0  0  -0.575993  0  2.163765  0  0  -0.596269  0  2.155486  0  -1.178183  0  -0.353076  -0.561796  0  2.169251  0
O  O131  1  0.67454835  0.13222827  0.57003208  1  0  -0.613535  0  1.937437  0  0  -0.575975  0  2.163705  0  0  -0.596249  0  2.155428  0  -1.178192  0  -0.353062  -0.561776  0  2.169192  0
O  O132  1  0.84520960  0.03122126  0.88296980  1  0  -0.653323  0  1.9552  0  0  -0.616041  0  2.19078  0  0  -0.637125  0  2.181791  0  -1.176563  0  -0.407802  -0.601571  0  2.196948  0
O  O133  1  0.65479119  0.96877841  0.38296980  1  0  -0.653299  0  1.955232  0  0  -0.615999  0  2.190779  0  0  -0.637081  0  2.181791  0  -1.176543  0  -0.407782  -0.601527  0  2.196946  0
O  O134  1  0.15479007  0.96877751  0.11703020  1  0  -0.653321  0  1.955201  0  0  -0.616034  0  2.190779  0  0  -0.637118  0  2.181791  0  -1.176564  0  -0.407805  -0.601563  0  2.196947  0
O  O135  1  0.34520854  0.03122126  0.61703020  1  0  -0.653339  0  1.955308  0  0  -0.616046  0  2.190856  0  0  -0.637128  0  2.181865  0  -1.176544  0  -0.407821  -0.601573  0  2.197022  0
