# generated using pymatgen
data_Zn4C24S4O13F8
_symmetry_space_group_name_H-M   'P 1'
_cell_length_a   19.72795403
_cell_length_b   19.76403953
_cell_length_c   33.49604382
_cell_angle_alpha   78.88601364
_cell_angle_beta   78.99427364
_cell_angle_gamma   63.80461794
_symmetry_Int_Tables_number   1
_chemical_formula_structural   Zn4C24S4O13F8
_chemical_formula_sum   'Zn16 C96 S16 O52 F32'
_cell_volume   11415.75129539
_cell_formula_units_Z   4
loop_
 _symmetry_equiv_pos_site_id
 _symmetry_equiv_pos_as_xyz
  1  'x, y, z'
loop_
 _atom_site_type_symbol
 _atom_site_label
 _atom_site_symmetry_multiplicity
 _atom_site_fract_x
 _atom_site_fract_y
 _atom_site_fract_z
 _atom_site_occupancy
 _atom_site_pbe_bader_charge
 _atom_site_pbe_bader_spin_density
 _atom_site_pbe_cm5_charge
 _atom_site_pbe_ddec_charge
 _atom_site_pbe_ddec_spin_density
 _atom_site_pbe_ddec_sum_bond_order
 _atom_site_pbe_magmom
Zn  Zn0  1  0.05620924  0.40107503  0.47863999  1  1.317658  0  0.675003  0.971414  0  2.355357  0
Zn  Zn1  1  0.98330620  0.48300199  0.56011600  1  1.31845  0  0.678871  0.968901  0  2.370413  0
Zn  Zn2  1  0.05946288  0.56080814  0.48281025  1  1.322022  0  0.677162  0.970544  0  2.361132  0
Zn  Zn3  1  0.90079299  0.55526933  0.47885728  1  1.320027  0  0.676973  0.970533  0  2.361083  0
Zn  Zn4  1  0.69369821  0.34893827  0.27137461  1  1.317783  0  0.675076  0.971894  0  2.35397  0
Zn  Zn5  1  0.69050985  0.18925681  0.26718885  1  1.321132  0  0.677117  0.970382  0  2.360899  0
Zn  Zn6  1  0.76786553  0.26649657  0.18981756  1  1.320655  0  0.677228  0.970996  0  2.360502  0
Zn  Zn7  1  0.84856524  0.19476271  0.27169317  1  1.321392  0  0.67825  0.967949  0  2.369604  0
Zn  Zn8  1  0.26670735  0.76701656  0.68990910  1  1.318905  0  0.678729  0.968156  0  2.371993  0
Zn  Zn9  1  0.34918376  0.69470230  0.77116834  1  1.319889  0  0.676987  0.970676  0  2.361531  0
Zn  Zn10  1  0.19370551  0.84891513  0.77140507  1  1.318073  0  0.674778  0.971347  0  2.35513  0
Zn  Zn11  1  0.19050017  0.68923992  0.76720435  1  1.321179  0  0.677169  0.970419  0  2.361933  0
Zn  Zn12  1  0.55947509  0.06081356  0.98281538  1  1.321921  0  0.677392  0.970839  0  2.36082  0
Zn  Zn13  1  0.40144743  0.05517522  0.97829512  1  1.321351  0  0.678392  0.967915  0  2.370007  0
Zn  Zn14  1  0.55622279  0.90104787  0.97865671  1  1.317549  0  0.674938  0.971419  0  2.355239  0
Zn  Zn15  1  0.48225371  0.98348896  0.06016325  1  1.320747  0  0.677207  0.971025  0  2.360711  0
C  C16  1  0.06129812  0.31645557  0.56157759  1  1.609513  0  0.217045  0.629115  0  4.220543  0
C  C17  1  0.06872509  0.56903177  0.56866439  1  1.612738  0  0.231672  0.638652  0  4.159113  0
C  C18  1  0.18367569  0.43956479  0.43877935  1  1.62161  0  0.217315  0.629049  0  4.221851  0
C  C19  1  0.93765992  0.68379179  0.43876579  1  1.582551  0  0.217445  0.628237  0  4.221735  0
C  C20  1  0.93146136  0.43094465  0.43140587  1  1.638053  0  0.230998  0.637556  0  4.157792  0
C  C21  1  0.81649805  0.56099325  0.56174039  1  1.59381  0  0.217051  0.628485  0  4.222098  0
C  C22  1  0.56621566  0.31052119  0.31123260  1  1.625336  0  0.217279  0.629266  0  4.221501  0
C  C23  1  0.68163912  0.18094833  0.18127499  1  1.617874  0  0.23124  0.638348  0  4.156613  0
C  C24  1  0.68914011  0.43327992  0.18835521  1  1.592797  0  0.217207  0.62971  0  4.218426  0
C  C25  1  0.93434732  0.18838400  0.18908647  1  1.562017  0  0.217483  0.629482  0  4.22086  0
C  C26  1  0.81829607  0.31917831  0.31874137  1  1.636239  0  0.231201  0.638301  0  4.158862  0
C  C27  1  0.81209491  0.06610445  0.31135202  1  1.580063  0  0.217439  0.62882  0  4.220733  0
C  C28  1  0.43346352  0.68912895  0.68828378  1  1.593114  0  0.217818  0.629815  0  4.220973  0
C  C29  1  0.31855829  0.81896239  0.81860007  1  1.638994  0  0.230635  0.637182  0  4.157894  0
C  C30  1  0.18884752  0.93349950  0.68844640  1  1.607081  0  0.217605  0.629977  0  4.219863  0
C  C31  1  0.06620659  0.81051707  0.81123440  1  1.626503  0  0.217505  0.629338  0  4.222038  0
C  C32  1  0.18128912  0.68102898  0.68134085  1  1.613473  0  0.231413  0.638258  0  4.159626  0
C  C33  1  0.31232893  0.56619372  0.81122444  1  1.579942  0  0.217359  0.628618  0  4.220648  0
C  C34  1  0.43785966  0.18387575  0.93864155  1  1.581875  0  0.217747  0.629028  0  4.220324  0
C  C35  1  0.43168434  0.93075138  0.93126070  1  1.631591  0  0.231426  0.638609  0  4.158851  0
C  C36  1  0.68367108  0.93956292  0.93878004  1  1.621255  0  0.217395  0.629262  0  4.221344  0
C  C37  1  0.56095631  0.81667308  0.06165734  1  1.594884  0  0.216886  0.629388  0  4.21801  0
C  C38  1  0.56839560  0.06911520  0.06871176  1  1.617421  0  0.231139  0.63802  0  4.157501  0
C  C39  1  0.31576918  0.06165127  0.06091954  1  1.564868  0  0.21782  0.629806  0  4.220644  0
C  C40  1  0.90269465  0.40248277  0.40264437  1  0.063352  0  -0.020446  -0.206904  0  3.953884  0
C  C41  1  0.84713296  0.34773034  0.34740827  1  0.069395  0  -0.020692  -0.207534  0  3.953435  0
C  C42  1  0.83118472  0.44542732  0.38835567  1  0.518024  0  0.100377  0.168749  0  4.060144  0
C  C43  1  0.91865262  0.30475957  0.36169760  1  0.52275  0  0.100604  0.168888  0  4.059718  0
C  C44  1  0.80440526  0.41901015  0.36171208  1  0.620819  0  0.099885  0.168207  0  4.061393  0
C  C45  1  0.94543149  0.33119714  0.38833573  1  0.622694  0  0.100329  0.168149  0  4.061095  0
C  C46  1  0.09745162  0.59754972  0.59736978  1  0.105661  0  -0.020635  -0.207938  0  3.954438  0
C  C47  1  0.15256314  0.65250974  0.65263762  1  0.10302  0  -0.020566  -0.207946  0  3.955216  0
C  C48  1  0.14032603  0.64038708  0.58307364  1  0.542021  0  0.099855  0.167984  0  4.061951  0
C  C49  1  0.10969957  0.60966686  0.66692990  1  0.541533  0  0.099851  0.168154  0  4.061174  0
C  C50  1  0.16690842  0.66693643  0.60973917  1  0.568916  0  0.100753  0.169302  0  4.062334  0
C  C51  1  0.08311375  0.58312461  0.64026427  1  0.568643  0  0.100693  0.169363  0  4.061784  0
C  C52  1  0.30460283  0.45274028  0.40076928  1  0.555487  0  0.105018  0.25721  0  4.069212  0
C  C53  1  0.44526216  0.29733264  0.34918847  1  0.557777  0  0.105239  0.25749  0  4.069249  0
C  C54  1  0.25820904  0.41461017  0.41389332  1  -0.081162  0  -0.034436  -0.246116  0  3.967091  0
C  C55  1  0.49166374  0.33546223  0.33609408  1  -0.08248  0  -0.034746  -0.24665  0  3.967435  0
C  C56  1  0.37692317  0.33952487  0.37279404  1  -0.149459  0  -0.02876  -0.119664  0  4.120365  0
C  C57  1  0.37292314  0.41053014  0.37716085  1  -0.14612  0  -0.029038  -0.119792  0  4.120695  0
C  C58  1  0.72488903  0.57682749  0.62878917  1  0.647813  0  0.105614  0.257825  0  4.068103  0
C  C59  1  0.52500448  0.67328113  0.62122034  1  0.648426  0  0.106124  0.259065  0  4.068093  0
C  C60  1  0.74191850  0.58589931  0.58648305  1  -0.100275  0  -0.035039  -0.247271  0  3.968232  0
C  C61  1  0.50802176  0.66416147  0.66352214  1  -0.099976  0  -0.035077  -0.248168  0  3.969733  0
C  C62  1  0.60392189  0.64163683  0.60821464  1  -0.179263  0  -0.02914  -0.120813  0  4.122637  0
C  C63  1  0.64596533  0.60849661  0.64179014  1  -0.17069  0  -0.028568  -0.120186  0  4.122045  0
C  C64  1  0.07691532  0.22473530  0.62867918  1  0.652363  0  0.105768  0.258373  0  4.068241  0
C  C65  1  0.17318046  0.02514761  0.62132405  1  0.652138  0  0.105688  0.258329  0  4.068213  0
C  C66  1  0.08595486  0.24188887  0.58637152  1  -0.103834  0  -0.034861  -0.246678  0  3.967119  0
C  C67  1  0.16408908  0.00804770  0.66362850  1  -0.102439  0  -0.034781  -0.246656  0  3.967916  0
C  C68  1  0.14158988  0.10399287  0.60823344  1  -0.179005  0  -0.028915  -0.120273  0  4.120241  0
C  C69  1  0.10852870  0.14588733  0.64175865  1  -0.178283  0  -0.028661  -0.119641  0  4.120386  0
C  C70  1  0.84510830  0.80110730  0.39722849  1  0.584262  0  0.104485  0.257571  0  4.069102  0
C  C71  1  0.90477271  0.94877354  0.35281969  1  0.555549  0  0.105296  0.258667  0  4.067721  0
C  C72  1  0.91305877  0.75822898  0.41385015  1  -0.102695  0  -0.034845  -0.246564  0  3.969199  0
C  C73  1  0.83677799  0.99161262  0.33620539  1  -0.067763  0  -0.034635  -0.246964  0  3.969453  0
C  C74  1  0.90848231  0.87914556  0.37510248  1  -0.114259  0  -0.02876  -0.120727  0  4.121308  0
C  C75  1  0.84151353  0.87063849  0.37488409  1  -0.117976  0  -0.029107  -0.121066  0  4.12278  0
C  C76  1  0.65267404  0.15253599  0.15260316  1  0.09827  0  -0.020015  -0.206762  0  3.952465  0
C  C77  1  0.59735325  0.09751556  0.09739707  1  0.100987  0  -0.020268  -0.206805  0  3.952193  0
C  C78  1  0.66691955  0.16688758  0.10970028  1  0.568814  0  0.100293  0.168915  0  4.062321  0
C  C79  1  0.58311286  0.08316546  0.14029804  1  0.567735  0  0.100222  0.168922  0  4.062029  0
C  C80  1  0.64026941  0.14032452  0.08306605  1  0.543211  0  0.099918  0.168102  0  4.060269  0
C  C81  1  0.60975504  0.10972513  0.16693500  1  0.54275  0  0.099938  0.168202  0  4.061101  0
C  C82  1  0.67323843  0.52515639  0.12124574  1  0.646677  0  0.105319  0.257694  0  4.067346  0
C  C83  1  0.57686233  0.72471525  0.12874245  1  0.648004  0  0.105346  0.257772  0  4.0685  0
C  C84  1  0.66421631  0.50789372  0.16353961  1  -0.097475  0  -0.034316  -0.245904  0  3.966265  0
C  C85  1  0.58582350  0.74203485  0.08644749  1  -0.098789  0  -0.034484  -0.246131  0  3.96539  0
C  C86  1  0.60853576  0.64583656  0.14177006  1  -0.177728  0  -0.028884  -0.119869  0  4.120142  0
C  C87  1  0.64160427  0.60403576  0.10820719  1  -0.177034  0  -0.028779  -0.119901  0  4.11893  0
C  C88  1  0.08069841  0.12478576  0.17683195  1  0.569769  0  0.105392  0.257226  0  4.071443  0
C  C89  1  0.16940689  0.12505874  0.07315511  1  0.588394  0  0.105036  0.256583  0  4.070518  0
C  C90  1  0.00875496  0.16357349  0.16417064  1  -0.08457  0  -0.03456  -0.24665  0  3.970789  0
C  C91  1  0.24136196  0.08637218  0.08582075  1  -0.108452  0  -0.034692  -0.246901  0  3.97066  0
C  C92  1  0.11040805  0.13931846  0.10608561  1  -0.148605  0  -0.028817  -0.119308  0  4.120259  0
C  C93  1  0.13971354  0.11038997  0.14390060  1  -0.161081  0  -0.029067  -0.12023  0  4.121034  0
C  C94  1  0.34727435  0.84745990  0.84735961  1  0.173227  0  -0.020314  -0.206653  0  3.953301  0
C  C95  1  0.40282925  0.90222664  0.90258413  1  0.07079  0  -0.020699  -0.207888  0  3.953043  0
C  C96  1  0.30451192  0.91874435  0.86167297  1  0.512984  0  0.100375  0.168395  0  4.059986  0
C  C97  1  0.44554555  0.83091789  0.88830117  1  0.61452  0  0.099811  0.168672  0  4.060229  0
C  C98  1  0.33129077  0.94518550  0.88831399  1  0.521276  0  0.100761  0.169367  0  4.05875  0
C  C99  1  0.41876663  0.80449837  0.86166225  1  0.523582  0  0.100499  0.168752  0  4.060021  0
C  C100  1  0.40487229  0.44890491  0.85280150  1  0.58696  0  0.104119  0.256797  0  4.0684  0
C  C101  1  0.34521082  0.30124022  0.89719160  1  0.55458  0  0.105312  0.258545  0  4.068002  0
C  C102  1  0.33691283  0.49176908  0.83617014  1  -0.10415  0  -0.034699  -0.246497  0  3.968428  0
C  C103  1  0.41320227  0.25836966  0.91379658  1  -0.068444  0  -0.034703  -0.24716  0  3.970104  0
C  C104  1  0.34158920  0.37079693  0.87485926  1  -0.114507  0  -0.028939  -0.121082  0  4.122002  0
C  C105  1  0.40856308  0.37929301  0.87508667  1  -0.119054  0  -0.028805  -0.120329  0  4.121914  0
C  C106  1  0.94525697  0.79732891  0.84919271  1  0.557781  0  0.105237  0.257435  0  4.069438  0
C  C107  1  0.80460105  0.95273771  0.90077183  1  0.555712  0  0.105036  0.257341  0  4.068834  0
C  C108  1  0.99165570  0.83545865  0.83610012  1  -0.082508  0  -0.034618  -0.246402  0  3.967261  0
C  C109  1  0.75820383  0.91461004  0.91389867  1  -0.081164  0  -0.034643  -0.246574  0  3.967534  0
C  C110  1  0.87292078  0.91053040  0.87716315  1  -0.146124  0  -0.029109  -0.11997  0  4.120649  0
C  C111  1  0.87691683  0.83952679  0.87279690  1  -0.149702  0  -0.028677  -0.11946  0  4.120325  0
S  S112  1  0.29839977  0.32519616  0.39721827  1  0.323058  0  0.102583  0.184173  0  2.743952  0
S  S113  1  0.45145992  0.42486773  0.35277717  1  0.324938  0  0.102449  0.184223  0  2.744458  0
S  S114  1  0.66028194  0.63400190  0.56177109  1  0.310386  0  0.103402  0.185977  0  2.74473  0
S  S115  1  0.58963728  0.61605631  0.68823726  1  0.309403  0  0.103243  0.186191  0  2.745191  0
S  S116  1  0.13396646  0.16041848  0.56175036  1  0.308089  0  0.102354  0.184182  0  2.744405  0
S  S117  1  0.11608322  0.08950802  0.68824506  1  0.306925  0  0.102413  0.18421  0  2.745314  0
S  S118  1  0.97428623  0.80324161  0.40214737  1  0.311707  0  0.104058  0.186607  0  2.743578  0
S  S119  1  0.77564128  0.94651963  0.34787604  1  0.312671  0  0.103194  0.185629  0  2.744779  0
S  S120  1  0.61615912  0.58929601  0.18821861  1  0.309593  0  0.102177  0.184066  0  2.74471  0
S  S121  1  0.63390006  0.66062865  0.06176142  1  0.308314  0  0.102076  0.183989  0  2.743644  0
S  S122  1  0.01255052  0.18319142  0.11099899  1  0.346911  0  0.10334  0.185273  0  2.74339  0
S  S123  1  0.23756261  0.06669718  0.13898864  1  0.346525  0  0.103274  0.185504  0  2.744399  0
S  S124  1  0.27574248  0.44670350  0.84784593  1  0.312369  0  0.10413  0.18676  0  2.744306  0
S  S125  1  0.47438232  0.30341313  0.90212276  1  0.313004  0  0.103441  0.185809  0  2.745271  0
S  S126  1  0.95145701  0.92486566  0.85277860  1  0.325476  0  0.102705  0.18455  0  2.744492  0
S  S127  1  0.79839344  0.82519757  0.89721969  1  0.322457  0  0.102303  0.183866  0  2.744123  0
O  O128  1  0.00017421  0.49981246  0.49987606  1  -1.232487  0  -0.57041  -1.036642  0  2.528521  0
O  O129  1  0.07820599  0.31558326  0.52272432  1  -1.178499  0  -0.319015  -0.545654  0  2.321605  0
O  O130  1  0.03093220  0.53067074  0.58507915  1  -1.149823  0  -0.307035  -0.531417  0  2.359262  0
O  O131  1  0.15568585  0.50570730  0.44989572  1  -1.159751  0  -0.312263  -0.532507  0  2.327445  0
O  O132  1  0.02572419  0.37460838  0.58068852  1  -1.163461  0  -0.311487  -0.530997  0  2.329425  0
O  O133  1  0.15390427  0.39174098  0.44688188  1  -1.172301  0  -0.318767  -0.54442  0  2.322821  0
O  O134  1  0.08468380  0.58577577  0.53052346  1  -1.14738  0  -0.308155  -0.533788  0  2.355213  0
O  O135  1  0.00433227  0.65707513  0.44976967  1  -1.170598  0  -0.318151  -0.543165  0  2.324806  0
O  O136  1  0.88760331  0.49595838  0.44245473  1  -1.159589  0  -0.307716  -0.53276  0  2.354659  0
O  O137  1  0.89114936  0.65285644  0.44714498  1  -1.153229  0  -0.312744  -0.532835  0  2.325492  0
O  O138  1  0.99695720  0.38751952  0.44216448  1  -1.16109  0  -0.308425  -0.533679  0  2.354321  0
O  O139  1  0.87486494  0.52553993  0.58085459  1  -1.152313  0  -0.311258  -0.530725  0  2.328316  0
O  O140  1  0.81541690  0.57759090  0.52286771  1  -1.17487  0  -0.318367  -0.54413  0  2.324113  0
O  O141  1  0.74974160  0.25029344  0.25002087  1  -1.232007  0  -0.570348  -1.036716  0  2.528137  0
O  O142  1  0.59598297  0.35835733  0.30314916  1  -1.176732  0  -0.318963  -0.545028  0  2.322241  0
O  O143  1  0.66536785  0.16447180  0.21939738  1  -1.146131  0  -0.30781  -0.532761  0  2.35538  0
O  O144  1  0.72505887  0.37508187  0.16927308  1  -1.155837  0  -0.312338  -0.533178  0  2.32542  0
O  O145  1  0.59426355  0.24438811  0.30009452  1  -1.159129  0  -0.312197  -0.532555  0  2.327547  0
O  O146  1  0.67207984  0.43423889  0.22718725  1  -1.175911  0  -0.318771  -0.544942  0  2.322986  0
O  O147  1  0.71992699  0.21885552  0.16486379  1  -1.153315  0  -0.307637  -0.532955  0  2.354263  0
O  O148  1  0.87657213  0.22386253  0.16912532  1  -1.162953  0  -0.318531  -0.54419  0  2.323027  0
O  O149  1  0.86197080  0.25393429  0.30797013  1  -1.161558  0  -0.306601  -0.530825  0  2.358463  0
O  O150  1  0.93386617  0.17259340  0.22783664  1  -1.127244  0  -0.311529  -0.53142  0  2.328053  0
O  O151  1  0.75292259  0.36267777  0.30781284  1  -1.157883  0  -0.308909  -0.534879  0  2.352982  0
O  O152  1  0.74557103  0.09278131  0.30015335  1  -1.171354  0  -0.318524  -0.543962  0  2.323334  0
O  O153  1  0.85849525  0.09714700  0.30321611  1  -1.145947  0  -0.311466  -0.531129  0  2.326614  0
O  O154  1  0.24980193  0.75019648  0.75015306  1  -1.233336  0  -0.57043  -1.036578  0  2.528717  0
O  O155  1  0.37510916  0.72460450  0.66915352  1  -1.152344  0  -0.311651  -0.53121  0  2.328055  0
O  O156  1  0.36242477  0.75394285  0.80757153  1  -1.160834  0  -0.307677  -0.532606  0  2.355913  0
O  O157  1  0.17199420  0.93436595  0.72730212  1  -1.175796  0  -0.31917  -0.546026  0  2.321989  0
O  O158  1  0.43454461  0.67255608  0.72715344  1  -1.175298  0  -0.318645  -0.544595  0  2.324494  0
O  O159  1  0.22440050  0.87536807  0.66931271  1  -1.164001  0  -0.311733  -0.531181  0  2.329897  0
O  O160  1  0.25304084  0.86237947  0.80784978  1  -1.161815  0  -0.308329  -0.533683  0  2.353901  0
O  O161  1  0.09595510  0.85836724  0.80315177  1  -1.176355  0  -0.319147  -0.545117  0  2.32269  0
O  O162  1  0.16533898  0.66427008  0.71947979  1  -1.147315  0  -0.308136  -0.533793  0  2.35543  0
O  O163  1  0.09424308  0.74439442  0.80009701  1  -1.159794  0  -0.312026  -0.532219  0  2.327815  0
O  O164  1  0.21907756  0.71938795  0.66490858  1  -1.150342  0  -0.306801  -0.530684  0  2.359347  0
O  O165  1  0.35882896  0.59713963  0.80289212  1  -1.151853  0  -0.312762  -0.533166  0  2.325483  0
O  O166  1  0.24571678  0.59287564  0.80015667  1  -1.168959  0  -0.318176  -0.543202  0  2.324172  0
O  O167  1  0.50028015  0.99972423  0.99996134  1  -1.232382  0  -0.570351  -1.036669  0  2.528456  0
O  O168  1  0.50443444  0.15718331  0.94979070  1  -1.171678  0  -0.318911  -0.544174  0  2.323091  0
O  O169  1  0.38800051  0.99599920  0.94203222  1  -1.159388  0  -0.30671  -0.530892  0  2.358198  0
O  O170  1  0.65388429  0.89175174  0.94688078  1  -1.172461  0  -0.318814  -0.544525  0  2.322916  0
O  O171  1  0.39147165  0.15283026  0.94680838  1  -1.147614  0  -0.311662  -0.531274  0  2.326824  0
O  O172  1  0.65567423  0.00571660  0.94989377  1  -1.159924  0  -0.312448  -0.532726  0  2.327179  0
O  O173  1  0.49704068  0.88724755  0.94220770  1  -1.155853  0  -0.308789  -0.53485  0  2.353076  0
O  O174  1  0.57811372  0.81571256  0.02282860  1  -1.175287  0  -0.318504  -0.544586  0  2.322078  0
O  O175  1  0.53011066  0.03120748  0.08510748  1  -1.151931  0  -0.307387  -0.532447  0  2.354892  0
O  O176  1  0.52500068  0.87488419  0.08072147  1  -1.15669  0  -0.312323  -0.533204  0  2.325782  0
O  O177  1  0.58469303  0.08558182  0.03058910  1  -1.148055  0  -0.307997  -0.533098  0  2.355646  0
O  O178  1  0.31618991  0.07751194  0.02217096  1  -1.126958  0  -0.311657  -0.531098  0  2.328174  0
O  O179  1  0.37355868  0.02617417  0.08086254  1  -1.165701  0  -0.318773  -0.544762  0  2.323246  0
F  F180  1  0.78449378  0.51452420  0.39950202  1  -0.603366  0  -0.081825  -0.092725  0  1.396713  0
F  F181  1  0.96537425  0.23572799  0.35051832  1  -0.601671  0  -0.080071  -0.090664  0  1.39827  0
F  F182  1  0.73519402  0.46584844  0.35051167  1  -0.605777  0  -0.082417  -0.093736  0  1.39693  0
F  F183  1  0.01466113  0.28435656  0.39951444  1  -0.605405  0  -0.082239  -0.093342  0  1.396715  0
F  F184  1  0.15816797  0.65818855  0.54287137  1  -0.605618  0  -0.080992  -0.092  0  1.39703  0
F  F185  1  0.09185031  0.59183081  0.70713617  1  -0.605508  0  -0.081124  -0.092408  0  1.395981  0
F  F186  1  0.20709667  0.70709419  0.59195731  1  -0.605003  0  -0.080708  -0.091424  0  1.398969  0
F  F187  1  0.04293234  0.54295884  0.65804626  1  -0.60359  0  -0.080559  -0.091303  0  1.398732  0
F  F188  1  0.70708811  0.20707266  0.09187129  1  -0.605076  0  -0.081629  -0.092838  0  1.399073  0
F  F189  1  0.54294774  0.04297849  0.15812148  1  -0.603706  0  -0.08169  -0.09302  0  1.397976  0
F  F190  1  0.65808358  0.15811812  0.04285604  1  -0.605826  0  -0.081268  -0.092514  0  1.396969  0
F  F191  1  0.59192786  0.09190605  0.20714654  1  -0.605582  0  -0.081144  -0.092457  0  1.396781  0
F  F192  1  0.23531653  0.96561470  0.85046671  1  -0.60477  0  -0.082191  -0.093536  0  1.396673  0
F  F193  1  0.51480231  0.78411650  0.89947224  1  -0.604975  0  -0.082505  -0.094143  0  1.396213  0
F  F194  1  0.28461732  0.01426112  0.89945978  1  -0.600705  0  -0.080281  -0.091052  0  1.397891  0
F  F195  1  0.46549516  0.73544799  0.85047892  1  -0.603872  0  -0.081651  -0.092579  0  1.397068  0
F  F196  1  0.28797966  0.52245585  0.40916846  1  -0.614181  0  -0.082694  -0.098924  0  1.348273  0
F  F197  1  0.46198602  0.22759876  0.34077761  1  -0.614901  0  -0.08282  -0.09905  0  1.348358  0
F  F198  1  0.77667957  0.54192309  0.65534674  1  -0.616334  0  -0.081998  -0.098058  0  1.348684  0
F  F199  1  0.47321788  0.70820037  0.59466071  1  -0.617863  0  -0.082018  -0.098271  0  1.348341  0
F  F200  1  0.04211550  0.27638153  0.65518255  1  -0.612532  0  -0.081945  -0.098386  0  1.349784  0
F  F201  1  0.20799521  0.97350545  0.59482348  1  -0.613389  0  -0.081653  -0.098  0  1.349297  0
F  F202  1  0.78778480  0.78016772  0.40136508  1  -0.611147  0  -0.082341  -0.099042  0  1.347964  0
F  F203  1  0.96203857  0.96976170  0.34870586  1  -0.61628  0  -0.081573  -0.098011  0  1.348577  0
F  F204  1  0.70806619  0.47355918  0.09470259  1  -0.614532  0  -0.082831  -0.099273  0  1.347588  0
F  F205  1  0.54204479  0.77630917  0.15528932  1  -0.613401  0  -0.08274  -0.099333  0  1.348788  0
F  F206  1  0.09461742  0.10262005  0.21601052  1  -0.615579  0  -0.081619  -0.097675  0  1.349807  0
F  F207  1  0.15546477  0.14734578  0.03398395  1  -0.615786  0  -0.081492  -0.097514  0  1.349691  0
F  F208  1  0.46217568  0.46986855  0.84869283  1  -0.611388  0  -0.082291  -0.098892  0  1.347805  0
F  F209  1  0.28793002  0.28027250  0.90132541  1  -0.615689  0  -0.08167  -0.097955  0  1.348614  0
F  F210  1  0.96197854  0.72759648  0.84078344  1  -0.614657  0  -0.082706  -0.098939  0  1.348361  0
F  F211  1  0.78797712  0.02245404  0.90917420  1  -0.614291  0  -0.082818  -0.099076  0  1.34818  0
