# generated using pymatgen
data_Ni2H32C52N10O9
_symmetry_space_group_name_H-M   'P 1'
_cell_length_a   11.60054055
_cell_length_b   15.31364166
_cell_length_c   16.91146038
_cell_angle_alpha   67.36355267
_cell_angle_beta   69.94026750
_cell_angle_gamma   67.77700954
_symmetry_Int_Tables_number   1
_chemical_formula_structural   Ni2H32C52N10O9
_chemical_formula_sum   'Ni4 H64 C104 N20 O18'
_cell_volume   2497.39167161
_cell_formula_units_Z   2
loop_
 _symmetry_equiv_pos_site_id
 _symmetry_equiv_pos_as_xyz
  1  'x, y, z'
loop_
 _atom_site_type_symbol
 _atom_site_label
 _atom_site_symmetry_multiplicity
 _atom_site_fract_x
 _atom_site_fract_y
 _atom_site_fract_z
 _atom_site_occupancy
 _atom_site_pbe_bader_charge
 _atom_site_pbe_bader_spin_density
 _atom_site_pbe_cm5_charge
 _atom_site_pbe_ddec_charge
 _atom_site_pbe_ddec_spin_density
 _atom_site_pbe_ddec_sum_bond_order
 _atom_site_pbe_magmom
Ni  Ni0  1  0.50000001  0.49999948  0.00000038  1  1.165904  1.554919  0.662214  0.656464  1.772579  2.572491  1.543
Ni  Ni1  1  0.00000164  0.99999812  0.50000115  1  1.164042  1.554952  0.662337  0.655841  1.772667  2.570006  1.543
Ni  Ni2  1  0.00000056  0.50000430  0.99999572  1  1.209806  1.569881  0.647302  0.808785  1.788729  2.531642  1.558
Ni  Ni3  1  0.50000022  0.99999685  0.50000000  1  1.209175  1.569274  0.645281  0.805679  1.787797  2.529705  1.557
H  H4  1  0.25483054  0.62082762  0.93480214  1  0.142924  0.001676  0.121126  0.09746  0.000532  1.04537  0.001
H  H5  1  0.81011490  0.87911580  0.56508648  1  0.14733  0.001694  0.121992  0.099423  0.000541  1.044123  0.001
H  H6  1  0.74517348  0.37917421  0.06519014  1  0.142693  0.001676  0.121142  0.0975  0.000532  1.045373  0.001
H  H7  1  0.18989032  0.12087783  0.43491179  1  0.14723  0.001694  0.121975  0.099406  0.000541  1.044114  0.001
H  H8  1  0.11974113  0.79178235  0.89861327  1  0.08225  0.000865  0.108577  0.115422  0.000354  1.021977  0.0
H  H9  1  0.81000996  0.70801636  0.60149484  1  0.102881  0.000847  0.108688  0.115771  0.000354  1.021941  0.0
H  H10  1  0.88026224  0.20821873  0.10138000  1  0.08188  0.000865  0.108593  0.115402  0.000354  1.021997  0.0
H  H11  1  0.18999684  0.29197810  0.39849925  1  0.102849  0.000847  0.108657  0.115741  0.000354  1.021918  0.0
H  H12  1  0.39768837  0.87428939  0.95179790  1  0.078628  0.001035  0.108462  0.11091  0.00049  0.99895  0.0
H  H13  1  0.22348225  0.62615454  0.54805907  1  0.075421  0.001034  0.108331  0.110558  0.000489  0.998926  0.0
H  H14  1  0.60231343  0.12571087  0.04819896  1  0.078613  0.001035  0.10847  0.110919  0.00049  0.998892  0.0
H  H15  1  0.77652415  0.37384030  0.45194977  1  0.07553  0.001034  0.108224  0.11038  0.000489  0.998999  0.0
H  H16  1  0.52319962  0.69882017  0.98313689  1  0.132412  0.001995  0.119054  0.087609  0.000766  1.024641  0.001
H  H17  1  0.20460929  0.80179501  0.51641967  1  0.109977  0.002006  0.118854  0.086852  0.00076  1.027248  0.001
H  H18  1  0.47680190  0.30118083  0.01685978  1  0.132381  0.001994  0.119044  0.087609  0.000766  1.024667  0.001
H  H19  1  0.79539408  0.19820054  0.48359022  1  0.109772  0.002006  0.118869  0.086867  0.00076  1.02733  0.001
H  H20  1  0.23928281  0.87435929  0.74955929  1  0.13745  0.001005  0.114907  0.133981  0.000489  0.99686  0.0
H  H21  1  0.86352476  0.62541160  0.75051671  1  0.098352  0.001029  0.115127  0.134593  0.000488  0.99507  0.0
H  H22  1  0.76071841  0.12565189  0.25044119  1  0.137538  0.001004  0.114929  0.133985  0.000489  0.996877  0.0
H  H23  1  0.13647189  0.37459009  0.24948144  1  0.098368  0.001029  0.115114  0.134556  0.000488  0.995106  0.0
H  H24  1  0.19148629  0.86916909  0.62128838  1  0.108984  0.001876  0.124239  0.097087  0.00073  0.985324  0.001
H  H25  1  0.68204247  0.63080356  0.87861241  1  0.110745  0.001874  0.124532  0.097604  0.00073  0.985513  0.001
H  H26  1  0.80852350  0.13083403  0.37871162  1  0.108983  0.001876  0.124223  0.097049  0.00073  0.98533  0.001
H  H27  1  0.31795630  0.36919741  0.12138550  1  0.110738  0.001874  0.12453  0.097618  0.00073  0.985431  0.001
H  H28  1  0.85864396  0.09835025  0.63919235  1  0.102319  0.001776  0.1128  0.082073  0.000636  1.05597  0.001
H  H29  1  0.59616531  0.40146829  0.86085849  1  0.099043  0.001779  0.112673  0.081918  0.000636  1.056468  0.001
H  H30  1  0.14134941  0.90164549  0.36080970  1  0.102227  0.001776  0.112789  0.082048  0.000636  1.056045  0.001
H  H31  1  0.40383334  0.59853037  0.13914434  1  0.099037  0.00178  0.11261  0.081785  0.000636  1.056511  0.001
H  H32  1  0.89217017  0.11549727  0.77003302  1  0.095787  0.000948  0.106307  0.116945  0.000454  1.000941  0.0
H  H33  1  0.77757689  0.38433555  0.72998220  1  0.084616  0.000952  0.10611  0.116701  0.000451  1.000478  0.0
H  H34  1  0.10782154  0.88450291  0.22996735  1  0.095846  0.000948  0.106298  0.116915  0.000454  1.000884  0.0
H  H35  1  0.22242881  0.61565639  0.27002539  1  0.084343  0.000952  0.106102  0.116667  0.000451  1.000494  0.0
H  H36  1  0.97767511  0.29360302  0.83196703  1  0.118679  0.000809  0.108014  0.12018  0.000384  1.029387  0.0
H  H37  1  0.10337199  0.20653564  0.66793938  1  0.131978  0.000794  0.107565  0.119741  0.000381  1.029105  0.0
H  H38  1  0.02232060  0.70639857  0.16803551  1  0.11876  0.000809  0.107985  0.120155  0.000384  1.029346  0.0
H  H39  1  0.89662640  0.79345631  0.33206751  1  0.132195  0.000794  0.107545  0.119698  0.000381  1.029168  0.0
H  H40  1  0.94802695  0.44433698  0.87133623  1  0.124312  0.001728  0.116383  0.087632  0.000538  1.040353  0.001
H  H41  1  0.26372954  0.05579295  0.62865013  1  0.132435  0.001715  0.116009  0.08754  0.000529  1.041536  0.001
H  H42  1  0.05196794  0.55566688  0.12866338  1  0.12434  0.001729  0.116425  0.087659  0.000538  1.040405  0.001
H  H43  1  0.73627053  0.94420208  0.37135063  1  0.132132  0.001716  0.115983  0.087409  0.000529  1.041585  0.001
H  H44  1  0.13466538  0.28085150  0.07305558  1  0.136423  0.001747  0.125605  0.107415  0.000607  0.977102  0.001
H  H45  1  0.48840156  0.21939124  0.42664933  1  0.125524  0.001742  0.125612  0.106986  0.000605  0.978899  0.001
H  H46  1  0.86533288  0.71915308  0.92694480  1  0.136743  0.001747  0.125602  0.107465  0.000606  0.977161  0.001
H  H47  1  0.51159312  0.78060605  0.57334896  1  0.125432  0.001743  0.125599  0.106995  0.000605  0.978885  0.001
H  H48  1  0.17477458  0.12306446  0.04392023  1  0.047085  0.001163  0.105139  0.107446  0.000549  1.002923  0.0
H  H49  1  0.34169402  0.37719642  0.45567205  1  0.058255  0.001155  0.104848  0.107457  0.000547  1.003795  0.0
H  H50  1  0.82522359  0.87693787  0.95608209  1  0.047066  0.001163  0.105126  0.107407  0.000549  1.002901  0.0
H  H51  1  0.65830455  0.62280003  0.54433094  1  0.058189  0.001155  0.104871  0.107488  0.000547  1.003736  0.0
H  H52  1  0.52920915  0.68557774  0.11807453  1  0.067179  0.000126  0.10182  0.111536  6.4e-05  1.031334  0.0
H  H53  1  0.33330923  0.81409905  0.38206629  1  0.05834  0.000129  0.102228  0.111183  6.6e-05  1.032325  0.0
H  H54  1  0.47078372  0.31442160  0.88193058  1  0.067437  0.000126  0.101826  0.111519  6.4e-05  1.03136  0.0
H  H55  1  0.66668999  0.18590566  0.61792850  1  0.058365  0.000129  0.102203  0.111145  6.6e-05  1.03221  0.0
H  H56  1  0.65819516  0.65025918  0.34065404  1  0.044899  5e-06  0.095605  0.106402  -2.1e-05  1.033593  0.0
H  H57  1  0.64901395  0.84968197  0.15913274  1  0.080513  4e-06  0.095574  0.107128  -2.1e-05  1.033365  0.0
H  H58  1  0.34180021  0.34974099  0.65934668  1  0.044797  5e-06  0.095621  0.10641  -2.1e-05  1.033557  0.0
H  H59  1  0.35097830  0.15032418  0.84086316  1  0.080371  4e-06  0.095563  0.107108  -2.1e-05  1.033342  0.0
H  H60  1  0.83293253  0.50125046  0.31145390  1  0.064174  0.000169  0.092408  0.083814  5.2e-05  1.075032  0.0
H  H61  1  0.64564402  0.99885180  0.18813934  1  0.040058  0.00017  0.092098  0.083224  5e-05  1.075904  0.0
H  H62  1  0.16706567  0.49875195  0.68854484  1  0.064025  0.000169  0.092417  0.083789  5.2e-05  1.07505  0.0
H  H63  1  0.35434787  0.00115287  0.81185714  1  0.04008  0.00017  0.092056  0.0832  5e-05  1.075952  0.0
H  H64  1  0.20592910  0.99134778  0.99959479  1  0.467597  0.000202  0.339049  0.295672  0.000105  0.903113  0.0
H  H65  1  0.19668971  0.50897060  0.50030884  1  0.48107  0.000197  0.339343  0.295538  0.000106  0.90327  0.0
H  H66  1  0.79407726  0.00865245  0.00040341  1  0.467272  0.000202  0.339004  0.295648  0.000105  0.903152  0.0
H  H67  1  0.80331446  0.49102066  0.49969637  1  0.481219  0.000197  0.339346  0.295536  0.000106  0.903279  0.0
C  C68  1  0.28503413  0.67881113  0.93649725  1  0.483462  -0.003274  0.053598  0.109167  -0.003911  3.893164  -0.002
C  C69  1  0.90003450  0.82125569  0.56337769  1  0.475751  -0.003269  0.052775  0.106863  -0.003924  3.894068  -0.002
C  C70  1  0.71496400  0.32118908  0.06350165  1  0.484041  -0.003275  0.053575  0.109077  -0.003912  3.893342  -0.002
C  C71  1  0.09997282  0.17873718  0.43662154  1  0.476634  -0.003271  0.052827  0.106889  -0.003925  3.893937  -0.002
C  C72  1  0.20802376  0.77539669  0.91750736  1  0.008498  0.004753  -0.07655  -0.155329  0.002627  3.937339  0.004
C  C73  1  0.90071481  0.72458413  0.58250607  1  -0.000448  0.004739  -0.077377  -0.156392  0.002623  3.938968  0.004
C  C74  1  0.79197748  0.22460506  0.08248854  1  0.008528  0.004754  -0.076525  -0.155199  0.002627  3.937339  0.004
C  C75  1  0.09928874  0.27541392  0.41749112  1  -0.001244  0.004741  -0.07736  -0.156307  0.002623  3.93887  0.004
C  C76  1  0.24359611  0.84931594  0.92485636  1  0.007126  -0.005242  0.006558  0.081628  -0.005788  4.044189  -0.003
C  C77  1  0.01757912  0.65079375  0.57507629  1  -0.01974  -0.005372  0.006937  0.081176  -0.005922  4.049685  -0.003
C  C78  1  0.75640687  0.15068355  0.07514166  1  0.007018  -0.005244  0.006553  0.081582  -0.00579  4.044267  -0.003
C  C79  1  0.98242828  0.34920133  0.42492278  1  -0.019651  -0.005371  0.006901  0.081155  -0.005921  4.049753  -0.003
C  C80  1  0.35963031  0.82050468  0.94943006  1  -0.069296  0.004499  -0.083824  -0.167026  0.002492  3.953623  0.004
C  C81  1  0.12926473  0.67980772  0.55039825  1  -0.004864  0.004785  -0.082891  -0.164372  0.002674  3.957854  0.004
C  C82  1  0.64036945  0.17949851  0.05056688  1  -0.069224  0.004499  -0.083905  -0.167132  0.002492  3.953672  0.004
C  C83  1  0.87073989  0.32018725  0.44960504  1  -0.004849  0.004785  -0.082769  -0.164149  0.002675  3.957611  0.004
C  C84  1  0.43205331  0.72248377  0.96553106  1  0.503992  -0.003149  0.05097  0.102318  -0.003597  3.945321  -0.002
C  C85  1  0.11967357  0.77788237  0.53419198  1  0.479315  -0.003285  0.05162  0.102385  -0.003793  3.946992  -0.002
C  C86  1  0.56794848  0.27751649  0.03446580  1  0.504193  -0.003149  0.050987  0.102362  -0.003597  3.945268  -0.002
C  C87  1  0.88033305  0.22210960  0.46581420  1  0.479538  -0.003285  0.051636  0.102354  -0.003793  3.94709  -0.002
C  C88  1  0.16692553  0.95191538  0.90587709  1  0.381817  -0.002689  0.095723  0.075004  -0.002936  3.967451  -0.001
C  C89  1  0.02470691  0.54809687  0.59416484  1  0.398004  -0.002359  0.096045  0.076063  -0.002583  3.969361  -0.001
C  C90  1  0.83307448  0.04808699  0.09412362  1  0.382259  -0.002689  0.095724  0.075079  -0.002935  3.967569  -0.001
C  C91  1  0.97529351  0.45189961  0.40583654  1  0.398449  -0.002358  0.096011  0.075973  -0.002582  3.96955  -0.001
C  C92  1  0.09281667  0.01328157  0.84378008  1  0.420485  -0.00052  0.089275  0.072735  -0.000676  4.016565  0.0
C  C93  1  0.94997061  0.48659350  0.65626325  1  0.403877  -0.000692  0.089929  0.0738  -0.000838  4.016455  0.0
C  C94  1  0.90718069  0.98672303  0.15621932  1  0.420405  -0.000521  0.089327  0.07277  -0.000676  4.016644  0.0
C  C95  1  0.05003098  0.51340221  0.34373989  1  0.40387  -0.000692  0.089968  0.073841  -0.000837  4.016416  0.0
C  C96  1  0.09430584  0.10770092  0.91215082  1  0.997064  -4e-05  0.2145  0.279427  -0.000291  4.045453  0.0
C  C97  1  0.11414301  0.39239818  0.58765861  1  0.963  -8.5e-05  0.215316  0.280292  -0.000311  4.046025  0.0
C  C98  1  0.90569088  0.89230294  0.08784897  1  0.996778  -4e-05  0.214567  0.279583  -0.000291  4.045439  0.0
C  C99  1  0.88585522  0.60759683  0.41234316  1  0.963218  -8.5e-05  0.215457  0.280567  -0.000311  4.045848  0.0
C  C100  1  0.06775700  0.99521485  0.77301879  1  0.078865  -0.005156  0.009189  0.091955  -0.005638  4.017863  -0.003
C  C101  1  0.83617077  0.50454897  0.72706219  1  -0.01606  -0.005193  0.007276  0.089632  -0.005668  4.021966  -0.003
C  C102  1  0.93223677  0.00479193  0.22698129  1  0.078698  -0.005157  0.009123  0.091907  -0.005639  4.01757  -0.003
C  C103  1  0.16383217  0.49545043  0.27294002  1  -0.015659  -0.005192  0.007275  0.089666  -0.005667  4.02199  -0.003
C  C104  1  0.15111081  0.92431743  0.73015869  1  -0.115883  0.005721  -0.075742  -0.164424  0.003246  3.901181  0.004
C  C105  1  0.80584884  0.57542568  0.76993994  1  -0.027658  0.005632  -0.076759  -0.166178  0.003203  3.898809  0.004
C  C106  1  0.84888749  0.07568926  0.26984571  1  -0.115436  0.005721  -0.075733  -0.164507  0.003246  3.901236  0.004
C  C107  1  0.19415166  0.42457304  0.23006009  1  -0.027664  0.005632  -0.076748  -0.166165  0.003203  3.898847  0.004
C  C108  1  0.12581188  0.92201652  0.65634311  1  0.534176  -0.002516  0.063313  0.130077  -0.003092  3.902368  -0.002
C  C109  1  0.70424671  0.57783763  0.84367343  1  0.530897  -0.002512  0.064613  0.131846  -0.00316  3.901755  -0.002
C  C110  1  0.87419627  0.07798362  0.34365884  1  0.534159  -0.002516  0.063322  0.130202  -0.003093  3.90233  -0.002
C  C111  1  0.29574958  0.42216257  0.15632589  1  0.530826  -0.002511  0.06458  0.131815  -0.003159  3.901791  -0.002
C  C112  1  0.94157795  0.05073800  0.66616372  1  0.505482  -0.003035  0.039737  0.092368  -0.003613  3.953463  -0.002
C  C113  1  0.65858643  0.44903378  0.83387800  1  0.478443  -0.003016  0.040741  0.09421  -0.003633  3.951423  -0.002
C  C114  1  0.05842002  0.94925780  0.33383549  1  0.5048  -0.003034  0.03967  0.092241  -0.003612  3.9538  -0.002
C  C115  1  0.34141452  0.55096119  0.16612553  1  0.478572  -0.003017  0.040785  0.094373  -0.003635  3.951515  -0.002
C  C116  1  0.95947234  0.05849148  0.73981126  1  -0.069368  0.005403  -0.088415  -0.17573  0.003047  3.95661  0.004
C  C117  1  0.75782777  0.44131142  0.76020748  1  -0.016033  0.005332  -0.088686  -0.176497  0.003007  3.958426  0.004
C  C118  1  0.04052255  0.94151237  0.26018895  1  -0.068824  0.005402  -0.088356  -0.175599  0.003046  3.956571  0.004
C  C119  1  0.24217169  0.55868496  0.23979829  1  -0.016249  0.005332  -0.088684  -0.176506  0.003007  3.958577  0.004
C  C120  1  0.07799145  0.19487865  0.93480599  1  -0.060425  -0.007517  0.003429  0.039328  -0.008261  4.04302  -0.005
C  C121  1  0.20770273  0.30527324  0.56494682  1  -0.012322  -0.007343  0.005819  0.042191  -0.008064  4.041683  -0.005
C  C122  1  0.92200764  0.80512370  0.06519553  1  -0.060489  -0.007518  0.003395  0.039219  -0.008262  4.042942  -0.005
C  C123  1  0.79229456  0.69472171  0.43505755  1  -0.013337  -0.007343  0.005755  0.041984  -0.008064  4.041762  -0.005
C  C124  1  0.01361049  0.28761214  0.88602749  1  0.053165  0.00469  -0.078817  -0.148233  0.002588  3.90459  0.004
C  C125  1  0.18732849  0.21249815  0.61384484  1  -0.008086  0.004758  -0.078896  -0.147564  0.002614  3.905469  0.004
C  C126  1  0.98638614  0.71238949  0.11397365  1  0.052986  0.004691  -0.078779  -0.148112  0.002588  3.904523  0.004
C  C127  1  0.81267357  0.78749382  0.38616121  1  -0.006957  0.004757  -0.078894  -0.14749  0.002614  3.905558  0.004
C  C128  1  0.99782401  0.37112877  0.90699653  1  0.466096  -0.004926  0.050862  0.102235  -0.005626  3.924051  -0.003
C  C129  1  0.27599392  0.12900798  0.59290555  1  0.468866  -0.005001  0.051398  0.101355  -0.005716  3.92729  -0.003
C  C130  1  0.00217602  0.62887367  0.09300119  1  0.465999  -0.004927  0.050857  0.102176  -0.005626  3.924298  -0.003
C  C131  1  0.72400671  0.87098559  0.40709497  1  0.469202  -0.005002  0.051502  0.101541  -0.005716  3.927168  -0.003
C  C132  1  0.10415604  0.27979815  0.01927249  1  0.507928  -0.004894  0.051994  0.101192  -0.005434  3.92857  -0.003
C  C133  1  0.40309457  0.22043473  0.48043946  1  0.469133  -0.004608  0.052337  0.102149  -0.005195  3.9299  -0.003
C  C134  1  0.89584323  0.72020870  0.98072514  1  0.507751  -0.004893  0.051949  0.101056  -0.005433  3.928563  -0.003
C  C135  1  0.59690165  0.77956326  0.51956001  1  0.469147  -0.004608  0.052346  0.102124  -0.005195  3.92994  -0.003
C  C136  1  0.12457415  0.19215412  0.00258238  1  -0.041502  0.005544  -0.090748  -0.187406  0.003008  3.98294  0.004
C  C137  1  0.31923800  0.30808112  0.49708738  1  -0.006351  0.005384  -0.091963  -0.189841  0.002954  3.984157  0.004
C  C138  1  0.87542642  0.80784677  0.99741869  1  -0.041549  0.005543  -0.090682  -0.187245  0.003007  3.982953  0.004
C  C139  1  0.68075930  0.69191385  0.50291580  1  -0.006916  0.005385  -0.09199  -0.189882  0.002954  3.984172  0.004
C  C140  1  0.70601332  0.53729612  0.06250782  1  1.568394  0.000231  0.216685  0.577161  0.00042  4.17338  0.002
C  C141  1  0.30610749  0.96261811  0.43734606  1  1.549154  0.000283  0.216832  0.576194  0.000364  4.174979  0.002
C  C142  1  0.29398274  0.46271443  0.93748812  1  1.568587  0.00023  0.216651  0.577083  0.00042  4.173316  0.002
C  C143  1  0.69389230  0.03737768  0.56265392  1  1.549304  0.000281  0.216802  0.576162  0.000364  4.174957  0.002
C  C144  1  0.69983424  0.56445432  0.14054064  1  -0.041657  0.006612  -0.015868  -0.03922  0.003546  3.973098  0.005
C  C145  1  0.40514955  0.93543638  0.35931091  1  -0.031638  0.006562  -0.014712  -0.036439  0.003551  3.970762  0.005
C  C146  1  0.30016432  0.43554958  0.85945753  1  -0.041714  0.006612  -0.015869  -0.039129  0.003546  3.97295  0.005
C  C147  1  0.59484830  0.06456458  0.64068720  1  -0.031434  0.006562  -0.014684  -0.036294  0.003551  3.970515  0.005
C  C148  1  0.59818424  0.64534888  0.15932963  1  -0.028223  -0.000548  -0.105663  -0.222749  -0.000624  3.992978  0.0
C  C149  1  0.40318425  0.85443374  0.34063382  1  0.053068  -0.000509  -0.106318  -0.223213  -0.000581  3.995701  0.0
C  C150  1  0.40181691  0.35465061  0.84066881  1  -0.028378  -0.000549  -0.105643  -0.222719  -0.000624  3.992831  0.0
C  C151  1  0.59681161  0.14557027  0.65935960  1  0.053308  -0.000509  -0.10633  -0.223203  -0.000581  3.995478  0.0
C  C152  1  0.58279597  0.67502629  0.23094900  1  0.350629  -5.3e-05  0.07055  0.250195  -8.5e-05  4.09373  0.0
C  C153  1  0.48894630  0.82475004  0.26902133  1  0.37459  -6.8e-05  0.070377  0.251499  -0.000102  4.096151  0.0
C  C154  1  0.41719840  0.32497167  0.76905209  1  0.34984  -5.3e-05  0.070556  0.250258  -8.5e-05  4.093719  0.0
C  C155  1  0.51104819  0.17525022  0.73097543  1  0.373977  -6.8e-05  0.070382  0.251462  -0.000102  4.096095  0.0
C  C156  1  0.66951180  0.62535861  0.28534870  1  0.010787  -0.000193  -0.112316  -0.204424  -0.000266  4.015096  0.0
C  C157  1  0.58028759  0.87454640  0.21448013  1  -0.080026  -0.000119  -0.112747  -0.208099  -0.000192  4.018368  0.0
C  C158  1  0.33048301  0.37464305  0.71465106  1  0.011564  -0.000194  -0.112395  -0.204537  -0.000267  4.015022  0.0
C  C159  1  0.41970497  0.12545907  0.78551357  1  -0.079945  -0.000119  -0.112722  -0.208062  -0.000192  4.018491  0.0
C  C160  1  0.76730230  0.54321047  0.26807806  1  -0.014125  0.000444  -0.096121  -0.087927  0.00025  4.016237  0.0
C  C161  1  0.57864839  0.95683434  0.23160820  1  0.034354  0.00042  -0.09547  -0.085119  0.000235  4.015099  0.0
C  C162  1  0.23269631  0.45679557  0.73192235  1  -0.014257  0.000445  -0.096086  -0.087822  0.00025  4.016055  0.0
C  C163  1  0.42135074  0.04316812  0.76838854  1  0.034149  0.00042  -0.095396  -0.085074  0.000234  4.015116  0.0
C  C164  1  0.78471175  0.51053776  0.19667110  1  0.054694  0.000877  -0.013714  -0.050745  9.1e-05  3.926148  0.001
C  C165  1  0.49204905  0.98951142  0.30304159  1  -0.027935  0.000931  -0.014535  -0.052467  0.000104  3.925772  0.001
C  C166  1  0.21528729  0.48947196  0.80332918  1  0.055033  0.000876  -0.013778  -0.050965  9e-05  3.92635  0.001
C  C167  1  0.50794799  0.01049183  0.69695300  1  -0.027666  0.000932  -0.014521  -0.052441  0.000104  3.925667  0.001
C  C168  1  0.88917658  0.41439471  0.19187293  1  1.589905  0.000457  0.18967  0.572193  0.000403  4.251062  0.0
C  C169  1  0.49503324  0.08577352  0.30801918  1  1.617414  0.0005  0.190301  0.572812  0.00045  4.254244  0.0
C  C170  1  0.11082465  0.58561450  0.80811755  1  1.589964  0.000458  0.189762  0.572457  0.000405  4.251085  0.0
C  C171  1  0.50496736  0.91422746  0.69197831  1  1.617705  0.000499  0.190218  0.57259  0.00045  4.254019  0.0
N  N172  1  0.39574398  0.65123035  0.96087414  1  -1.198389  0.071516  -0.311423  -0.209669  0.04181  3.526967  0.065
N  N173  1  0.00745171  0.84903234  0.53887663  1  -1.192787  0.071744  -0.312063  -0.209322  0.041961  3.52732  0.065
N  N174  1  0.60425669  0.34877282  0.03912378  1  -1.198548  0.071515  -0.311384  -0.209611  0.041809  3.526931  0.065
N  N175  1  0.99255446  0.15096340  0.46112546  1  -1.19306  0.071746  -0.312117  -0.209386  0.041962  3.527496  0.065
N  N176  1  0.16531072  0.01393951  0.94802258  1  -1.239794  -0.001991  -0.37474  -0.301223  -0.002154  3.636937  -0.002
N  N177  1  0.12715477  0.48622360  0.55186100  1  -1.249345  -0.001788  -0.375014  -0.300855  -0.001933  3.639034  -0.001
N  N178  1  0.83469021  0.98606287  0.05197792  1  -1.240018  -0.001991  -0.374722  -0.301279  -0.002154  3.63712  -0.002
N  N179  1  0.87284921  0.51377063  0.44814268  1  -1.24967  -0.001787  -0.375075  -0.300926  -0.001933  3.639291  -0.001
N  N180  1  0.04880611  0.10813915  0.84959215  1  -1.161533  -0.002305  -0.325117  -0.375012  -0.00245  3.221701  -0.002
N  N181  1  0.00660807  0.39178645  0.65030285  1  -1.144496  -0.002266  -0.326246  -0.377003  -0.002402  3.22272  -0.002
N  N182  1  0.95118694  0.89186467  0.15040907  1  -1.161051  -0.002305  -0.325172  -0.375146  -0.002451  3.221856  -0.002
N  N183  1  0.99339289  0.60820853  0.34970009  1  -1.144658  -0.002265  -0.326262  -0.377082  -0.002402  3.22278  -0.002
N  N184  1  0.02420660  0.98494928  0.62325720  1  -1.234511  0.07455  -0.316466  -0.216933  0.043525  3.543057  0.067
N  N185  1  0.63249607  0.51486410  0.87680321  1  -1.196354  0.074167  -0.317287  -0.21827  0.043369  3.543544  0.067
N  N186  1  0.97579775  0.01504646  0.37674471  1  -1.234581  0.074546  -0.316406  -0.216841  0.043524  3.543005  0.067
N  N187  1  0.36750020  0.48513605  0.12319850  1  -1.196314  0.074164  -0.317241  -0.218259  0.043368  3.543696  0.067
N  N188  1  0.04197353  0.36817711  0.97229179  1  -1.207316  0.065596  -0.31569  -0.216022  0.038381  3.552102  0.059
N  N189  1  0.38235939  0.13201575  0.52751362  1  -1.204808  0.065194  -0.315885  -0.215163  0.038194  3.55049  0.059
N  N190  1  0.95802530  0.63182602  0.02770775  1  -1.207272  0.065599  -0.315764  -0.216083  0.038382  3.551928  0.059
N  N191  1  0.61763886  0.86797930  0.47248636  1  -1.204559  0.065191  -0.315898  -0.215112  0.038195  3.550543  0.059
O  O192  1  0.81117490  0.51224774  0.00920082  1  -1.153222  0.064579  -0.296619  -0.533142  0.036279  2.399382  0.06
O  O193  1  0.33289956  0.98745223  0.49081514  1  -1.146465  0.064246  -0.296728  -0.5326  0.036065  2.401621  0.059
O  O194  1  0.18881861  0.48775984  0.99079669  1  -1.153329  0.064587  -0.296539  -0.533053  0.036283  2.39936  0.06
O  O195  1  0.66710108  0.01253390  0.50919020  1  -1.146747  0.064244  -0.296756  -0.532626  0.036064  2.401653  0.059
O  O196  1  0.59731772  0.54246690  0.05525624  1  -1.160452  0.067353  -0.308747  -0.552683  0.0382  2.445791  0.061
O  O197  1  0.19523565  0.95774561  0.44438990  1  -1.161989  0.06748  -0.309074  -0.552979  0.038279  2.442452  0.061
O  O198  1  0.40268269  0.45752958  0.94474574  1  -1.160617  0.067355  -0.308733  -0.552669  0.038201  2.445806  0.061
O  O199  1  0.80476063  0.04225453  0.55561180  1  -1.161922  0.067479  -0.30902  -0.552971  0.038278  2.442307  0.061
O  O200  1  0.98943766  0.41655541  0.12790700  1  -1.142437  0.069647  -0.332468  -0.583822  0.038645  2.379482  0.064
O  O201  1  0.53381359  0.08360113  0.37184731  1  -1.146767  0.069231  -0.332139  -0.583966  0.038429  2.378283  0.063
O  O202  1  0.01056565  0.58345299  0.87208682  1  -1.14249  0.069638  -0.332497  -0.583902  0.038641  2.37951  0.064
O  O203  1  0.46618405  0.91639524  0.62815888  1  -1.147294  0.06921  -0.332143  -0.583896  0.038418  2.378514  0.063
O  O204  1  0.87413119  0.33962259  0.25492964  1  -1.16266  0.01645  -0.352669  -0.558756  0.008759  2.04113  0.014
O  O205  1  0.46743636  0.16066743  0.24529009  1  -1.167711  0.016489  -0.353128  -0.558692  0.008766  2.042078  0.014
O  O206  1  0.12588782  0.66038275  0.74506989  1  -1.162899  0.016444  -0.35274  -0.558894  0.008755  2.041205  0.014
O  O207  1  0.53257713  0.83932833  0.75471091  1  -1.16751  0.016494  -0.3531  -0.558618  0.008769  2.041518  0.014
O  O208  1  0.47376488  0.74984385  0.25002494  1  -1.117829  -8e-06  -0.176343  -0.241082  -1.9e-05  2.547926  0.0
O  O209  1  0.52623746  0.25015489  0.74997407  1  -1.117471  -8e-06  -0.176384  -0.241158  -1.9e-05  2.547791  0.0
