# generated using pymatgen
data_MgH16C8O7
_symmetry_space_group_name_H-M   'P 1'
_cell_length_a   8.03981434
_cell_length_b   9.02294588
_cell_length_c   17.06090000
_cell_angle_alpha   101.36639198
_cell_angle_beta   90.00000000
_cell_angle_gamma   90.00000000
_symmetry_Int_Tables_number   1
_chemical_formula_structural   MgH16C8O7
_chemical_formula_sum   'Mg4 H64 C32 O28'
_cell_volume   1213.37161067
_cell_formula_units_Z   4
loop_
 _symmetry_equiv_pos_site_id
 _symmetry_equiv_pos_as_xyz
  1  'x, y, z'
loop_
 _atom_site_type_symbol
 _atom_site_label
 _atom_site_symmetry_multiplicity
 _atom_site_fract_x
 _atom_site_fract_y
 _atom_site_fract_z
 _atom_site_occupancy
 _atom_site_hle17_bader_spin_density
 _atom_site_hle17_ddec_charge
 _atom_site_hle17_ddec_spin_density
 _atom_site_hle17_ddec_sum_bond_order
 _atom_site_hle17_magmom
 _atom_site_hse06_10hf_bader_spin_density
 _atom_site_hse06_10hf_ddec_charge
 _atom_site_hse06_10hf_ddec_spin_density
 _atom_site_hse06_10hf_ddec_sum_bond_order
 _atom_site_hse06_10hf_magmom
 _atom_site_hse06_bader_spin_density
 _atom_site_hse06_ddec_charge
 _atom_site_hse06_ddec_spin_density
 _atom_site_hse06_ddec_sum_bond_order
 _atom_site_hse06_magmom
 _atom_site_pbe_bader_charge
 _atom_site_pbe_bader_spin_density
 _atom_site_pbe_cm5_charge
 _atom_site_pbe_ddec_charge
 _atom_site_pbe_ddec_spin_density
 _atom_site_pbe_ddec_sum_bond_order
 _atom_site_pbe_magmom
Mg  Mg0  1  0.84940394  0.98973111  0.36675980  1  0  1.537967  0  1.087006  0  0  1.42908  0  1.343137  0  0  1.452622  0  1.305983  0  1.699159  0  0.80978  1.412274  0  1.36939  0
Mg  Mg1  1  0.34940359  0.51026917  0.63323991  1  0  1.537983  0  1.086952  0  0  1.429091  0  1.343086  0  0  1.452632  0  1.305935  0  1.699167  0  0.809789  1.412286  0  1.369337  0
Mg  Mg2  1  0.15059552  0.01026907  0.63324040  1  0  1.53799  0  1.086942  0  0  1.429105  0  1.34307  0  0  1.452646  0  1.305919  0  1.699169  0  0.809781  1.4123  0  1.36932  0
Mg  Mg3  1  0.65059587  0.48973102  0.36675970  1  0  1.537976  0  1.086993  0  0  1.429086  0  1.343126  0  0  1.452627  0  1.305974  0  1.699161  0  0.809785  1.41228  0  1.369378  0
H  H4  1  0.59617048  0.15164631  0.35721955  1  0  0.431852  0  0.867283  0  0  0.399499  0  0.933092  0  0  0.409429  0  0.918604  0  0.658954  0  0.307534  0.392518  0  0.943272  0
H  H5  1  0.09617138  0.34835265  0.64278043  1  0  0.431869  0  0.867259  0  0  0.399517  0  0.933065  0  0  0.409448  0  0.918576  0  0.658952  0  0.307537  0.392536  0  0.943245  0
H  H6  1  0.40382898  0.84835274  0.64278111  1  0  0.43186  0  0.867271  0  0  0.399504  0  0.933084  0  0  0.409435  0  0.918595  0  0.658949  0  0.307525  0.392523  0  0.943264  0
H  H7  1  0.90382809  0.65164641  0.35721906  1  0  0.431847  0  0.86729  0  0  0.399494  0  0.933099  0  0  0.409424  0  0.918612  0  0.658951  0  0.307524  0.392512  0  0.94328  0
H  H8  1  0.50248673  0.01150918  0.38656615  1  0  0.440969  0  0.851292  0  0  0.406842  0  0.917808  0  0  0.416895  0  0.903264  0  0.658695  0  0.300565  0.399849  0  0.927901  0
H  H9  1  0.00248762  0.48849091  0.61343395  1  0  0.440978  0  0.851284  0  0  0.406853  0  0.917795  0  0  0.416907  0  0.90325  0  0.658696  0  0.300573  0.39986  0  0.927887  0
H  H10  1  0.49751273  0.98849100  0.61343346  1  0  0.440968  0  0.851296  0  0  0.406843  0  0.917809  0  0  0.416895  0  0.903265  0  0.658692  0  0.30057  0.399849  0  0.927902  0
H  H11  1  0.99751308  0.51150928  0.38656624  1  0  0.440973  0  0.851288  0  0  0.406845  0  0.917805  0  0  0.416898  0  0.903261  0  0.658695  0  0.300562  0.399851  0  0.927899  0
H  H12  1  0.84034155  0.26595249  0.45869406  1  0  0.436892  0  0.856957  0  0  0.405887  0  0.919936  0  0  0.416664  0  0.904179  0  0.650311  0  0.301768  0.398228  0  0.931133  0
H  H13  1  0.34034119  0.23404873  0.54130557  1  0  0.4369  0  0.856935  0  0  0.405896  0  0.919922  0  0  0.416672  0  0.904166  0  0.650311  0  0.301768  0.398237  0  0.931118  0
H  H14  1  0.15965792  0.73404882  0.54130625  1  0  0.436918  0  0.856926  0  0  0.405914  0  0.919899  0  0  0.41669  0  0.904143  0  0.650319  0  0.301779  0.398255  0  0.931096  0
H  H15  1  0.65965827  0.76595146  0.45869404  1  0  0.436907  0  0.856941  0  0  0.4059  0  0.919919  0  0  0.416677  0  0.904162  0  0.650315  0  0.301774  0.398241  0  0.931116  0
H  H16  1  0.01839843  0.26075804  0.41945656  1  0  0.429962  0  0.872418  0  0  0.394208  0  0.942807  0  0  0.405563  0  0.926359  0  0.639698  0  0.297692  0.38622  0  0.954346  0
H  H17  1  0.51839879  0.23924092  0.58054342  1  0  0.429971  0  0.872399  0  0  0.394207  0  0.942796  0  0  0.405551  0  0.926358  0  0.63969  0  0.297702  0.386223  0  0.954333  0
H  H18  1  0.98160103  0.73924214  0.58054364  1  0  0.43  0  0.872364  0  0  0.394235  0  0.942759  0  0  0.405579  0  0.92632  0  0.639696  0  0.297713  0.386246  0  0.954299  0
H  H19  1  0.48160067  0.76075814  0.41945607  1  0  0.429991  0  0.872377  0  0  0.394225  0  0.942773  0  0  0.405569  0  0.926333  0  0.639692  0  0.29771  0.386237  0  0.954312  0
H  H20  1  0.90859934  0.87138242  0.50088783  1  0  0.435301  0  0.858431  0  0  0.40103  0  0.929924  0  0  0.411885  0  0.913831  0  0.67762  0  0.305038  0.393279  0  0.941437  0
H  H21  1  0.40860023  0.62861786  0.49911247  1  0  0.435298  0  0.858441  0  0  0.401025  0  0.929934  0  0  0.41188  0  0.913841  0  0.67762  0  0.305032  0.393273  0  0.941448  0
H  H22  1  0.09140136  0.12861890  0.49911249  1  0  0.435295  0  0.858473  0  0  0.401036  0  0.929919  0  0  0.411891  0  0.913825  0  0.677665  0  0.305037  0.393284  0  0.941433  0
H  H23  1  0.59140047  0.37138119  0.50088761  1  0  0.435291  0  0.858469  0  0  0.401032  0  0.929922  0  0  0.411887  0  0.913828  0  0.677622  0  0.305038  0.393281  0  0.941435  0
H  H24  1  0.75592044  0.98558573  0.51938178  1  0  0.430196  0  0.865332  0  0  0.391423  0  0.944866  0  0  0.40347  0  0.927288  0  0.633434  0  0.299305  0.38289  0  0.957298  0
H  H25  1  0.25592133  0.51441455  0.48061793  1  0  0.43019  0  0.865331  0  0  0.391419  0  0.944869  0  0  0.403465  0  0.927292  0  0.633432  0  0.299313  0.382885  0  0.957301  0
H  H26  1  0.24407902  0.01441446  0.48061841  1  0  0.430217  0  0.8653  0  0  0.391446  0  0.944834  0  0  0.403492  0  0.927257  0  0.633436  0  0.299314  0.382913  0  0.957266  0
H  H27  1  0.74407937  0.48558563  0.51938168  1  0  0.430193  0  0.865328  0  0  0.391418  0  0.944871  0  0  0.403466  0  0.927293  0  0.633432  0  0.299312  0.382886  0  0.957301  0
H  H28  1  0.35478182  0.65260390  0.28831312  1  0  0.131057  0  0.980634  0  0  0.136526  0  1.046689  0  0  0.140483  0  1.046054  0  0.085031  0  0.104417  0.133781  0  1.047193  0
H  H29  1  0.85478218  0.84739525  0.71168881  1  0  0.131099  0  0.980576  0  0  0.136545  0  1.046657  0  0  0.140498  0  1.046016  0  0.084906  0  0.104423  0.133801  0  1.04716  0
H  H30  1  0.64521764  0.34739515  0.71168813  1  0  0.131103  0  0.980566  0  0  0.136547  0  1.046646  0  0  0.1405  0  1.046006  0  0.084995  0  0.104427  0.133803  0  1.04715  0
H  H31  1  0.14521853  0.15260494  0.28831139  1  0  0.131059  0  0.98064  0  0  0.136533  0  1.046691  0  0  0.140488  0  1.046053  0  0.084928  0  0.104419  0.133788  0  1.047195  0
H  H32  1  0.03927827  0.77538851  0.22162047  1  0  0.082143  0  0.960037  0  0  0.092374  0  1.022476  0  0  0.095127  0  1.020749  0  0.084572  0  0.105493  0.090228  0  1.024082  0
H  H33  1  0.53927738  0.72461177  0.77837865  1  0  0.08215  0  0.960049  0  0  0.092392  0  1.02248  0  0  0.095145  0  1.020751  0  0.08457  0  0.105495  0.090244  0  1.02409  0
H  H34  1  0.96072119  0.22461167  0.77837797  1  0  0.082151  0  0.960044  0  0  0.092387  0  1.02248  0  0  0.09514  0  1.020751  0  0.084577  0  0.105491  0.090239  0  1.024088  0
H  H35  1  0.46072333  0.27538842  0.22162096  1  0  0.082129  0  0.96006  0  0  0.092372  0  1.02249  0  0  0.095125  0  1.020761  0  0.084559  0  0.105489  0.090224  0  1.024099  0
H  H36  1  0.26584942  0.49562975  0.16140591  1  0  0.106892  0  0.953353  0  0  0.127212  0  1.014578  0  0  0.128513  0  1.014754  0  0.057407  0  0.092634  0.126237  0  1.014438  0
H  H37  1  0.76584729  0.00436922  0.83859525  1  0  0.106882  0  0.953398  0  0  0.127222  0  1.014603  0  0  0.128522  0  1.014781  0  0.05744  0  0.092629  0.126249  0  1.014461  0
H  H38  1  0.73415377  0.50436931  0.83859534  1  0  0.10688  0  0.953414  0  0  0.127221  0  1.014616  0  0  0.12852  0  1.014798  0  0.057443  0  0.092645  0.126249  0  1.014474  0
H  H39  1  0.23415217  0.99563097  0.16140495  1  0  0.106889  0  0.953392  0  0  0.127236  0  1.014583  0  0  0.128536  0  1.014764  0  0.057437  0  0.092645  0.126262  0  1.014442  0
H  H40  1  0.04734811  0.50260354  0.14394031  1  0  0.105148  0  0.951773  0  0  0.128199  0  1.011608  0  0  0.128379  0  1.013342  0  0.051877  0  0.091842  0.128003  0  1.010441  0
H  H41  1  0.54734473  0.99739787  0.85606127  1  0  0.105136  0  0.951743  0  0  0.128183  0  1.011593  0  0  0.128359  0  1.01333  0  0.051859  0  0.091815  0.127983  0  1.010426  0
H  H42  1  0.95265633  0.49739665  0.85606047  1  0  0.105133  0  0.951743  0  0  0.128179  0  1.011596  0  0  0.128357  0  1.01333  0  0.051855  0  0.091828  0.127981  0  1.010428  0
H  H43  1  0.45265473  0.00260231  0.14393892  1  0  0.105158  0  0.951723  0  0  0.128209  0  1.011568  0  0  0.128386  0  1.013304  0  0.051857  0  0.091835  0.12801  0  1.010402  0
H  H44  1  0.18255148  0.61252580  0.09729569  1  0  0.093735  0  0.958286  0  0  0.115637  0  1.021132  0  0  0.115833  0  1.022043  0  0.023352  0  0.088194  0.115485  0  1.020398  0
H  H45  1  0.68254810  0.88747108  0.90270425  1  0  0.093731  0  0.958261  0  0  0.115638  0  1.021107  0  0  0.115834  0  1.022019  0  0.023353  0  0.088185  0.115485  0  1.020373  0
H  H46  1  0.81745296  0.38747099  0.90270357  1  0  0.09372  0  0.958269  0  0  0.11564  0  1.0211  0  0  0.115836  0  1.022012  0  0.023371  0  0.0882  0.115487  0  1.020367  0
H  H47  1  0.31745136  0.11252910  0.09729594  1  0  0.093739  0  0.958256  0  0  0.115636  0  1.021109  0  0  0.115833  0  1.02202  0  0.023291  0  0.088185  0.115483  0  1.020375  0
H  H48  1  0.72301172  0.86463020  0.17628143  1  0  0.122094  0  0.970171  0  0  0.12756  0  1.036993  0  0  0.131563  0  1.035596  0  0.097055  0  0.101848  0.124307  0  1.038897  0
H  H49  1  0.22301386  0.63537347  0.82372039  1  0  0.122112  0  0.97018  0  0  0.127592  0  1.036991  0  0  0.131597  0  1.035592  0  0.096958  0  0.101858  0.124339  0  1.038894  0
H  H50  1  0.27698774  0.13537112  0.82371947  1  0  0.122091  0  0.970176  0  0  0.127555  0  1.037002  0  0  0.131559  0  1.035605  0  0.096938  0  0.101848  0.124303  0  1.038905  0
H  H51  1  0.77698685  0.36462784  0.17627993  1  0  0.122096  0  0.970202  0  0  0.127559  0  1.037024  0  0  0.131563  0  1.035626  0  0.097221  0  0.101848  0.124308  0  1.038925  0
H  H52  1  0.56678423  0.55134207  0.11520560  1  0  0.071218  0  0.953375  0  0  0.083294  0  1.015273  0  0  0.085813  0  1.013939  0  0.080377  0  0.098712  0.081211  0  1.016869  0
H  H53  1  0.06678264  0.94865821  0.88479411  1  0  0.071189  0  0.953379  0  0  0.083266  0  1.015279  0  0  0.085784  0  1.013945  0  0.080354  0  0.098698  0.081183  0  1.016874  0
H  H54  1  0.43321772  0.44865699  0.88479506  1  0  0.071226  0  0.953372  0  0  0.083302  0  1.015269  0  0  0.085821  0  1.013935  0  0.080377  0  0.09872  0.081219  0  1.016864  0
H  H55  1  0.93321807  0.05134198  0.11520609  1  0  0.071204  0  0.95337  0  0  0.083294  0  1.015255  0  0  0.085812  0  1.013922  0  0.080358  0  0.098704  0.08121  0  1.016851  0
H  H56  1  0.63660177  0.82582951  0.03355755  1  0  0.097709  0  0.9549  0  0  0.118461  0  1.015759  0  0  0.120156  0  1.015024  0  0.03046  0  0.089901  0.117127  0  1.016433  0
H  H57  1  0.13660141  0.67417303  0.96644297  1  0  0.097725  0  0.954901  0  0  0.118471  0  1.015761  0  0  0.120166  0  1.015026  0  0.030482  0  0.089931  0.117143  0  1.016428  0
H  H58  1  0.36339770  0.17417067  0.96644264  1  0  0.097686  0  0.954933  0  0  0.118437  0  1.015794  0  0  0.120131  0  1.015059  0  0.03045  0  0.089898  0.117104  0  1.016467  0
H  H59  1  0.86339805  0.32582829  0.03355675  1  0  0.097724  0  0.954891  0  0  0.118468  0  1.015761  0  0  0.120163  0  1.015026  0  0.030474  0  0.089915  0.117135  0  1.016435  0
H  H60  1  0.46105169  0.70391423  0.01189882  1  0  0.104456  0  0.943  0  0  0.128708  0  0.999759  0  0  0.129418  0  1.000518  0  0.070609  0  0.09373  0.12823  0  0.999116  0
H  H61  1  0.96105080  0.79608718  0.98810159  1  0  0.10443  0  0.942997  0  0  0.12867  0  0.999773  0  0  0.129379  0  1.000532  0  0.070605  0  0.093733  0.128191  0  0.999132  0
H  H62  1  0.53894901  0.29608483  0.98810184  1  0  0.104435  0  0.943026  0  0  0.128686  0  0.999789  0  0  0.129397  0  1.000548  0  0.070605  0  0.09373  0.128209  0  0.999145  0
H  H63  1  0.03894990  0.20391300  0.01189802  1  0  0.104444  0  0.942983  0  0  0.128694  0  0.999749  0  0  0.129404  0  1.000508  0  0.070576  0  0.093725  0.128215  0  0.999107  0
H  H64  1  0.66122796  0.63308769  0.98467059  1  0  0.102836  0  0.950267  0  0  0.125668  0  1.010757  0  0  0.12653  0  1.011188  0  0.047675  0  0.093291  0.12507  0  1.010311  0
H  H65  1  0.16122636  0.86691372  0.01532982  1  0  0.102791  0  0.950238  0  0  0.125615  0  1.010743  0  0  0.126478  0  1.011173  0  0.047678  0  0.093276  0.125017  0  1.010298  0
H  H66  1  0.33877150  0.36691137  0.01533008  1  0  0.10283  0  0.950291  0  0  0.125667  0  1.010775  0  0  0.12653  0  1.011205  0  0.047671  0  0.093292  0.125067  0  1.010331  0
H  H67  1  0.83877186  0.13308647  0.98466979  1  0  0.102822  0  0.950288  0  0  0.125655  0  1.010775  0  0  0.126517  0  1.011205  0  0.047661  0  0.093283  0.125057  0  1.010329  0
C  C68  1  0.22257852  0.85425938  0.35275207  1  0  0.739557  0  3.867371  0  0  0.686186  0  4.161792  0  0  0.721459  0  4.151395  0  1.540308  0  0.222252  0.662435  0  4.167952  0
C  C69  1  0.72257888  0.64574203  0.64724775  1  0  0.739484  0  3.867567  0  0  0.686118  0  4.16199  0  0  0.721389  0  4.151598  0  1.540728  0  0.22222  0.662368  0  4.168149  0
C  C70  1  0.77742218  0.14573967  0.64724742  1  0  0.739591  0  3.867418  0  0  0.686253  0  4.161791  0  0  0.721524  0  4.151396  0  1.540309  0  0.22229  0.662503  0  4.167952  0
C  C71  1  0.27742059  0.35425929  0.35275198  1  0  0.739543  0  3.867474  0  0  0.686163  0  4.161912  0  0  0.721436  0  4.151515  0  1.540739  0  0.222238  0.662412  0  4.16807  0
C  C72  1  0.24714128  0.72498369  0.28545456  1  0  -0.296836  0  3.681585  0  0  -0.31288  0  3.93615  0  0  -0.325723  0  3.953834  0  -0.062071  0  -0.115166  -0.304342  0  3.923958  0
C  C73  1  0.74714536  0.77501659  0.71454573  1  0  -0.296891  0  3.681571  0  0  -0.312929  0  3.936174  0  0  -0.325762  0  3.953849  0  -0.061991  0  -0.115221  -0.304391  0  3.923982  0
C  C74  1  0.75285445  0.27501650  0.71454505  1  0  -0.296853  0  3.681439  0  0  -0.312886  0  3.936026  0  0  -0.325719  0  3.953702  0  -0.062059  0  -0.115184  -0.304348  0  3.923834  0
C  C75  1  0.25285659  0.22498359  0.28545387  1  0  -0.29685  0  3.681553  0  0  -0.312906  0  3.936135  0  0  -0.325744  0  3.953813  0  -0.061975  0  -0.11519  -0.304368  0  3.923943  0
C  C76  1  0.14419985  0.69843038  0.22226043  1  0  0.075072  0  3.686399  0  0  0.067476  0  3.935522  0  0  0.07116  0  3.955083  0  -0.040121  0  -0.069781  0.065026  0  3.922183  0
C  C77  1  0.64420144  0.80156764  0.77774022  1  0  0.075066  0  3.68645  0  0  0.067461  0  3.935573  0  0  0.071148  0  3.955129  0  -0.040117  0  -0.069773  0.06501  0  3.922235  0
C  C78  1  0.85579837  0.30156868  0.77774082  1  0  0.075012  0  3.686412  0  0  0.067404  0  3.935559  0  0  0.07109  0  3.955116  0  -0.040131  0  -0.069799  0.064954  0  3.922222  0
C  C79  1  0.35580175  0.19843028  0.22226033  1  0  0.075097  0  3.686414  0  0  0.067493  0  3.935538  0  0  0.07118  0  3.955095  0  -0.04013  0  -0.069772  0.065043  0  3.922201  0
C  C80  1  0.16236196  0.57020827  0.15293216  1  0  -0.3042  0  3.769859  0  0  -0.376201  0  4.003677  0  0  -0.378883  0  4.015726  0  -0.076045  0  -0.239491  -0.373932  0  3.995074  0
C  C81  1  0.66236107  0.92978975  0.84706790  1  0  -0.304165  0  3.769871  0  0  -0.376184  0  4.003687  0  0  -0.378867  0  4.01574  0  -0.07604  0  -0.23944  -0.373911  0  3.995082  0
C  C82  1  0.83763999  0.42978966  0.84706721  1  0  -0.304146  0  3.769884  0  0  -0.376173  0  4.003718  0  0  -0.378857  0  4.015768  0  -0.076055  0  -0.239488  -0.373902  0  3.995115  0
C  C83  1  0.33763964  0.07021044  0.15293171  1  0  -0.304218  0  3.769849  0  0  -0.376236  0  4.003665  0  0  -0.37892  0  4.015714  0  -0.075988  0  -0.239488  -0.373964  0  3.995062  0
C  C84  1  0.69823254  0.69693591  0.25235218  1  0  0.737484  0  3.884806  0  0  0.687961  0  4.178087  0  0  0.722816  0  4.166835  0  1.572862  0  0.221448  0.664323  0  4.18501  0
C  C85  1  0.19823468  0.80306550  0.74764881  1  0  0.737573  0  3.884566  0  0  0.688032  0  4.177885  0  0  0.722874  0  4.16665  0  1.572817  0  0.221497  0.664395  0  4.184809  0
C  C86  1  0.30176692  0.30306540  0.74764872  1  0  0.737544  0  3.884646  0  0  0.688045  0  4.177895  0  0  0.722896  0  4.166648  0  1.572822  0  0.221488  0.664409  0  4.184818  0
C  C87  1  0.80176603  0.19693582  0.25235150  1  0  0.737561  0  3.884697  0  0  0.688065  0  4.177926  0  0  0.72293  0  4.166662  0  1.572833  0  0.221489  0.664429  0  4.184848  0
C  C88  1  0.67577929  0.75091524  0.17614339  1  0  -0.278236  0  3.683694  0  0  -0.29381  0  3.937818  0  0  -0.305509  0  3.955574  0  0.005537  0  -0.109389  -0.285873  0  3.925987  0
C  C89  1  0.17578142  0.74908730  0.82385772  1  0  -0.278389  0  3.683727  0  0  -0.293986  0  3.93789  0  0  -0.305682  0  3.955648  0  0.005693  0  -0.109503  -0.286049  0  3.92606  0
C  C90  1  0.32422017  0.24908494  0.82385739  1  0  -0.278253  0  3.683704  0  0  -0.29384  0  3.937828  0  0  -0.305539  0  3.955588  0  0.005681  0  -0.109415  -0.285904  0  3.925998  0
C  C91  1  0.82421804  0.25091402  0.17614259  1  0  -0.278347  0  3.68374  0  0  -0.293933  0  3.937885  0  0  -0.305634  0  3.955636  0  0.005422  0  -0.109489  -0.285995  0  3.926053  0
C  C92  1  0.60995190  0.66440022  0.11051576  1  0  0.054744  0  3.720112  0  0  0.045006  0  3.974377  0  0  0.047775  0  3.995578  0  -0.169013  0  -0.078214  0.043287  0  3.959928  0
C  C93  1  0.10995279  0.83560232  0.88948477  1  0  0.054844  0  3.720086  0  0  0.045108  0  3.974343  0  0  0.047877  0  3.995544  0  -0.169054  0  -0.078114  0.043387  0  3.959897  0
C  C94  1  0.39004756  0.33559996  0.88948385  1  0  0.054718  0  3.720112  0  0  0.04498  0  3.974378  0  0  0.047748  0  3.995579  0  -0.16902  0  -0.078217  0.043261  0  3.95993  0
C  C95  1  0.89004667  0.16439787  0.11051484  1  0  0.054778  0  3.720034  0  0  0.045027  0  3.974298  0  0  0.047796  0  3.9955  0  -0.169022  0  -0.078158  0.043306  0  3.959853  0
C  C96  1  0.59184824  0.71010687  0.03156262  1  0  -0.30436  0  3.781703  0  0  -0.376933  0  4.017982  0  0  -0.379269  0  4.028444  0  -0.083799  0  -0.23741  -0.374951  0  4.010355  0
C  C97  1  0.09184789  0.78989341  0.96843650  1  0  -0.304276  0  3.781652  0  0  -0.376826  0  4.017928  0  0  -0.379161  0  4.02839  0  -0.083786  0  -0.237419  -0.374847  0  4.010301  0
C  C98  1  0.40815122  0.28989219  0.96843745  1  0  -0.304308  0  3.78176  0  0  -0.376883  0  4.018034  0  0  -0.379219  0  4.028496  0  -0.083782  0  -0.237412  -0.374899  0  4.010409  0
C  C99  1  0.90815281  0.21010565  0.03156241  1  0  -0.304302  0  3.781679  0  0  -0.376867  0  4.017957  0  0  -0.379204  0  4.028419  0  -0.083757  0  -0.237382  -0.374885  0  4.010331  0
O  O100  1  0.60735233  0.06874197  0.38687298  1  0  -0.902452  0  1.847496  0  0  -0.843453  0  2.028635  0  0  -0.860979  0  1.997269  0  -1.344722  0  -0.615411  -0.831155  0  2.050374  0
O  O101  1  0.10735198  0.43125812  0.61312653  1  0  -0.902484  0  1.847462  0  0  -0.84349  0  2.028605  0  0  -0.861017  0  1.997236  0  -1.344722  0  -0.615423  -0.831193  0  2.050343  0
O  O102  1  0.39264837  0.93125821  0.61312662  1  0  -0.902471  0  1.847474  0  0  -0.843474  0  2.028617  0  0  -0.861002  0  1.997251  0  -1.344715  0  -0.615414  -0.831176  0  2.050356  0
O  O103  1  0.89264748  0.56874207  0.38687308  1  0  -0.902459  0  1.847482  0  0  -0.84346  0  2.028625  0  0  -0.860985  0  1.997258  0  -1.344722  0  -0.615408  -0.831161  0  2.050365  0
O  O104  1  0.93416461  0.19503778  0.43992805  1  0  -0.906072  0  1.907373  0  0  -0.84619  0  2.099767  0  0  -0.865042  0  2.065423  0  -1.3182  0  -0.597176  -0.832855  0  2.123824  0
O  O105  1  0.43416550  0.30496118  0.56007193  1  0  -0.906104  0  1.907323  0  0  -0.846211  0  2.099752  0  0  -0.865049  0  2.065442  0  -1.318194  0  -0.597191  -0.832882  0  2.123795  0
O  O106  1  0.06583485  0.80496240  0.56007214  1  0  -0.906143  0  1.907276  0  0  -0.846242  0  2.099701  0  0  -0.865079  0  2.065389  0  -1.318203  0  -0.597207  -0.832908  0  2.123759  0
O  O107  1  0.56583521  0.69503788  0.43992756  1  0  -0.906125  0  1.907304  0  0  -0.846221  0  2.099736  0  0  -0.86506  0  2.065421  0  -1.318198  0  -0.597198  -0.832886  0  2.123793  0
O  O108  1  0.80884082  0.90844446  0.47599207  1  0  -0.881288  0  1.915848  0  0  -0.815466  0  2.107952  0  0  -0.835244  0  2.073938  0  -1.325638  0  -0.581422  -0.801439  0  2.131766  0
O  O109  1  0.30884047  0.59155469  0.52400752  1  0  -0.881278  0  1.915842  0  0  -0.815467  0  2.107961  0  0  -0.835245  0  2.073948  0  -1.325632  0  -0.581425  -0.80144  0  2.131774  0
O  O110  1  0.19115989  0.09155573  0.52400812  1  0  -0.881299  0  1.915844  0  0  -0.815493  0  2.107922  0  0  -0.835271  0  2.07391  0  -1.325676  0  -0.581424  -0.801466  0  2.131735  0
O  O111  1  0.69116024  0.40844549  0.47599209  1  0  -0.88128  0  1.915876  0  0  -0.815468  0  2.107966  0  0  -0.835248  0  2.07395  0  -1.325628  0  -0.581433  -0.801443  0  2.131778  0
O  O112  1  0.08924709  0.92916461  0.35979632  1  0  -0.733513  0  2.056322  0  0  -0.671443  0  2.302843  0  0  -0.695782  0  2.290808  0  -1.257123  0  -0.364357  -0.654702  0  2.310784  0
O  O113  1  0.58924993  0.57083906  0.64020550  1  0  -0.73345  0  2.056451  0  0  -0.671369  0  2.302951  0  0  -0.695709  0  2.290919  0  -1.257084  0  -0.364323  -0.654628  0  2.310889  0
O  O114  1  0.91074740  0.07083784  0.64020528  1  0  -0.733514  0  2.056459  0  0  -0.671464  0  2.302974  0  0  -0.695802  0  2.290941  0  -1.257104  0  -0.364378  -0.654723  0  2.310912  0
O  O115  1  0.41075202  0.42916225  0.35979481  1  0  -0.733494  0  2.056422  0  0  -0.671415  0  2.302948  0  0  -0.695756  0  2.290915  0  -1.257101  0  -0.364342  -0.654675  0  2.310888  0
O  O116  1  0.34208128  0.88807588  0.40410309  1  0  -0.669649  0  1.975246  0  0  -0.589761  0  2.179976  0  0  -0.616494  0  2.16681  0  -1.192993  0  -0.3107  -0.571285  0  2.188486  0
O  O117  1  0.84208163  0.61192440  0.59589778  1  0  -0.669624  0  1.975275  0  0  -0.58974  0  2.180004  0  0  -0.616473  0  2.166838  0  -1.193432  0  -0.310681  -0.571264  0  2.188513  0
O  O118  1  0.65791693  0.11192431  0.59589710  1  0  -0.669666  0  1.975209  0  0  -0.589791  0  2.179929  0  0  -0.616524  0  2.166763  0  -1.193019  0  -0.310701  -0.571316  0  2.188442  0
O  O119  1  0.15791783  0.38807579  0.40410241  1  0  -0.669653  0  1.975265  0  0  -0.589762  0  2.180002  0  0  -0.616499  0  2.16684  0  -1.193433  0  -0.31069  -0.571287  0  2.188512  0
O  O120  1  0.63610549  0.57125394  0.26048507  1  0  -0.724007  0  1.997425  0  0  -0.671624  0  2.2396  0  0  -0.694007  0  2.226435  0  -1.240796  0  -0.350133  -0.656198  0  2.248909  0
O  O121  1  0.13610513  0.92874634  0.73951522  1  0  -0.724049  0  1.997341  0  0  -0.671667  0  2.239522  0  0  -0.694044  0  2.226359  0  -1.2408  0  -0.350146  -0.656238  0  2.248824  0
O  O122  1  0.36389646  0.42874624  0.73951512  1  0  -0.724046  0  1.997374  0  0  -0.671676  0  2.239537  0  0  -0.694056  0  2.226372  0  -1.240806  0  -0.350152  -0.656249  0  2.248843  0
O  O123  1  0.86389433  0.07125272  0.26048486  1  0  -0.724044  0  1.997366  0  0  -0.671683  0  2.23954  0  0  -0.694067  0  2.22637  0  -1.240807  0  -0.350155  -0.656251  0  2.248838  0
O  O124  1  0.78598332  0.77940277  0.30664168  1  0  -0.766661  0  2.092758  0  0  -0.700464  0  2.332268  0  0  -0.72461  0  2.318657  0  -1.254475  0  -0.356791  -0.683265  0  2.340869  0
O  O125  1  0.28598173  0.72059751  0.69335861  1  0  -0.76669  0  2.092656  0  0  -0.700461  0  2.332154  0  0  -0.724601  0  2.318542  0  -1.254462  0  -0.356814  -0.683263  0  2.340756  0
O  O126  1  0.21401738  0.22059855  0.69335922  1  0  -0.766663  0  2.092681  0  0  -0.700453  0  2.332146  0  0  -0.7246  0  2.318539  0  -1.25444  0  -0.356782  -0.683254  0  2.340742  0
O  O127  1  0.71401773  0.27940267  0.30664159  1  0  -0.766663  0  2.092708  0  0  -0.700465  0  2.332192  0  0  -0.724615  0  2.318575  0  -1.254464  0  -0.356789  -0.683268  0  2.340792  0
