# generated using pymatgen
data_Zr3H25C26N10O17
_symmetry_space_group_name_H-M   'P 1'
_cell_length_a   14.90098445
_cell_length_b   14.87235746
_cell_length_c   14.85792387
_cell_angle_alpha   59.74021382
_cell_angle_beta   59.91488176
_cell_angle_gamma   59.87646741
_symmetry_Int_Tables_number   1
_chemical_formula_structural   Zr3H25C26N10O17
_chemical_formula_sum   'Zr6 H50 C52 N20 O34'
_cell_volume   2320.03180366
_cell_formula_units_Z   2
loop_
 _symmetry_equiv_pos_site_id
 _symmetry_equiv_pos_as_xyz
  1  'x, y, z'
loop_
 _atom_site_type_symbol
 _atom_site_label
 _atom_site_symmetry_multiplicity
 _atom_site_fract_x
 _atom_site_fract_y
 _atom_site_fract_z
 _atom_site_occupancy
 _atom_site_pbe_bader_charge
 _atom_site_pbe_bader_spin_density
 _atom_site_pbe_cm5_charge
 _atom_site_pbe_ddec_charge
 _atom_site_pbe_ddec_spin_density
 _atom_site_pbe_ddec_sum_bond_order
 _atom_site_pbe_magmom
Zr  Zr0  1  0.87913720  0.88210718  0.62195812  1  2.630202  0  1.637857  2.362092  0  2.776534  0
Zr  Zr1  1  0.11591313  0.11950798  0.38425271  1  2.630201  0  1.63336  2.361354  0  2.783901  0
Zr  Zr2  1  0.11581013  0.88269319  0.62237491  1  2.625084  0  1.634201  2.361282  0  2.7834  0
Zr  Zr3  1  0.87858149  0.11973847  0.38481800  1  2.630188  0  1.636019  2.359145  0  2.781763  0
Zr  Zr4  1  0.11589456  0.88324696  0.38522008  1  2.631169  0  1.63655  2.352799  0  2.800575  0
Zr  Zr5  1  0.88016510  0.11919797  0.62101591  1  2.629795  0  1.636262  2.356049  0  2.794703  0
H  H6  1  0.09268066  0.71983427  0.59488947  1  0.605498  0  0.33146  0.422704  0  0.861022  0
H  H7  1  0.09197135  0.09237291  0.22174147  1  0.62621  0  0.33167  0.423075  0  0.858667  0
H  H8  1  0.09128675  0.09482722  0.59577995  1  0.606021  0  0.334724  0.427675  0  0.849969  0
H  H9  1  0.71762754  0.09516501  0.59691599  1  0.597087  0  0.334369  0.427036  0  0.851463  0
H  H10  1  0.97861179  0.57549515  0.73945863  1  0.069899  0  0.094074  0.099964  0  1.055207  0
H  H11  1  0.98003228  0.41113760  0.73811812  1  0.078493  0  0.092958  0.090627  0  1.043254  0
H  H12  1  0.98844300  0.23571185  0.07012547  1  0.067925  0  0.093108  0.093877  0  1.056942  0
H  H13  1  0.98586603  0.23885289  0.90451509  1  0.053091  0  0.09411  0.09321  0  1.034674  0
H  H14  1  0.15834172  0.35292802  0.33067734  1  0.461245  0  0.290534  0.287862  0  1.020009  0
H  H15  1  0.18470509  0.47382050  0.25858827  1  0.420555  0  0.298827  0.291354  0  0.948195  0
H  H16  1  0.80189825  0.69273039  0.62622241  1  0.498651  0  0.294562  0.297099  0  1.004342  0
H  H17  1  0.73937731  0.61002810  0.64923329  1  0.424269  0  0.293034  0.277449  0  0.975906  0
H  H18  1  0.18231505  0.63699965  0.35621219  1  0.473982  0  0.291493  0.291794  0  1.013232  0
H  H19  1  0.24494284  0.51613996  0.33000275  1  0.417037  0  0.290886  0.274908  0  0.983405  0
H  H20  1  0.83962918  0.34437723  0.67327212  1  0.468237  0  0.29235  0.293636  0  1.006099  0
H  H21  1  0.80129369  0.43882294  0.72980253  1  0.426433  0  0.294122  0.280013  0  0.971575  0
H  H22  1  0.35765170  0.15039383  0.17237198  1  0.484962  0  0.291136  0.294267  0  1.015279  0
H  H23  1  0.47717005  0.17904097  0.08993976  1  0.420415  0  0.291272  0.277235  0  0.976991  0
H  H24  1  0.67290086  0.81558430  0.87007527  1  0.48285  0  0.294351  0.299122  0  1.000952  0
H  H25  1  0.58486939  0.75367827  0.98766585  1  0.418032  0  0.295985  0.283428  0  0.962297  0
H  H26  1  0.63422233  0.18272133  0.83211362  1  0.471223  0  0.291591  0.29133  0  1.011727  0
H  H27  1  0.51498337  0.24495429  0.91723284  1  0.41085  0  0.291921  0.276945  0  0.97736  0
H  H28  1  0.32786740  0.85305193  0.13911057  1  0.470455  0  0.290899  0.291809  0  1.012898  0
H  H29  1  0.41371147  0.82378709  0.02069543  1  0.417487  0  0.290574  0.273863  0  0.978893  0
H  H30  1  0.80624488  0.13418006  0.87623340  1  0.469527  0  0.29051  0.292559  0  1.013645  0
H  H31  1  0.73969429  0.15565913  0.99930517  1  0.420112  0  0.290402  0.276152  0  0.980791  0
H  H32  1  0.14306730  0.81573174  0.17672603  1  0.480966  0  0.292043  0.293908  0  1.008307  0
H  H33  1  0.17710625  0.75585688  0.08740685  1  0.427845  0  0.296527  0.28703  0  0.959923  0
H  H34  1  0.82858446  0.16324851  0.15977123  1  0.454747  0  0.293373  0.293092  0  1.007592  0
H  H35  1  0.79641968  0.22867562  0.04226025  1  0.420283  0  0.293249  0.279105  0  0.96958  0
H  H36  1  0.18551481  0.86173405  0.82666983  1  0.473421  0  0.292326  0.292069  0  1.01164  0
H  H37  1  0.24380116  0.83250449  0.91639012  1  0.425196  0  0.292718  0.276589  0  0.979722  0
H  H38  1  0.36561368  0.67859329  0.31821958  1  0.494568  0  0.291828  0.293204  0  1.010064  0
H  H39  1  0.48329805  0.59199389  0.25617910  1  0.428359  0  0.291499  0.277208  0  0.97933  0
H  H40  1  0.67331565  0.36785808  0.64696826  1  0.474268  0  0.289749  0.290169  0  1.015225  0
H  H41  1  0.58867518  0.48511153  0.67750000  1  0.428124  0  0.288561  0.272159  0  0.983586  0
H  H42  1  0.64586730  0.34109633  0.34492950  1  0.490187  0  0.291943  0.295426  0  1.013082  0
H  H43  1  0.52340025  0.41973005  0.32080257  1  0.420795  0  0.292502  0.278186  0  0.974759  0
H  H44  1  0.32941737  0.63789552  0.68564598  1  0.465184  0  0.292335  0.293441  0  1.007407  0
H  H45  1  0.41691962  0.51904394  0.74753293  1  0.417195  0  0.295  0.281625  0  0.965458  0
H  H46  1  0.36681108  0.81343321  0.64536412  1  0.464741  0  0.291419  0.292359  0  1.010514  0
H  H47  1  0.48256216  0.75252214  0.67851419  1  0.412464  0  0.290278  0.273992  0  0.980202  0
H  H48  1  0.66668296  0.14930053  0.32517417  1  0.484082  0  0.290626  0.290519  0  1.016923  0
H  H49  1  0.58827676  0.17592125  0.25693282  1  0.425964  0  0.289108  0.274657  0  0.980462  0
H  H50  1  0.63156034  0.85268414  0.68745745  1  0.470281  0  0.292167  0.292337  0  1.007986  0
H  H51  1  0.51438396  0.82192169  0.74809994  1  0.431099  0  0.291442  0.275213  0  0.977283  0
H  H52  1  0.33249249  0.17695887  0.34945616  1  0.476038  0  0.290493  0.290147  0  1.016781  0
H  H53  1  0.41378571  0.24290312  0.32233339  1  0.425479  0  0.290008  0.274549  0  0.980695  0
H  H54  1  0.06649198  0.40098170  0.21208415  1  0.624991  0  0.310268  0.348947  0  0.966872  0
H  H55  1  0.06930058  0.70885694  0.90782634  1  0.632209  0  0.313092  0.358388  0  0.947162  0
C  C56  1  0.99506104  0.70248126  0.49553017  1  1.472888  0  0.231005  0.657376  0  4.053265  0
C  C57  1  0.30382470  0.99898282  0.19992783  1  1.45828  0  0.232327  0.66078  0  4.040616  0
C  C58  1  0.99610844  0.30983190  0.49837111  1  1.474793  0  0.23335  0.661135  0  4.043669  0
C  C59  1  0.69738509  0.99745163  0.81136772  1  1.481459  0  0.232359  0.660309  0  4.04643  0
C  C60  1  0.99507190  0.69674509  0.80865090  1  1.510295  0  0.235205  0.665177  0  4.073047  0
C  C61  1  0.69339132  0.99904476  0.50332110  1  1.477273  0  0.233133  0.661289  0  4.04377  0
C  C62  1  0.99519798  0.30534360  0.19721603  1  1.496287  0  0.237966  0.667061  0  4.062893  0
C  C63  1  0.30611280  0.99732218  0.49866712  1  1.448577  0  0.232958  0.661138  0  4.041698  0
C  C64  1  0.30450980  0.69905578  0.50317719  1  1.429096  0  0.232372  0.661029  0  4.047789  0
C  C65  1  0.99509415  0.99775343  0.81067561  1  1.473503  0  0.230851  0.659284  0  4.049309  0
C  C66  1  0.69809117  0.31024841  0.49901340  1  1.461911  0  0.234209  0.66238  0  4.038592  0
C  C67  1  0.99127826  0.99588940  0.20431640  1  1.498185  0  0.233041  0.659182  0  4.046313  0
C  C68  1  0.99546659  0.41048184  0.49610196  1  0.04841  0  -0.037534  -0.248794  0  3.940013  0
C  C69  1  0.99326519  0.60633756  0.49219647  1  -0.011819  0  -0.037103  -0.250295  0  3.929527  0
C  C70  1  0.08009435  0.45741764  0.41523487  1  0.337989  0  0.077912  0.171807  0  4.028794  0
C  C71  1  0.90337525  0.56535612  0.56632038  1  0.471992  0  0.086756  0.180646  0  4.04448  0
C  C72  1  0.08267903  0.54977872  0.41780382  1  0.470406  0  0.083471  0.181852  0  4.035412  0
C  C73  1  0.90926790  0.46361819  0.57445932  1  0.405999  0  0.077934  0.164659  0  4.044517  0
C  C74  1  0.40285835  0.99907000  0.10086348  1  -0.008509  0  -0.037639  -0.248966  0  3.931476  0
C  C75  1  0.59739547  0.99799230  0.90950284  1  0.011583  0  -0.038426  -0.250665  0  3.943237  0
C  C76  1  0.45350476  0.07996927  0.05381087  1  0.441458  0  0.083111  0.181159  0  4.039  0
C  C77  1  0.55043016  0.91325275  0.96045915  1  0.462075  0  0.078227  0.171675  0  4.042948  0
C  C78  1  0.54468826  0.08405416  0.95475499  1  0.371692  0  0.080715  0.175129  0  4.0366  0
C  C79  1  0.45021357  0.91853160  0.04964252  1  0.427979  0  0.078131  0.171115  0  4.037313  0
C  C80  1  0.99322850  0.99675577  0.91092314  1  0.00788  0  -0.039256  -0.253142  0  3.940842  0
C  C81  1  0.98933304  0.99379933  0.10716501  1  0.018872  0  -0.037101  -0.248917  0  3.93928  0
C  C82  1  0.90274164  0.07074179  0.96754397  1  0.423413  0  0.079838  0.173308  0  4.049263  0
C  C83  1  0.07440821  0.91330681  0.05641850  1  0.439581  0  0.082657  0.177948  0  4.026504  0
C  C84  1  0.90429756  0.07368547  0.06024209  1  0.38262  0  0.078049  0.165371  0  4.04565  0
C  C85  1  0.08117186  0.92070879  0.95446133  1  0.465037  0  0.08618  0.185735  0  4.034425  0
C  C86  1  0.40405520  0.60054208  0.50240635  1  0.019723  0  -0.037969  -0.251948  0  3.944535  0
C  C87  1  0.59883082  0.40919407  0.49969353  1  0.021432  0  -0.037752  -0.248483  0  3.933287  0
C  C88  1  0.45569207  0.55549968  0.41628615  1  0.44256  0  0.082927  0.179909  0  4.033031  0
C  C89  1  0.55123543  0.45890353  0.58156360  1  0.436266  0  0.0777  0.170889  0  4.039855  0
C  C90  1  0.54743642  0.45672632  0.41923356  1  0.401564  0  0.083487  0.18  0  4.039735  0
C  C91  1  0.45135326  0.54831180  0.58722541  1  0.411175  0  0.076382  0.169753  0  4.046842  0
C  C92  1  0.00389220  0.59073541  0.90150422  1  0.038651  0  -0.037761  -0.234104  0  3.972975  0
C  C93  1  0.98826952  0.50100404  0.90458910  1  -0.057137  0  -0.009939  0.067011  0  3.985135  0
C  C94  1  0.03264803  0.57811754  0.98440463  1  0.563116  0  0.089669  0.216304  0  4.047091  0
C  C95  1  0.98190459  0.50150348  0.81220019  1  -0.034397  0  -0.103938  -0.13951  0  3.985437  0
C  C96  1  0.98123609  0.40904870  0.81190816  1  -0.045001  0  -0.105662  -0.090042  0  4.052544  0
C  C97  1  0.00463780  0.39857839  0.09135550  1  0.026483  0  -0.035553  -0.228111  0  3.965533  0
C  C98  1  0.03238611  0.48103486  0.08072116  1  0.552672  0  0.088304  0.216548  0  4.040441  0
C  C99  1  0.98966582  0.40321047  0.00048001  1  0.000317  0  -0.00986  0.068112  0  3.989293  0
C  C100  1  0.98665581  0.31063484  0.99814488  1  -0.059965  0  -0.105308  -0.142448  0  3.996225  0
C  C101  1  0.98419721  0.31261275  0.90533079  1  -0.020299  0  -0.105961  -0.096482  0  4.057659  0
C  C102  1  0.40493379  0.99711495  0.49903091  1  0.092805  0  -0.038165  -0.248982  0  3.93635  0
C  C103  1  0.59447500  0.99934649  0.50293432  1  -0.036505  0  -0.037604  -0.248876  0  3.93733  0
C  C104  1  0.45507626  0.91268972  0.58082433  1  0.428315  0  0.079188  0.173446  0  4.037117  0
C  C105  1  0.54839234  0.07980144  0.41727806  1  0.415068  0  0.081143  0.177843  0  4.035477  0
C  C106  1  0.54342232  0.91844070  0.58732590  1  0.452316  0  0.078016  0.170868  0  4.039191  0
C  C107  1  0.45114656  0.08261360  0.41928484  1  0.397923  0  0.080278  0.175881  0  4.038743  0
N  N108  1  0.16876513  0.41379317  0.33366942  1  -1.190545  0  -0.614312  -0.618703  0  3.315762  0
N  N109  1  0.80946661  0.61609720  0.63829608  1  -1.242341  0  -0.606143  -0.607277  0  3.368274  0
N  N110  1  0.17473999  0.58155499  0.34190394  1  -1.218969  0  -0.608939  -0.608286  0  3.341706  0
N  N111  1  0.82383723  0.42423780  0.65994689  1  -1.22557  0  -0.608285  -0.608977  0  3.328246  0
N  N112  1  0.41556525  0.16222850  0.09604912  1  -1.21699  0  -0.612731  -0.614643  0  3.342764  0
N  N113  1  0.59462958  0.82462746  0.92402022  1  -1.225036  0  -0.609116  -0.612178  0  3.316339  0
N  N114  1  0.57928170  0.17394790  0.91005841  1  -1.192495  0  -0.608497  -0.60669  0  3.341945  0
N  N115  1  0.40597246  0.83805541  0.08496886  1  -1.221522  0  -0.611134  -0.61408  0  3.339632  0
N  N116  1  0.81121773  0.14674760  0.93451628  1  -1.232605  0  -0.612866  -0.615511  0  3.348236  0
N  N117  1  0.15834561  0.82691759  0.09763544  1  -1.230462  0  -0.610483  -0.615884  0  3.327888  0
N  N118  1  0.81566298  0.15549408  0.10331074  1  -1.190742  0  -0.612093  -0.612471  0  3.322024  0
N  N119  1  0.17495808  0.84743349  0.90513882  1  -1.23231  0  -0.605971  -0.603144  0  3.358797  0
N  N120  1  0.41974896  0.60031470  0.32731583  1  -1.229636  0  -0.610757  -0.610984  0  3.33818  0
N  N121  1  0.59503963  0.42155130  0.66319220  1  -1.215006  0  -0.614537  -0.61711  0  3.341561  0
N  N122  1  0.58491934  0.41558570  0.33627742  1  -1.235794  0  -0.610648  -0.610611  0  3.341259  0
N  N123  1  0.40743827  0.58341319  0.67682031  1  -1.211136  0  -0.609638  -0.609259  0  3.322369  0
N  N124  1  0.41913659  0.82348882  0.66172370  1  -1.211376  0  -0.61176  -0.612598  0  3.340659  0
N  N125  1  0.59059377  0.16278504  0.33019489  1  -1.252299  0  -0.614855  -0.614216  0  3.336743  0
N  N126  1  0.57831606  0.83765123  0.67736173  1  -1.223523  0  -0.608565  -0.608266  0  3.342929  0
N  N127  1  0.40888078  0.17060228  0.33658714  1  -1.22885  0  -0.611255  -0.609459  0  3.338468  0
O  O128  1  0.91882491  0.74495489  0.57101002  1  -1.199794  0  -0.357394  -0.623686  0  2.325783  0
O  O129  1  0.26086492  0.07466025  0.24270181  1  -1.190357  0  -0.360821  -0.625187  0  2.315619  0
O  O130  1  0.07191619  0.26661540  0.42275722  1  -1.199961  0  -0.36451  -0.635502  0  2.320503  0
O  O131  1  0.74173811  0.92028018  0.77025808  1  -1.197558  0  -0.361487  -0.627403  0  2.31949  0
O  O132  1  0.06448992  0.74405406  0.77554260  1  -1.192479  0  -0.356769  -0.646049  0  2.288815  0
O  O133  1  0.73646998  0.07458478  0.42717722  1  -1.192926  0  -0.359485  -0.624926  0  2.317485  0
O  O134  1  0.92068734  0.26422350  0.23668354  1  -1.169481  0  -0.344429  -0.598959  0  2.278445  0
O  O135  1  0.26367173  0.92132670  0.57440296  1  -1.187025  0  -0.360368  -0.624578  0  2.315164  0
O  O136  1  0.26314978  0.74350249  0.42615833  1  -1.180624  0  -0.359281  -0.62336  0  2.322567  0
O  O137  1  0.91954198  0.07309382  0.76764105  1  -1.197987  0  -0.362896  -0.626126  0  2.323484  0
O  O138  1  0.74075343  0.26679915  0.57501952  1  -1.190647  0  -0.363108  -0.626933  0  2.320863  0
O  O139  1  0.06892750  0.92256939  0.24483327  1  -1.19751  0  -0.35841  -0.622217  0  2.319085  0
O  O140  1  0.07286279  0.92327752  0.76700113  1  -1.202879  0  -0.364802  -0.63084  0  2.316259  0
O  O141  1  0.74030018  0.26749183  0.42346464  1  -1.194737  0  -0.359794  -0.623484  0  2.310523  0
O  O142  1  0.91662054  0.07300414  0.24555637  1  -1.200213  0  -0.361525  -0.630132  0  2.329641  0
O  O143  1  0.25944212  0.73876748  0.58185184  1  -1.189286  0  -0.364978  -0.633164  0  2.315249  0
O  O144  1  0.92047622  0.73666709  0.76719344  1  -1.180379  0  -0.347082  -0.603126  0  2.285778  0
O  O145  1  0.26249306  0.07455274  0.42363736  1  -1.187306  0  -0.361515  -0.62781  0  2.314823  0
O  O146  1  0.06429648  0.27202924  0.24529105  1  -1.183453  0  -0.358416  -0.646647  0  2.293346  0
O  O147  1  0.73518693  0.92351770  0.58008371  1  -1.197596  0  -0.359888  -0.627318  0  2.310969  0
O  O148  1  0.73828723  0.07475240  0.76747583  1  -1.193006  0  -0.360255  -0.625469  0  2.316252  0
O  O149  1  0.07477910  0.74108471  0.42419525  1  -1.193848  0  -0.365625  -0.629995  0  2.329207  0
O  O150  1  0.26068244  0.92372227  0.24206597  1  -1.186755  0  -0.361982  -0.627391  0  2.315811  0
O  O151  1  0.92189543  0.26611369  0.57557613  1  -1.19162  0  -0.353992  -0.620026  0  2.312173  0
O  O152  1  0.79736277  0.06805146  0.57033542  1  -1.219526  0  -0.69924  -1.070163  0  2.379344  0
O  O153  1  0.06501104  0.06799311  0.56918572  1  -1.223439  0  -0.70067  -1.070205  0  2.385398  0
O  O154  1  0.06379873  0.06918954  0.30172777  1  -1.253484  0  -0.697927  -1.068403  0  2.37505  0
O  O155  1  0.06420704  0.79978423  0.57178766  1  -1.232852  0  -0.697105  -1.067162  0  2.372876  0
O  O156  1  0.14501036  0.95206445  0.45426262  1  -1.193373  0  -0.79925  -1.142303  0  2.166976  0
O  O157  1  0.94840807  0.95216761  0.45426168  1  -1.195873  0  -0.798319  -1.142092  0  2.164619  0
O  O158  1  0.94881924  0.14861062  0.45307942  1  -1.194756  0  -0.798001  -1.141261  0  2.156684  0
O  O159  1  0.94892016  0.95159277  0.65024896  1  -1.195021  0  -0.797679  -1.141871  0  2.158745  0
O  O160  1  0.05793168  0.47731261  0.15813118  1  -1.125951  0  -0.348002  -0.414022  0  2.302904  0
O  O161  1  0.05928632  0.65320680  0.98306748  1  -1.123052  0  -0.346458  -0.411221  0  2.301207  0
