# generated using pymatgen
data_CdH12C6(SN5)2
_symmetry_space_group_name_H-M   'P 1'
_cell_length_a   6.71089428
_cell_length_b   13.30243348
_cell_length_c   15.70240549
_cell_angle_alpha   107.37560786
_cell_angle_beta   89.98457002
_cell_angle_gamma   104.62803131
_symmetry_Int_Tables_number   1
_chemical_formula_structural   CdH12C6(SN5)2
_chemical_formula_sum   'Cd4 H48 C24 S8 N40'
_cell_volume   1290.14916651
_cell_formula_units_Z   4
loop_
 _symmetry_equiv_pos_site_id
 _symmetry_equiv_pos_as_xyz
  1  'x, y, z'
loop_
 _atom_site_type_symbol
 _atom_site_label
 _atom_site_symmetry_multiplicity
 _atom_site_fract_x
 _atom_site_fract_y
 _atom_site_fract_z
 _atom_site_occupancy
 _atom_site_hle17_bader_spin_density
 _atom_site_hle17_ddec_charge
 _atom_site_hle17_ddec_spin_density
 _atom_site_hle17_ddec_sum_bond_order
 _atom_site_hle17_magmom
 _atom_site_hse06_10hf_bader_spin_density
 _atom_site_hse06_10hf_ddec_charge
 _atom_site_hse06_10hf_ddec_spin_density
 _atom_site_hse06_10hf_ddec_sum_bond_order
 _atom_site_hse06_10hf_magmom
 _atom_site_hse06_bader_spin_density
 _atom_site_hse06_ddec_charge
 _atom_site_hse06_ddec_spin_density
 _atom_site_hse06_ddec_sum_bond_order
 _atom_site_hse06_magmom
 _atom_site_pbe_bader_spin_density
 _atom_site_pbe_cm5_charge
 _atom_site_pbe_ddec_charge
 _atom_site_pbe_ddec_spin_density
 _atom_site_pbe_ddec_sum_bond_order
 _atom_site_pbe_magmom
Cd  Cd0  1  0.87819659  0.24887917  0.37414428  1  0  0.889174  0  1.993912  0  0  0.738051  0  2.466723  0  0  0.781517  0  2.429892  0  0  0.666581  0.708148  0  2.491507  0
Cd  Cd1  1  0.62913575  0.75110275  0.12581909  1  0  0.888863  0  1.994092  0  0  0.73805  0  2.466551  0  0  0.781503  0  2.429712  0  0  0.666583  0.708105  0  2.491398  0
Cd  Cd2  1  0.12180402  0.75112017  0.62585737  1  0  0.889229  0  1.993821  0  0  0.738102  0  2.466645  0  0  0.781585  0  2.429776  0  0  0.66656  0.708212  0  2.491396  0
Cd  Cd3  1  0.37087734  0.24890069  0.87418106  1  0  0.888963  0  1.994103  0  0  0.738143  0  2.466575  0  0  0.781594  0  2.429737  0  0  0.666579  0.708201  0  2.491423  0
H  H4  1  0.10798423  0.41642128  0.29329076  1  0  0.29606  0  0.91911  0  0  0.279156  0  0.985148  0  0  0.28594  0  0.979786  0  0  0.30877  0.274384  0  0.988941  0
H  H5  1  0.69142219  0.58352311  0.20664845  1  0  0.295888  0  0.91914  0  0  0.2795  0  0.984925  0  0  0.286226  0  0.979656  0  0  0.308637  0.274763  0  0.988678  0
H  H6  1  0.89201546  0.58358217  0.70670812  1  0  0.296068  0  0.91913  0  0  0.27918  0  0.985128  0  0  0.285964  0  0.979765  0  0  0.308765  0.27441  0  0.988932  0
H  H7  1  0.30857124  0.41647379  0.79335003  1  0  0.295905  0  0.919134  0  0  0.279563  0  0.984863  0  0  0.286297  0  0.979561  0  0  0.308661  0.274829  0  0.988607  0
H  H8  1  0.72823118  0.31805948  0.06587583  1  0  0.294132  0  0.921906  0  0  0.273881  0  0.995104  0  0  0.281139  0  0.98954  0  0  0.300019  0.268757  0  0.999096  0
H  H9  1  0.41031312  0.68201259  0.43417204  1  0  0.293796  0  0.92122  0  0  0.273487  0  0.994494  0  0  0.280755  0  0.988901  0  0  0.299947  0.268369  0  0.998502  0
H  H10  1  0.27176157  0.68193905  0.93412561  1  0  0.294205  0  0.921817  0  0  0.273954  0  0.995019  0  0  0.281211  0  0.989452  0  0  0.300042  0.268827  0  0.99902  0
H  H11  1  0.58968492  0.31798759  0.56582601  1  0  0.293856  0  0.92125  0  0  0.273506  0  0.994539  0  0  0.280766  0  0.988951  0  0  0.299944  0.268393  0  0.998548  0
H  H12  1  0.73198599  0.02731302  0.43486465  1  0  0.297603  0  0.94895  0  0  0.278088  0  1.016466  0  0  0.285669  0  1.010835  0  0  0.302949  0.272772  0  1.02046  0
H  H13  1  0.70484092  0.97270339  0.06526383  1  0  0.296535  0  0.949944  0  0  0.277192  0  1.017562  0  0  0.284763  0  1.011951  0  0  0.302703  0.271913  0  1.02148  0
H  H14  1  0.26800933  0.97268468  0.56513786  1  0  0.297567  0  0.948902  0  0  0.278077  0  1.016422  0  0  0.28566  0  1.010784  0  0  0.302965  0.272757  0  1.020427  0
H  H15  1  0.29517448  0.02730168  0.93473738  1  0  0.296549  0  0.94993  0  0  0.277221  0  1.017541  0  0  0.284795  0  1.011928  0  0  0.302683  0.271938  0  1.021462  0
H  H16  1  0.96741846  0.18014666  0.69511635  1  0  0.298642  0  0.93168  0  0  0.277067  0  1.004508  0  0  0.284794  0  0.998657  0  0  0.298366  0.271648  0  1.00866  0
H  H17  1  0.78679214  0.81994842  0.80487274  1  0  0.299418  0  0.931862  0  0  0.2776  0  1.004699  0  0  0.285381  0  0.998801  0  0  0.298374  0.272144  0  1.008882  0
H  H18  1  0.03258703  0.81985351  0.30488424  1  0  0.298686  0  0.931623  0  0  0.277119  0  1.004422  0  0  0.284846  0  0.99857  0  0  0.298395  0.2717  0  1.008578  0
H  H19  1  0.21321037  0.18005175  0.19512785  1  0  0.299367  0  0.931873  0  0  0.277544  0  1.004741  0  0  0.285323  0  0.998846  0  0  0.298332  0.272089  0  1.008926  0
H  H20  1  0.30005195  0.51595324  0.18085306  1  0  0.06713  0  0.965048  0  0  0.078905  0  1.033684  0  0  0.078996  0  1.034951  0  0  0.100185  0.078716  0  1.032925  0
H  H21  1  0.78432082  0.48425006  0.31920862  1  0  0.067055  0  0.965624  0  0  0.078925  0  1.034132  0  0  0.07893  0  1.035507  0  0  0.100328  0.078796  0  1.033341  0
H  H22  1  0.69994245  0.48404858  0.81914350  1  0  0.06713  0  0.965095  0  0  0.078964  0  1.033657  0  0  0.079056  0  1.03492  0  0  0.100207  0.078777  0  1.032898  0
H  H23  1  0.21566841  0.51574439  0.68078987  1  0  0.067142  0  0.965678  0  0  0.07899  0  1.034163  0  0  0.079001  0  1.03554  0  0  0.100308  0.078866  0  1.033361  0
H  H24  1  0.10569048  0.57506993  0.23633055  1  0  0.068606  0  0.924804  0  0  0.07955  0  0.992894  0  0  0.080467  0  0.992945  0  0  0.09748  0.078782  0  0.992995  0
H  H25  1  0.53083114  0.42496908  0.26375885  1  0  0.069449  0  0.92455  0  0  0.080564  0  0.992239  0  0  0.081544  0  0.992209  0  0  0.097951  0.079794  0  0.992366  0
H  H26  1  0.89430310  0.42493026  0.76366623  1  0  0.068626  0  0.924742  0  0  0.079594  0  0.992809  0  0  0.080512  0  0.992857  0  0  0.097486  0.078801  0  0.992938  0
H  H27  1  0.46915634  0.57502783  0.73623900  1  0  0.069486  0  0.924571  0  0  0.080591  0  0.992231  0  0  0.08157  0  0.992201  0  0  0.097959  0.079819  0  0.992362  0
H  H28  1  0.93432748  0.51800821  0.08793655  1  0  0.069265  0  0.960044  0  0  0.079686  0  1.031418  0  0  0.080104  0  1.031877  0  0  0.102151  0.07933  0  1.031177  0
H  H29  1  0.41627003  0.48204796  0.41208418  1  0  0.06821  0  0.960057  0  0  0.079225  0  1.031105  0  0  0.079528  0  1.031702  0  0  0.102018  0.078911  0  1.0308  0
H  H30  1  0.06565824  0.48199114  0.91206192  1  0  0.069281  0  0.960074  0  0  0.079722  0  1.031428  0  0  0.080123  0  1.031912  0  0  0.102149  0.079375  0  1.031159  0
H  H31  1  0.58372205  0.51795222  0.58791450  1  0  0.068216  0  0.960035  0  0  0.079263  0  1.031038  0  0  0.07957  0  1.03163  0  0  0.102034  0.078936  0  1.030755  0
H  H32  1  0.08956469  0.42596527  0.04495722  1  0  0.064306  0  0.94679  0  0  0.075738  0  1.016196  0  0  0.075875  0  1.017096  0  0  0.096711  0.075522  0  1.015737  0
H  H33  1  0.66356173  0.57412508  0.45509720  1  0  0.064005  0  0.946757  0  0  0.075713  0  1.016203  0  0  0.07584  0  1.017078  0  0  0.096891  0.075496  0  1.01573  0
H  H34  1  0.91042401  0.57403409  0.95503999  1  0  0.06434  0  0.946749  0  0  0.075787  0  1.016172  0  0  0.075926  0  1.017052  0  0  0.096711  0.075556  0  1.015743  0
H  H35  1  0.33642995  0.42587427  0.54490127  1  0  0.063981  0  0.946639  0  0  0.075639  0  1.016126  0  0  0.075765  0  1.017002  0  0  0.096891  0.075437  0  1.015646  0
H  H36  1  0.81183678  0.89013185  0.50793357  1  0  0.056262  0  0.976658  0  0  0.065994  0  1.050003  0  0  0.066146  0  1.050977  0  0  0.090729  0.065753  0  1.049439  0
H  H37  1  0.92162361  0.10999235  0.99216416  1  0  0.056454  0  0.977422  0  0  0.066497  0  1.050327  0  0  0.06663  0  1.051301  0  0  0.09083  0.066294  0  1.049735  0
H  H38  1  0.18816084  0.10986748  0.49207063  1  0  0.056216  0  0.976782  0  0  0.065978  0  1.050068  0  0  0.066129  0  1.051041  0  0  0.090748  0.065742  0  1.04949  0
H  H39  1  0.07839720  0.89000866  0.00783282  1  0  0.056552  0  0.977303  0  0  0.066509  0  1.050328  0  0  0.066644  0  1.051298  0  0  0.090816  0.0663  0  1.049737  0
H  H40  1  0.55996822  0.90263231  0.53263245  1  0  0.063414  0  0.962668  0  0  0.07143  0  1.038984  0  0  0.072093  0  1.03905  0  0  0.098916  0.070843  0  1.039121  0
H  H41  1  0.65717099  0.09736184  0.96757259  1  0  0.06462  0  0.962176  0  0  0.07241  0  1.038682  0  0  0.073106  0  1.038643  0  0  0.098988  0.07182  0  1.038815  0
H  H42  1  0.44002791  0.09736702  0.46737175  1  0  0.063373  0  0.962677  0  0  0.071377  0  1.038988  0  0  0.072041  0  1.039052  0  0  0.098872  0.070783  0  1.039124  0
H  H43  1  0.34285145  0.90264241  0.03242841  1  0  0.064534  0  0.962152  0  0  0.072314  0  1.038692  0  0  0.073003  0  1.038659  0  0  0.098961  0.071724  0  1.038828  0
H  H44  1  0.67143856  0.01448630  0.68200921  1  0  0.060009  0  0.947924  0  0  0.072757  0  1.012436  0  0  0.072909  0  1.01324  0  0  0.097198  0.072522  0  1.012059  0
H  H45  1  0.65686985  0.98576836  0.81813067  1  0  0.059282  0  0.94644  0  0  0.072428  0  1.011391  0  0  0.072573  0  1.012148  0  0  0.097199  0.072191  0  1.011033  0
H  H46  1  0.32856111  0.98551713  0.31799413  1  0  0.060025  0  0.947809  0  0  0.0728  0  1.012367  0  0  0.072956  0  1.013174  0  0  0.097206  0.07255  0  1.011992  0
H  H47  1  0.34313076  0.01423098  0.18187098  1  0  0.05927  0  0.946368  0  0  0.072454  0  1.011299  0  0  0.072601  0  1.012056  0  0  0.097228  0.072214  0  1.010942  0
H  H48  1  0.90237341  0.96984985  0.66540770  1  0  0.064678  0  0.957461  0  0  0.075213  0  1.028182  0  0  0.075439  0  1.028987  0  0  0.099032  0.074964  0  1.02774  0
H  H49  1  0.93245333  0.03025909  0.83468537  1  0  0.063696  0  0.957157  0  0  0.074436  0  1.028345  0  0  0.074563  0  1.029247  0  0  0.098838  0.074231  0  1.027859  0
H  H50  1  0.09762313  0.03015030  0.33459607  1  0  0.064656  0  0.957456  0  0  0.075223  0  1.028206  0  0  0.075454  0  1.029017  0  0  0.099051  0.074962  0  1.027757  0
H  H51  1  0.06754648  0.96973865  0.16531014  1  0  0.063632  0  0.957254  0  0  0.074424  0  1.028395  0  0  0.074552  0  1.029301  0  0  0.098873  0.074219  0  1.027911  0
C  C52  1  0.89219131  0.33831353  0.18487021  1  0  0.45049  0  3.869703  0  0  0.405192  0  4.169845  0  0  0.433692  0  4.174026  0  0  0.24084  0.386042  0  4.1663  0
C  C53  1  0.55397632  0.66172206  0.31514929  1  0  0.4505  0  3.872254  0  0  0.405181  0  4.172282  0  0  0.433668  0  4.176435  0  0  0.241196  0.386089  0  4.168701  0
C  C54  1  0.10780714  0.66168745  0.81512932  1  0  0.450446  0  3.869667  0  0  0.405152  0  4.169809  0  0  0.433658  0  4.173977  0  0  0.240853  0.386022  0  4.166259  0
C  C55  1  0.44602132  0.33827730  0.68484855  1  0  0.450541  0  3.872197  0  0  0.405161  0  4.172243  0  0  0.433632  0  4.17641  0  0  0.241171  0.386065  0  4.168676  0
C  C56  1  0.13527393  0.50008506  0.19130414  1  0  0.03864  0  3.571001  0  0  -0.015397  0  3.822294  0  0  -0.011742  0  3.833412  0  0  -0.058494  -0.017704  0  3.814699  0
C  C57  1  0.63533425  0.49999583  0.30875003  1  0  0.036223  0  3.572292  0  0  -0.017739  0  3.823896  0  0  -0.014109  0  3.834932  0  0  -0.059351  -0.020114  0  3.816422  0
C  C58  1  0.86471831  0.49991839  0.80869347  1  0  0.038436  0  3.571165  0  0  -0.015512  0  3.822183  0  0  -0.011861  0  3.833291  0  0  -0.058551  -0.017794  0  3.814601  0
C  C59  1  0.36465553  0.50000270  0.69124887  1  0  0.036142  0  3.572494  0  0  -0.017755  0  3.823935  0  0  -0.014137  0  3.834978  0  0  -0.059277  -0.020122  0  3.816458  0
C  C60  1  0.00200968  0.45701231  0.10150025  1  0  0.03441  0  3.589898  0  0  -0.022656  0  3.846393  0  0  -0.01877  0  3.857945  0  0  -0.058574  -0.025206  0  3.838569  0
C  C61  1  0.54506568  0.54307003  0.39853980  1  0  0.036384  0  3.58656  0  0  -0.022163  0  3.844243  0  0  -0.018165  0  3.855697  0  0  -0.058738  -0.024671  0  3.836405  0
C  C62  1  0.99797522  0.54298541  0.89849844  1  0  0.034423  0  3.589757  0  0  -0.022778  0  3.846424  0  0  -0.018867  0  3.857937  0  0  -0.058598  -0.02532  0  3.838587  0
C  C63  1  0.45492410  0.45692851  0.60145973  1  0  0.036418  0  3.586459  0  0  -0.022143  0  3.84403  0  0  -0.018155  0  3.855491  0  0  -0.058807  -0.024669  0  3.836244  0
C  C64  1  0.86751662  0.13232435  0.55910258  1  0  0.451121  0  3.854767  0  0  0.404312  0  4.155547  0  0  0.433034  0  4.159162  0  0  0.241592  0.38504  0  4.152373  0
C  C65  1  0.73505963  0.86772843  0.94093219  1  0  0.451927  0  3.853613  0  0  0.40458  0  4.155029  0  0  0.433352  0  4.158651  0  0  0.241546  0.38528  0  4.151869  0
C  C66  1  0.13248290  0.86767581  0.44089992  1  0  0.451088  0  3.85465  0  0  0.404284  0  4.155454  0  0  0.433007  0  4.159068  0  0  0.241562  0.38502  0  4.152273  0
C  C67  1  0.26495007  0.13227419  0.05906839  1  0  0.451998  0  3.853548  0  0  0.404662  0  4.155029  0  0  0.433433  0  4.158656  0  0  0.241586  0.385366  0  4.151856  0
C  C68  1  0.72314528  0.94801889  0.54055699  1  0  0.04011  0  3.576177  0  0  -0.015315  0  3.826194  0  0  -0.011103  0  3.837133  0  0  -0.060564  -0.018038  0  3.818875  0
C  C69  1  0.77507009  0.05206231  0.95958597  1  0  0.037426  0  3.576712  0  0  -0.017048  0  3.82639  0  0  -0.01276  0  3.837177  0  0  -0.060473  -0.019801  0  3.819071  0
C  C70  1  0.27685234  0.05198044  0.45944720  1  0  0.04012  0  3.576146  0  0  -0.01517  0  3.826087  0  0  -0.010949  0  3.837025  0  0  -0.060498  -0.017881  0  3.818711  0
C  C71  1  0.22494598  0.94794113  0.04041355  1  0  0.037467  0  3.576551  0  0  -0.01697  0  3.826427  0  0  -0.012669  0  3.837215  0  0  -0.060408  -0.019719  0  3.819102  0
C  C72  1  0.80086789  0.00873377  0.63947009  1  0  0.036298  0  3.588601  0  0  -0.016197  0  3.839484  0  0  -0.012403  0  3.851048  0  0  -0.057674  -0.018639  0  3.831603  0
C  C73  1  0.79199649  0.99139489  0.86063116  1  0  0.04043  0  3.582652  0  0  -0.014151  0  3.835957  0  0  -0.010234  0  3.847517  0  0  -0.057667  -0.016651  0  3.82802  0
C  C74  1  0.19913015  0.99126638  0.36053368  1  0  0.036412  0  3.588343  0  0  -0.016308  0  3.839469  0  0  -0.012542  0  3.851067  0  0  -0.057743  -0.018705  0  3.831527  0
C  C75  1  0.20801240  0.00860610  0.13936773  1  0  0.040591  0  3.582646  0  0  -0.014016  0  3.835949  0  0  -0.010108  0  3.847526  0  0  -0.057689  -0.016513  0  3.828005  0
S  S76  1  0.74854778  0.22879096  0.21127575  1  0  -0.406086  0  2.024782  0  0  -0.387565  0  2.375342  0  0  -0.40811  0  2.370785  0  0  -0.186008  -0.373101  0  2.377855  0
S  S77  1  0.51982895  0.77120414  0.28873282  1  0  -0.406138  0  2.025882  0  0  -0.387531  0  2.376172  0  0  -0.408113  0  2.371629  0  0  -0.186039  -0.373067  0  2.378676  0
S  S78  1  0.25145839  0.77120757  0.78872442  1  0  -0.406074  0  2.024816  0  0  -0.387553  0  2.375369  0  0  -0.408109  0  2.370822  0  0  -0.185999  -0.373099  0  2.377879  0
S  S79  1  0.48017424  0.22879440  0.71126545  1  0  -0.406173  0  2.025824  0  0  -0.387598  0  2.37616  0  0  -0.40818  0  2.371624  0  0  -0.186052  -0.373118  0  2.378659  0
S  S80  1  0.94900275  0.25588300  0.54049031  1  0  -0.42105  0  2.016111  0  0  -0.400319  0  2.373292  0  0  -0.419586  0  2.365142  0  0  -0.181205  -0.386801  0  2.378412  0
S  S81  1  0.69305564  0.74414902  0.95948528  1  0  -0.420991  0  2.015945  0  0  -0.400072  0  2.373077  0  0  -0.419344  0  2.364932  0  0  -0.181049  -0.386521  0  2.378145  0
S  S82  1  0.05099298  0.74411552  0.45951177  1  0  -0.421045  0  2.01606  0  0  -0.400297  0  2.373228  0  0  -0.419566  0  2.365078  0  0  -0.181195  -0.386785  0  2.378345  0
S  S83  1  0.30694919  0.25585279  0.04051446  1  0  -0.420968  0  2.015813  0  0  -0.400051  0  2.372962  0  0  -0.419319  0  2.36481  0  0  -0.181078  -0.386543  0  2.378098  0
N  N84  1  0.06873473  0.40921454  0.22870038  1  0  -0.417514  0  3.281735  0  0  -0.356516  0  3.529125  0  0  -0.375347  0  3.53649  0  0  -0.424758  -0.343762  0  3.523889  0
N  N85  1  0.65960306  0.59081803  0.27129355  1  0  -0.417491  0  3.283782  0  0  -0.357246  0  3.53056  0  0  -0.375904  0  3.537674  0  0  -0.424962  -0.344595  0  3.525506  0
N  N86  1  0.93126223  0.59078645  0.77129788  1  0  -0.4174  0  3.281747  0  0  -0.356445  0  3.529165  0  0  -0.375279  0  3.536532  0  0  -0.42476  -0.343725  0  3.523939  0
N  N87  1  0.34039350  0.40918215  0.72870450  1  0  -0.417477  0  3.283702  0  0  -0.357317  0  3.530462  0  0  -0.375957  0  3.537572  0  0  -0.425004  -0.344663  0  3.5254  0
N  N88  1  0.84067491  0.36726470  0.11477740  1  0  -0.400291  0  3.304041  0  0  -0.338203  0  3.549284  0  0  -0.35738  0  3.557361  0  0  -0.418558  -0.325197  0  3.543552  0
N  N89  1  0.47353602  0.63280443  0.38527104  1  0  -0.399334  0  3.302358  0  0  -0.336693  0  3.547292  0  0  -0.355869  0  3.555271  0  0  -0.418196  -0.323783  0  3.541684  0
N  N90  1  0.15931934  0.63273383  0.88522213  1  0  -0.400343  0  3.303924  0  0  -0.338238  0  3.54918  0  0  -0.357437  0  3.557278  0  0  -0.418561  -0.325236  0  3.543455  0
N  N91  1  0.52646013  0.36719493  0.61472744  1  0  -0.399467  0  3.302439  0  0  -0.336686  0  3.547232  0  0  -0.355845  0  3.555214  0  0  -0.418178  -0.323786  0  3.541657  0
N  N92  1  0.75483096  0.03792905  0.50197476  1  0  -0.403915  0  3.279567  0  0  -0.335718  0  3.517842  0  0  -0.355796  0  3.526406  0  0  -0.417247  -0.322101  0  3.511783  0
N  N93  1  0.71701295  0.96212351  0.99814520  1  0  -0.402366  0  3.279824  0  0  -0.334944  0  3.519077  0  0  -0.355055  0  3.527657  0  0  -0.417224  -0.321353  0  3.513022  0
N  N94  1  0.24516517  0.96207029  0.49802817  1  0  -0.403883  0  3.279531  0  0  -0.33581  0  3.517911  0  0  -0.355891  0  3.526476  0  0  -0.417289  -0.322206  0  3.511847  0
N  N95  1  0.28300312  0.03787992  0.00185495  1  0  -0.40244  0  3.279759  0  0  -0.335095  0  3.51913  0  0  -0.355228  0  3.52774  0  0  -0.417264  -0.3215  0  3.513069  0
N  N96  1  0.91271882  0.11747116  0.63697199  1  0  -0.405626  0  3.289979  0  0  -0.344687  0  3.538684  0  0  -0.364552  0  3.547065  0  0  -0.418998  -0.331235  0  3.532694  0
N  N97  1  0.79479955  0.88260110  0.86302796  1  0  -0.409336  0  3.29027  0  0  -0.346587  0  3.538212  0  0  -0.366562  0  3.546485  0  0  -0.419262  -0.333073  0  3.532276  0
N  N98  1  0.08728138  0.88252736  0.36303009  1  0  -0.405707  0  3.289831  0  0  -0.344673  0  3.538541  0  0  -0.364529  0  3.546927  0  0  -0.418994  -0.331238  0  3.532544  0
N  N99  1  0.20520784  0.11739988  0.13697157  1  0  -0.40948  0  3.29033  0  0  -0.346714  0  3.538276  0  0  -0.366682  0  3.546554  0  0  -0.419279  -0.333201  0  3.532336  0
N  N100  1  0.72838612  0.05403654  0.32606651  1  0  -0.491637  0  2.669781  0  0  -0.465467  0  2.946807  0  0  -0.481102  0  2.952467  0  0  -0.249582  -0.454819  0  2.943151  0
N  N101  1  0.67431897  0.94597453  0.17402118  1  0  -0.490943  0  2.670187  0  0  -0.465012  0  2.947546  0  0  -0.480645  0  2.953212  0  0  -0.24954  -0.454404  0  2.943933  0
N  N102  1  0.27161503  0.94596686  0.67394064  1  0  -0.491339  0  2.670925  0  0  -0.465175  0  2.947929  0  0  -0.480795  0  2.953602  0  0  -0.249396  -0.454545  0  2.944277  0
N  N103  1  0.32568381  0.05403214  0.82598618  1  0  -0.491269  0  2.66934  0  0  -0.46524  0  2.946622  0  0  -0.480896  0  2.952302  0  0  -0.249686  -0.454616  0  2.942997  0
N  N104  1  0.70282035  0.99999465  0.25003644  1  0  0.418291  0  4.231308  0  0  0.44591  0  4.511184  0  0  0.463539  0  4.537475  0  0  0.085494  0.434164  0  4.493617  0
N  N105  1  0.29717609  0.99999825  0.74995386  1  0  0.418279  0  4.231585  0  0  0.445854  0  4.511548  0  0  0.463482  0  4.537847  0  0  0.085439  0.434106  0  4.493976  0
N  N106  1  0.03406007  0.44275538  0.43093380  1  0  -0.500425  0  2.612184  0  0  -0.476638  0  2.879951  0  0  -0.492564  0  2.886498  0  0  -0.258153  -0.465668  0  2.875584  0
N  N107  1  0.59098493  0.55717984  0.06914942  1  0  -0.501739  0  2.61137  0  0  -0.478238  0  2.879821  0  0  -0.494136  0  2.886373  0  0  -0.25875  -0.467276  0  2.875447  0
N  N108  1  0.96593472  0.55724722  0.56907060  1  0  -0.501272  0  2.611107  0  0  -0.477584  0  2.878937  0  0  -0.493538  0  2.885484  0  0  -0.258718  -0.46659  0  2.87456  0
N  N109  1  0.40901462  0.44282035  0.93084672  1  0  -0.50211  0  2.610634  0  0  -0.478709  0  2.879164  0  0  -0.494618  0  2.885716  0  0  -0.259005  -0.467745  0  2.874793  0
N  N110  1  0.00000279  0.49999358  0.49999278  1  0  0.422425  0  4.22356  0  0  0.460649  0  4.489567  0  0  0.47782  0  4.517947  0  0  0.087199  0.449202  0  4.470436  0
N  N111  1  0.50000517  0.50000405  0.00000282  1  0  0.424626  0  4.222914  0  0  0.4626  0  4.489294  0  0  0.479729  0  4.517725  0  0  0.087751  0.451178  0  4.470106  0
N  N112  1  0.22323853  0.24325418  0.32635585  1  0  -0.537931  0  2.617776  0  0  -0.515204  0  2.894627  0  0  -0.533069  0  2.901905  0  0  -0.272944  -0.503306  0  2.890009  0
N  N113  1  0.97995170  0.75694646  0.17354800  1  0  -0.537068  0  2.618594  0  0  -0.514237  0  2.895551  0  0  -0.532032  0  2.902697  0  0  -0.272644  -0.502326  0  2.8909  0
N  N114  1  0.77675936  0.75674271  0.67364518  1  0  -0.537926  0  2.617785  0  0  -0.515215  0  2.894643  0  0  -0.533081  0  2.901925  0  0  -0.272966  -0.50332  0  2.890033  0
N  N115  1  0.02006018  0.24305454  0.82644835  1  0  -0.537068  0  2.618242  0  0  -0.514245  0  2.895177  0  0  -0.532051  0  2.902317  0  0  -0.272669  -0.502335  0  2.890538  0
N  N116  1  0.38019385  0.26421845  0.37116942  1  0  0.41386  0  4.242543  0  0  0.449679  0  4.514464  0  0  0.466645  0  4.543942  0  0  0.083438  0.438414  0  4.494807  0
N  N117  1  0.11590966  0.73582907  0.12877295  1  0  0.41389  0  4.243672  0  0  0.449557  0  4.515508  0  0  0.466549  0  4.545012  0  0  0.08378  0.438285  0  4.495834  0
N  N118  1  0.61980784  0.73578007  0.62883138  1  0  0.413903  0  4.242426  0  0  0.449694  0  4.514384  0  0  0.466662  0  4.543872  0  0  0.083449  0.438427  0  4.494736  0
N  N119  1  0.88408663  0.26417354  0.87122827  1  0  0.413751  0  4.244049  0  0  0.449415  0  4.515907  0  0  0.466411  0  4.545404  0  0  0.083714  0.43814  0  4.496231  0
N  N120  1  0.53667672  0.28599523  0.41526959  1  0  -0.48939  0  2.576545  0  0  -0.467331  0  2.841285  0  0  -0.482903  0  2.850462  0  0  -0.248033  -0.456933  0  2.835351  0
N  N121  1  0.25061667  0.71391960  0.08469268  1  0  -0.490229  0  2.576653  0  0  -0.468057  0  2.841408  0  0  -0.483647  0  2.850518  0  0  -0.248553  -0.45766  0  2.835506  0
N  N122  1  0.46332240  0.71400412  0.58473015  1  0  -0.489458  0  2.576426  0  0  -0.467364  0  2.841208  0  0  -0.482936  0  2.850379  0  0  -0.248032  -0.456965  0  2.835264  0
N  N123  1  0.74939398  0.28607895  0.91530304  1  0  -0.490077  0  2.577347  0  0  -0.467874  0  2.842073  0  0  -0.483457  0  2.851181  0  0  -0.248469  -0.457478  0  2.836163  0
