# generated using pymatgen
data_CdH21C33(N2O3)4
_symmetry_space_group_name_H-M   'P 1'
_cell_length_a   10.97297665
_cell_length_b   13.12120777
_cell_length_c   13.81147573
_cell_angle_alpha   93.51213666
_cell_angle_beta   107.76981201
_cell_angle_gamma   99.08794966
_symmetry_Int_Tables_number   1
_chemical_formula_structural   CdH21C33(N2O3)4
_chemical_formula_sum   'Cd2 H42 C66 N16 O24'
_cell_volume   1857.20030993
_cell_formula_units_Z   2
loop_
 _symmetry_equiv_pos_site_id
 _symmetry_equiv_pos_as_xyz
  1  'x, y, z'
loop_
 _atom_site_type_symbol
 _atom_site_label
 _atom_site_symmetry_multiplicity
 _atom_site_fract_x
 _atom_site_fract_y
 _atom_site_fract_z
 _atom_site_occupancy
 _atom_site_hle17_bader_spin_density
 _atom_site_hle17_ddec_charge
 _atom_site_hle17_ddec_spin_density
 _atom_site_hle17_ddec_sum_bond_order
 _atom_site_hle17_magmom
 _atom_site_hse06_10hf_bader_spin_density
 _atom_site_hse06_10hf_ddec_charge
 _atom_site_hse06_10hf_ddec_spin_density
 _atom_site_hse06_10hf_ddec_sum_bond_order
 _atom_site_hse06_10hf_magmom
 _atom_site_hse06_bader_spin_density
 _atom_site_hse06_ddec_charge
 _atom_site_hse06_ddec_spin_density
 _atom_site_hse06_ddec_sum_bond_order
 _atom_site_hse06_magmom
 _atom_site_pbe_bader_spin_density
 _atom_site_pbe_cm5_charge
 _atom_site_pbe_ddec_charge
 _atom_site_pbe_ddec_spin_density
 _atom_site_pbe_ddec_sum_bond_order
 _atom_site_pbe_magmom
Cd  Cd0  1  0.52068257  0.68316772  0.34825478  1  0  0.995376  0  1.782496  0  0  0.785167  0  2.233949  0  0  0.841331  0  2.187931  0  0  0.770978  0.745294  0  2.265136  0
Cd  Cd1  1  0.47931991  0.31682917  0.65174873  1  0  0.995348  0  1.78258  0  0  0.785103  0  2.234054  0  0  0.841273  0  2.188033  0  0  0.770973  0.745253  0  2.265219  0
H  H2  1  0.43220257  0.85555730  0.46526151  1  0  0.096433  0  0.916238  0  0  0.108783  0  0.969674  0  0  0.111131  0  0.967565  0  0  0.126157  0.107005  0  0.971345  0
H  H3  1  0.56779757  0.14444193  0.53474091  1  0  0.096407  0  0.916233  0  0  0.108754  0  0.969671  0  0  0.111103  0  0.967562  0  0  0.126144  0.106976  0  0.971339  0
H  H4  1  0.25770065  0.88620672  0.53949562  1  0  0.131194  0  0.915777  0  0  0.14412  0  0.965751  0  0  0.147647  0  0.964204  0  0  0.121224  0.141576  0  0.967047  0
H  H5  1  0.74229519  0.11379488  0.46050235  1  0  0.1312  0  0.915837  0  0  0.144133  0  0.965802  0  0  0.14766  0  0.964254  0  0  0.121233  0.141583  0  0.967085  0
H  H6  1  0.09687562  0.55785744  0.46220236  1  0  0.124648  0  0.954954  0  0  0.131957  0  1.018672  0  0  0.135974  0  1.016126  0  0  0.112064  0.129074  0  1.020737  0
H  H7  1  0.90312425  0.44214493  0.53779732  1  0  0.12465  0  0.954936  0  0  0.131959  0  1.018645  0  0  0.135981  0  1.016099  0  0  0.112046  0.129084  0  1.020707  0
H  H8  1  0.27817616  0.54004743  0.39387162  1  0  0.086163  0  0.941443  0  0  0.092469  0  1.007034  0  0  0.095134  0  1.004953  0  0  0.116804  0.090437  0  1.008669  0
H  H9  1  0.72182555  0.45994639  0.60612860  1  0  0.086221  0  0.941557  0  0  0.092494  0  1.007182  0  0  0.09516  0  1.0051  0  0  0.116834  0.090512  0  1.008797  0
H  H10  1  0.01608426  0.81153700  0.51909973  1  0  0.099188  0  0.907684  0  0  0.112547  0  0.967703  0  0  0.114175  0  0.966453  0  0  0.12214  0.111229  0  0.968803  0
H  H11  1  0.98390980  0.18846542  0.48089427  1  0  0.099122  0  0.907566  0  0  0.112614  0  0.967497  0  0  0.114218  0  0.966217  0  0  0.12217  0.111305  0  0.968618  0
H  H12  1  0.96706854  0.67361411  0.50912961  1  0  0.094814  0  0.913031  0  0  0.105714  0  0.979404  0  0  0.106978  0  0.978513  0  0  0.117528  0.104616  0  0.980346  0
H  H13  1  0.03292436  0.32638755  0.49086333  1  0  0.094726  0  0.913114  0  0  0.105646  0  0.979505  0  0  0.106872  0  0.978591  0  0  0.117486  0.104559  0  0.98045  0
H  H14  1  0.09568447  0.95756407  0.90290408  1  0  0.133712  0  0.94184  0  0  0.137576  0  1.009145  0  0  0.141865  0  1.006298  0  0  0.118862  0.134479  0  1.011332  0
H  H15  1  0.90432481  0.04244226  0.09709153  1  0  0.133678  0  0.941924  0  0  0.13753  0  1.009231  0  0  0.141816  0  1.00639  0  0  0.118841  0.134437  0  1.011416  0
H  H16  1  0.04424285  0.56445147  0.88900379  1  0  0.137655  0  0.95156  0  0  0.143778  0  1.015799  0  0  0.148532  0  1.011533  0  0  0.119169  0.140291  0  1.019037  0
H  H17  1  0.95575012  0.43555400  0.11099596  1  0  0.137662  0  0.951606  0  0  0.143703  0  1.015942  0  0  0.148489  0  1.01164  0  0  0.119164  0.140217  0  1.019171  0
H  H18  1  0.12613872  0.85939937  0.28037283  1  0  0.100266  0  0.905764  0  0  0.113516  0  0.9635  0  0  0.11547  0  0.961541  0  0  0.122234  0.11201  0  0.965066  0
H  H19  1  0.87385516  0.14060227  0.71962179  1  0  0.10014  0  0.905787  0  0  0.113486  0  0.963448  0  0  0.115445  0  0.961485  0  0  0.122223  0.111988  0  0.965009  0
H  H20  1  0.13718559  0.72432327  0.27974706  1  0  0.085552  0  0.946421  0  0  0.094801  0  1.017052  0  0  0.095219  0  1.018091  0  0  0.112133  0.094315  0  1.01665  0
H  H21  1  0.86281070  0.27568074  0.72024539  1  0  0.08555  0  0.946301  0  0  0.094811  0  1.016939  0  0  0.095228  0  1.017994  0  0  0.112115  0.094335  0  1.016536  0
H  H22  1  0.91984026  0.91672063  0.27432945  1  0  0.125624  0  0.969912  0  0  0.132495  0  1.033263  0  0  0.136562  0  1.03059  0  0  0.110555  0.129605  0  1.035319  0
H  H23  1  0.08015476  0.08328178  0.72566550  1  0  0.125576  0  0.97001  0  0  0.132509  0  1.033292  0  0  0.136576  0  1.030617  0  0  0.110603  0.129624  0  1.035342  0
H  H24  1  0.70650235  0.87135958  0.30512836  1  0  0.091797  0  0.940008  0  0  0.100878  0  1.001597  0  0  0.103362  0  0.999247  0  0  0.120436  0.099027  0  1.003301  0
H  H25  1  0.29349933  0.12863810  0.69487358  1  0  0.091729  0  0.939922  0  0  0.100786  0  1.001565  0  0  0.103287  0  0.999192  0  0  0.120365  0.098936  0  1.00327  0
H  H26  1  0.72215852  0.55739598  0.28885429  1  0  0.074722  0  0.93807  0  0  0.084224  0  0.999474  0  0  0.086371  0  0.997951  0  0  0.114542  0.082703  0  1.000509  0
H  H27  1  0.27784658  0.44260403  0.71114861  1  0  0.074689  0  0.938089  0  0  0.084192  0  0.999489  0  0  0.08634  0  0.997967  0  0  0.114501  0.082672  0  1.000513  0
H  H28  1  0.93657003  0.58887435  0.25901908  1  0  0.121073  0  0.970897  0  0  0.126295  0  1.038362  0  0  0.130212  0  1.036218  0  0  0.107687  0.123505  0  1.040026  0
H  H29  1  0.06343415  0.41113039  0.74097814  1  0  0.121073  0  0.970932  0  0  0.126335  0  1.038359  0  0  0.130227  0  1.036243  0  0  0.107693  0.123545  0  1.040029  0
H  H30  1  0.59357585  0.46879618  0.40941670  1  0  0.080136  0  0.972824  0  0  0.090187  0  1.037888  0  0  0.09215  0  1.036124  0  0  0.113197  0.088714  0  1.039198  0
H  H31  1  0.40643212  0.53119997  0.59058368  1  0  0.080135  0  0.972857  0  0  0.090211  0  1.037871  0  0  0.092175  0  1.036109  0  0  0.113165  0.088735  0  1.039178  0
H  H32  1  0.51668152  0.27633500  0.36458275  1  0  0.112835  0  0.972  0  0  0.118823  0  1.040255  0  0  0.121406  0  1.041018  0  0  0.106339  0.116967  0  1.039963  0
H  H33  1  0.48332135  0.72365957  0.63541924  1  0  0.112782  0  0.972031  0  0  0.118763  0  1.040305  0  0  0.121345  0  1.041068  0  0  0.106289  0.116904  0  1.040005  0
H  H34  1  0.20678886  0.33993854  0.11057164  1  0  0.108389  0  0.95643  0  0  0.118949  0  1.015311  0  0  0.12103  0  1.016326  0  0  0.107591  0.117511  0  1.014709  0
H  H35  1  0.79320852  0.66005676  0.88943348  1  0  0.108408  0  0.956377  0  0  0.119006  0  1.015224  0  0  0.121086  0  1.016241  0  0  0.107612  0.117568  0  1.014619  0
H  H36  1  0.29661814  0.52977596  0.16360248  1  0  0.095012  0  0.93867  0  0  0.105505  0  0.997644  0  0  0.107885  0  0.995335  0  0  0.120472  0.103735  0  0.999336  0
H  H37  1  0.70338496  0.47021935  0.83640252  1  0  0.094987  0  0.938717  0  0  0.10551  0  0.997651  0  0  0.107892  0  0.995339  0  0  0.120448  0.103742  0  0.999356  0
H  H38  1  0.31681499  0.14008365  0.28027297  1  0  0.109484  0  0.900362  0  0  0.120468  0  0.961233  0  0  0.122878  0  0.957957  0  0  0.123242  0.118618  0  0.963741  0
H  H39  1  0.68318813  0.85991165  0.71973347  1  0  0.109544  0  0.900374  0  0  0.120551  0  0.961221  0  0  0.122982  0  0.957962  0  0  0.123256  0.118682  0  0.963731  0
H  H40  1  0.19642740  0.16223691  0.16780863  1  0  0.101573  0  0.922811  0  0  0.112374  0  0.989503  0  0  0.113371  0  0.988864  0  0  0.119072  0.111564  0  0.990212  0
H  H41  1  0.80357361  0.83775763  0.83219582  1  0  0.101513  0  0.922772  0  0  0.112398  0  0.989408  0  0  0.113415  0  0.988783  0  0  0.119045  0.111574  0  0.990118  0
H  H42  1  0.68542747  0.98479684  0.15893413  1  0  0.1224  0  0.933505  0  0  0.12796  0  1.00158  0  0  0.131684  0  0.999256  0  0  0.117978  0.125276  0  1.00336  0
H  H43  1  0.31457805  0.01520083  0.84106941  1  0  0.1225  0  0.933504  0  0  0.128019  0  1.00161  0  0  0.131742  0  0.999289  0  0  0.118018  0.125337  0  1.003397  0
C  C44  1  0.35572510  0.79200465  0.46633170  1  0  0.13005  0  3.70087  0  0  0.09618  0  3.959337  0  0  0.10352  0  3.977285  0  0  0.049017  0.09141  0  3.947047  0
C  C45  1  0.64427502  0.20799460  0.53366926  1  0  0.130171  0  3.700942  0  0  0.096304  0  3.959407  0  0  0.103644  0  3.977351  0  0  0.049072  0.091539  0  3.947107  0
C  C46  1  0.25799414  0.80848542  0.50693201  1  0  -0.142265  0  3.669164  0  0  -0.161999  0  3.917603  0  0  -0.168679  0  3.937206  0  0  -0.070912  -0.157598  0  3.904251  0
C  C47  1  0.74200034  0.19151466  0.49306336  1  0  -0.142318  0  3.669405  0  0  -0.16207  0  3.917848  0  0  -0.16875  0  3.937462  0  0  -0.070988  -0.157659  0  3.904468  0
C  C48  1  0.16148170  0.72425276  0.50541833  1  0  0.125547  0  3.705573  0  0  0.141105  0  3.946902  0  0  0.144456  0  3.969835  0  0  0.013751  0.13919  0  3.930929  0
C  C49  1  0.83851013  0.27574422  0.49457549  1  0  0.125396  0  3.70545  0  0  0.140997  0  3.946811  0  0  0.144292  0  3.969712  0  0  0.013791  0.13911  0  3.930842  0
C  C50  1  0.16958424  0.62597761  0.46543242  1  0  -0.159019  0  3.689623  0  0  -0.178871  0  3.937258  0  0  -0.186224  0  3.95768  0  0  -0.079218  -0.174159  0  3.923429  0
C  C51  1  0.83040684  0.37402399  0.53456590  1  0  -0.159021  0  3.689676  0  0  -0.178826  0  3.937289  0  0  -0.186191  0  3.957735  0  0  -0.079144  -0.174113  0  3.923472  0
C  C52  1  0.27012252  0.61577524  0.42599379  1  0  0.128229  0  3.707041  0  0  0.098678  0  3.960964  0  0  0.105799  0  3.978863  0  0  0.045865  0.094151  0  3.948764  0
C  C53  1  0.72987568  0.38422787  0.57400917  1  0  0.128263  0  3.707392  0  0  0.098679  0  3.961384  0  0  0.105797  0  3.979284  0  0  0.045834  0.094115  0  3.949206  0
C  C54  1  0.04859549  0.73909709  0.54226780  1  0  -0.018078  0  3.650798  0  0  -0.087343  0  3.911123  0  0  -0.08167  0  3.919659  0  0  -0.045007  -0.09104  0  3.90513  0
C  C55  1  0.95140097  0.26090385  0.45772085  1  0  -0.017795  0  3.650726  0  0  -0.087262  0  3.91119  0  0  -0.081404  0  3.919472  0  0  -0.044997  -0.091037  0  3.905287  0
C  C56  1  0.09176190  0.84003022  0.71327296  1  0  0.521721  0  3.80106  0  0  0.472238  0  4.095172  0  0  0.501547  0  4.093117  0  0  0.257882  0.452235  0  4.096403  0
C  C57  1  0.90823485  0.15997527  0.28672549  1  0  0.521781  0  3.800884  0  0  0.472264  0  4.095044  0  0  0.501568  0  4.093006  0  0  0.257919  0.452253  0  4.096275  0
C  C58  1  0.08540125  0.81064608  0.81431978  1  0  -0.057836  0  3.740806  0  0  -0.048253  0  3.981609  0  0  -0.053004  0  4.002741  0  0  0.003029  -0.045182  0  3.967714  0
C  C59  1  0.91459438  0.18935477  0.18567592  1  0  -0.05787  0  3.740674  0  0  -0.04827  0  3.98149  0  0  -0.053023  0  4.002617  0  0  0.002989  -0.045195  0  3.967593  0
C  C60  1  0.08810014  0.87357368  0.90028351  1  0  -0.025626  0  3.617396  0  0  -0.061118  0  3.872476  0  0  -0.059936  0  3.888309  0  0  -0.050105  -0.062038  0  3.862238  0
C  C61  1  0.91190306  0.12643108  0.09971204  1  0  -0.025648  0  3.617304  0  0  -0.061045  0  3.872418  0  0  -0.059858  0  3.888244  0  0  -0.050055  -0.061965  0  3.862185  0
C  C62  1  0.07717055  0.82060916  0.98248880  1  0  -0.041623  0  3.728566  0  0  -0.038155  0  3.978911  0  0  -0.040943  0  3.99657  0  0  0.008491  -0.036367  0  3.967351  0
C  C63  1  0.92283542  0.17939952  0.01750477  1  0  -0.041521  0  3.728474  0  0  -0.038277  0  3.979097  0  0  -0.041057  0  3.996753  0  0  0.008426  -0.0365  0  3.967547  0
C  C64  1  0.06396305  0.71210410  0.97854251  1  0  -0.056402  0  3.750938  0  0  -0.048837  0  3.997905  0  0  -0.052826  0  4.016058  0  0  0.003149  -0.046471  0  3.985988  0
C  C65  1  0.93604065  0.28790688  0.02145359  1  0  -0.056314  0  3.750578  0  0  -0.048626  0  3.997548  0  0  -0.052617  0  4.015698  0  0  0.003261  -0.04625  0  3.985618  0
C  C66  1  0.05891247  0.64887607  0.89205517  1  0  -0.036086  0  3.631567  0  0  -0.070682  0  3.878977  0  0  -0.068565  0  3.893525  0  0  -0.052939  -0.071941  0  3.869269  0
C  C67  1  0.94108233  0.35112944  0.10794066  1  0  -0.036169  0  3.631672  0  0  -0.070697  0  3.879115  0  0  -0.068605  0  3.893639  0  0  -0.052954  -0.071953  0  3.869388  0
C  C68  1  0.07011191  0.70189522  0.80994727  1  0  -0.054629  0  3.750473  0  0  -0.04558  0  3.992483  0  0  -0.050156  0  4.012963  0  0  0.001127  -0.042697  0  3.978859  0
C  C69  1  0.92987815  0.29810642  0.19004647  1  0  -0.054426  0  3.750167  0  0  -0.045433  0  3.992276  0  0  -0.050007  0  4.012757  0  0  0.001182  -0.04254  0  3.97865  0
C  C70  1  0.06310606  0.66016569  0.70523680  1  0  0.519178  0  3.806798  0  0  0.469116  0  4.101079  0  0  0.498679  0  4.09841  0  0  0.254672  0.448954  0  4.102709  0
C  C71  1  0.93688682  0.33983984  0.29475786  1  0  0.518966  0  3.80699  0  0  0.468861  0  4.101376  0  0  0.498418  0  4.098719  0  0  0.254587  0.448672  0  4.103038  0
C  C72  1  0.07928026  0.86238354  0.08617137  1  0  0.529843  0  3.793406  0  0  0.479489  0  4.090604  0  0  0.509173  0  4.087744  0  0  0.256136  0.459154  0  4.092506  0
C  C73  1  0.92072433  0.13762272  0.91382896  1  0  0.529687  0  3.793816  0  0  0.479365  0  4.091028  0  0  0.509033  0  4.088201  0  0  0.256067  0.459041  0  4.092911  0
C  C74  1  0.05803490  0.68214221  0.07951470  1  0  0.518948  0  3.811315  0  0  0.468862  0  4.105641  0  0  0.498764  0  4.102817  0  0  0.253698  0.448421  0  4.107567  0
C  C75  1  0.94196269  0.31786722  0.92047988  1  0  0.519093  0  3.811168  0  0  0.468906  0  4.105628  0  0  0.498831  0  4.102764  0  0  0.253665  0.448462  0  4.107561  0
C  C76  1  0.07650318  0.78020224  0.24614907  1  0  -0.02281  0  3.657042  0  0  -0.088344  0  3.909126  0  0  -0.082781  0  3.918171  0  0  -0.047287  -0.09211  0  3.903111  0
C  C77  1  0.92349912  0.21979863  0.75384672  1  0  -0.022569  0  3.656959  0  0  -0.088226  0  3.90914  0  0  -0.082678  0  3.91822  0  0  -0.047291  -0.091997  0  3.903117  0
C  C78  1  0.94580477  0.75601439  0.26309041  1  0  0.129465  0  3.704503  0  0  0.146086  0  3.941091  0  0  0.149298  0  3.964222  0  0  0.011171  0.144231  0  3.925106  0
C  C79  1  0.05419161  0.24398571  0.73690395  1  0  0.129457  0  3.704677  0  0  0.146058  0  3.941333  0  0  0.149276  0  3.964455  0  0  0.011173  0.144205  0  3.925342  0
C  C80  1  0.87974941  0.83575043  0.27619558  1  0  -0.153124  0  3.684589  0  0  -0.172363  0  3.93053  0  0  -0.179765  0  3.950905  0  0  -0.079374  -0.167581  0  3.916772  0
C  C81  1  0.12024471  0.16425196  0.72380204  1  0  -0.153085  0  3.684783  0  0  -0.172369  0  3.930712  0  0  -0.17977  0  3.951089  0  0  -0.079403  -0.167582  0  3.916941  0
C  C82  1  0.76051642  0.81133865  0.29331318  1  0  0.132009  0  3.691483  0  0  0.100201  0  3.941691  0  0  0.106843  0  3.961503  0  0  0.045358  0.095888  0  3.92824  0
C  C83  1  0.23948235  0.18866292  0.70668836  1  0  0.13209  0  3.691379  0  0  0.100275  0  3.941599  0  0  0.106908  0  3.961407  0  0  0.045424  0.095964  0  3.928142  0
C  C84  1  0.76876090  0.63591646  0.28409966  1  0  0.126239  0  3.7236  0  0  0.097063  0  3.972503  0  0  0.103971  0  3.992025  0  0  0.040811  0.092639  0  3.959112  0
C  C85  1  0.23124052  0.36408436  0.71590027  1  0  0.126205  0  3.723595  0  0  0.097037  0  3.972458  0  0  0.103943  0  3.991978  0  0  0.040812  0.092619  0  3.959043  0
C  C86  1  0.88849327  0.65388888  0.26710756  1  0  -0.165369  0  3.700192  0  0  -0.183462  0  3.94474  0  0  -0.191408  0  3.966429  0  0  -0.084893  -0.178225  0  3.92998  0
C  C87  1  0.11150487  0.34611042  0.73288860  1  0  -0.165336  0  3.700201  0  0  -0.183458  0  3.944694  0  0  -0.191379  0  3.966394  0  0  -0.084876  -0.178213  0  3.929921  0
C  C88  1  0.50923799  0.43682481  0.34295681  1  0  0.121747  0  3.716976  0  0  0.090822  0  3.967494  0  0  0.09841  0  3.986192  0  0  0.039489  0.085978  0  3.954678  0
C  C89  1  0.49076580  0.56316978  0.65704322  1  0  0.121654  0  3.716865  0  0  0.090746  0  3.967351  0  0  0.098334  0  3.98605  0  0  0.039465  0.085903  0  3.954533  0
C  C90  1  0.46597195  0.33030507  0.31823305  1  0  -0.154299  0  3.691378  0  0  -0.176683  0  3.943515  0  0  -0.184935  0  3.965871  0  0  -0.087433  -0.171482  0  3.928599  0
C  C91  1  0.53403110  0.66969028  0.68176904  1  0  -0.154244  0  3.691359  0  0  -0.176643  0  3.94346  0  0  -0.184894  0  3.965807  0  0  -0.087393  -0.171443  0  3.92853  0
C  C92  1  0.35399203  0.29293058  0.23485824  1  0  0.139981  0  3.699635  0  0  0.15333  0  3.940986  0  0  0.15748  0  3.962642  0  0  0.017192  0.150829  0  3.926248  0
C  C93  1  0.64600937  0.70706549  0.76514859  1  0  0.139963  0  3.699709  0  0  0.153365  0  3.941029  0  0  0.157542  0  3.962706  0  0  0.017208  0.150871  0  3.926277  0
C  C94  1  0.29353600  0.36546027  0.17684963  1  0  -0.15317  0  3.69318  0  0  -0.170173  0  3.935528  0  0  -0.178412  0  3.958097  0  0  -0.080203  -0.164896  0  3.920319  0
C  C95  1  0.70646272  0.63453657  0.82315663  1  0  -0.153049  0  3.692973  0  0  -0.170114  0  3.935303  0  0  -0.178352  0  3.957865  0  0  -0.080199  -0.164842  0  3.920095  0
C  C96  1  0.34298810  0.47106458  0.20577443  1  0  0.129727  0  3.698182  0  0  0.100202  0  3.942819  0  0  0.107649  0  3.961671  0  0  0.047749  0.095422  0  3.929932  0
C  C97  1  0.65701443  0.52893227  0.79423199  1  0  0.129594  0  3.698018  0  0  0.100067  0  3.942653  0  0  0.107513  0  3.961504  0  0  0.04773  0.095285  0  3.929789  0
C  C98  1  0.30098609  0.17759291  0.20971858  1  0  -0.020882  0  3.641303  0  0  -0.08701  0  3.89521  0  0  -0.080285  0  3.90119  0  0  -0.045437  -0.091515  0  3.891033  0
C  C99  1  0.69901528  0.82240319  0.79028607  1  0  -0.020924  0  3.641394  0  0  -0.087179  0  3.895315  0  0  -0.080563  0  3.901444  0  0  -0.045517  -0.091677  0  3.891124  0
C  C100  1  0.48237444  0.09333263  0.18494338  1  0  0.512633  0  3.810246  0  0  0.46381  0  4.104537  0  0  0.492949  0  4.101862  0  0  0.251377  0.443798  0  4.1064  0
C  C101  1  0.51762526  0.90666420  0.81506456  1  0  0.512682  0  3.810348  0  0  0.463874  0  4.10459  0  0  0.492965  0  4.101983  0  0  0.251385  0.443859  0  4.106454  0
C  C102  1  0.50592337  0.04291539  0.09442300  1  0  -0.043634  0  3.754759  0  0  -0.035834  0  3.997353  0  0  -0.0391  0  4.015986  0  0  0.002762  -0.033892  0  3.985219  0
C  C103  1  0.49407800  0.95708071  0.90558165  1  0  -0.043671  0  3.75502  0  0  -0.035873  0  3.997595  0  0  -0.039125  0  4.016238  0  0  0.002664  -0.033932  0  3.985464  0
C  C104  1  0.60611225  0.99133724  0.09056254  1  0  -0.032481  0  3.640213  0  0  -0.070589  0  3.897831  0  0  -0.06915  0  3.914117  0  0  -0.055569  -0.071494  0  3.887102  0
C  C105  1  0.39388815  0.00865886  0.90944116  1  0  -0.032617  0  3.640373  0  0  -0.070689  0  3.897977  0  0  -0.069249  0  3.914259  0  0  -0.05556  -0.071601  0  3.887257  0
C  C106  1  0.40331398  0.05150876  0.00677617  1  0  -0.052392  0  3.740067  0  0  -0.042649  0  3.98071  0  0  -0.047088  0  4.000626  0  0  0.002114  -0.03989  0  3.967589  0
C  C107  1  0.59668798  0.94848578  0.99322851  1  0  -0.052444  0  3.740055  0  0  -0.042705  0  3.98074  0  0  -0.047144  0  4.000655  0  0  0.002136  -0.039957  0  3.96763  0
C  C108  1  0.31270018  0.10862414  0.03942031  1  0  0.513868  0  3.804255  0  0  0.466592  0  4.094278  0  0  0.495495  0  4.093403  0  0  0.254982  0.44699  0  4.094445  0
C  C109  1  0.68730497  0.89137584  0.96058549  1  0  0.513893  0  3.804185  0  0  0.466603  0  4.094228  0  0  0.495508  0  4.093343  0  0  0.25501  0.446999  0  4.094391  0
N  N110  1  0.36123406  0.69745354  0.42558716  1  0  -0.342874  0  3.284488  0  0  -0.264482  0  3.552836  0  0  -0.285417  0  3.573601  0  0  -0.33445  -0.250271  0  3.538329  0
N  N111  1  0.63877100  0.30254650  0.57441355  1  0  -0.343008  0  3.284726  0  0  -0.264578  0  3.553065  0  0  -0.285512  0  3.573829  0  0  -0.334495  -0.250368  0  3.53858  0
N  N112  1  0.07895376  0.74664825  0.65282919  1  0  -0.284977  0  3.394247  0  0  -0.20815  0  3.633762  0  0  -0.233572  0  3.650961  0  0  -0.25482  -0.190723  0  3.6215  0
N  N113  1  0.92104308  0.25335333  0.34717118  1  0  -0.285026  0  3.39446  0  0  -0.208158  0  3.634079  0  0  -0.233636  0  3.651232  0  0  -0.254878  -0.190693  0  3.621839  0
N  N114  1  0.06582502  0.77465665  0.13845530  1  0  -0.283624  0  3.389537  0  0  -0.206352  0  3.626253  0  0  -0.232133  0  3.64389  0  0  -0.252882  -0.188669  0  3.613965  0
N  N115  1  0.93417454  0.22535273  0.86154336  1  0  -0.283915  0  3.389826  0  0  -0.206549  0  3.626523  0  0  -0.23235  0  3.644206  0  0  -0.252747  -0.188864  0  3.614236  0
N  N116  1  0.70535134  0.71297522  0.29700943  1  0  -0.334421  0  3.280967  0  0  -0.254193  0  3.542308  0  0  -0.275339  0  3.563618  0  0  -0.334127  -0.239891  0  3.527668  0
N  N117  1  0.29465374  0.28702480  0.70299201  1  0  -0.334402  0  3.281006  0  0  -0.254147  0  3.542315  0  0  -0.275294  0  3.563631  0  0  -0.334087  -0.239843  0  3.527662  0
N  N118  1  0.44866768  0.50652296  0.28840764  1  0  -0.340042  0  3.268764  0  0  -0.258263  0  3.532038  0  0  -0.279422  0  3.551376  0  0  -0.333713  -0.243877  0  3.518512  0
N  N119  1  0.55133404  0.49347084  0.71159331  1  0  -0.339848  0  3.268523  0  0  -0.258105  0  3.53182  0  0  -0.279266  0  3.551161  0  0  -0.333586  -0.243733  0  3.518317  0
N  N120  1  0.36406423  0.12826168  0.14608647  1  0  -0.276758  0  3.388464  0  0  -0.198076  0  3.622897  0  0  -0.223629  0  3.640058  0  0  -0.24849  -0.18038  0  3.610465  0
N  N121  1  0.63593848  0.87173595  0.85392005  1  0  -0.276789  0  3.388531  0  0  -0.198083  0  3.622985  0  0  -0.223593  0  3.64019  0  0  -0.248481  -0.180387  0  3.610543  0
N  N122  1  0.72175555  0.71878867  0.54881993  1  0  0.682963  0  4.149617  0  0  0.728521  0  4.426292  0  0  0.757872  0  4.432041  0  0  0.088906  0.708696  0  4.421861  0
N  N123  1  0.27824673  0.28121131  0.45118521  1  0  0.683045  0  4.149291  0  0  0.728475  0  4.426142  0  0  0.757827  0  4.431894  0  0  0.088887  0.708653  0  4.421706  0
N  N124  1  0.39381135  0.81272076  0.20204706  1  0  0.683943  0  4.139737  0  0  0.732767  0  4.408697  0  0  0.762462  0  4.414504  0  0  0.092448  0.712491  0  4.404073  0
N  N125  1  0.60619055  0.18727383  0.79795398  1  0  0.683846  0  4.140158  0  0  0.73286  0  4.408887  0  0  0.762561  0  4.414688  0  0  0.092542  0.712584  0  4.40426  0
O  O126  1  0.10531156  0.92625134  0.68443022  1  0  -0.465992  0  1.926704  0  0  -0.427761  0  2.135655  0  0  -0.445544  0  2.127959  0  0  -0.251714  -0.415816  0  2.140977  0
O  O127  1  0.89469009  0.07375022  0.31557271  1  0  -0.46604  0  1.92655  0  0  -0.427783  0  2.135519  0  0  -0.445569  0  2.127829  0  0  -0.251717  -0.415834  0  2.140842  0
O  O128  1  0.04610958  0.56967477  0.66809986  1  0  -0.474772  0  1.92886  0  0  -0.432759  0  2.14035  0  0  -0.451117  0  2.133841  0  0  -0.255455  -0.420373  0  2.144796  0
O  O129  1  0.95388293  0.43032535  0.33189145  1  0  -0.474656  0  1.929269  0  0  -0.432579  0  2.140742  0  0  -0.450933  0  2.134243  0  0  -0.255377  -0.420187  0  2.1452  0
O  O130  1  0.09139723  0.95201372  0.12256542  1  0  -0.455321  0  1.920092  0  0  -0.418877  0  2.132651  0  0  -0.437466  0  2.12717  0  0  -0.251474  -0.406334  0  2.136368  0
O  O131  1  0.90860942  0.04799720  0.87743644  1  0  -0.455218  0  1.920098  0  0  -0.418788  0  2.132695  0  0  -0.437367  0  2.127224  0  0  -0.251504  -0.406241  0  2.136397  0
O  O132  1  0.04890242  0.59580109  0.10901274  1  0  -0.479327  0  1.926064  0  0  -0.442977  0  2.141029  0  0  -0.461342  0  2.133559  0  0  -0.26269  -0.430533  0  2.146117  0
O  O133  1  0.95109297  0.40420289  0.89098239  1  0  -0.479291  0  1.925968  0  0  -0.442946  0  2.141007  0  0  -0.461315  0  2.133527  0  0  -0.262697  -0.430498  0  2.146105  0
O  O134  1  0.54948767  0.10554541  0.27505250  1  0  -0.46244  0  1.915511  0  0  -0.430847  0  2.129125  0  0  -0.448285  0  2.123045  0  0  -0.259935  -0.419214  0  2.133395  0
O  O135  1  0.45051319  0.89444833  0.72495403  1  0  -0.462428  0  1.915494  0  0  -0.430847  0  2.129106  0  0  -0.448268  0  2.12305  0  0  -0.259898  -0.419209  0  2.133369  0
O  O136  1  0.21324173  0.13480419  0.98653749  1  0  -0.477346  0  1.914302  0  0  -0.443394  0  2.129112  0  0  -0.462056  0  2.12481  0  0  -0.265692  -0.430589  0  2.131816  0
O  O137  1  0.78676568  0.86520121  0.01347066  1  0  -0.477367  0  1.914315  0  0  -0.44344  0  2.129184  0  0  -0.462095  0  2.124865  0  0  -0.265751  -0.430636  0  2.131881  0
O  O138  1  0.68007057  0.62668717  0.50051751  1  0  -0.509843  0  1.764472  0  0  -0.500162  0  1.994704  0  0  -0.519065  0  1.987953  0  0  -0.218488  -0.486547  0  1.998842  0
O  O139  1  0.31992767  0.37331205  0.49948519  1  0  -0.50974  0  1.76446  0  0  -0.500034  0  1.994762  0  0  -0.518929  0  1.987994  0  0  -0.218416  -0.486423  0  1.998883  0
O  O140  1  0.66743927  0.79267521  0.51012895  1  0  -0.476333  0  1.730864  0  0  -0.463905  0  1.939011  0  0  -0.481373  0  1.931228  0  0  -0.207125  -0.451423  0  1.943964  0
O  O141  1  0.33256589  0.20732476  0.48987757  1  0  -0.47638  0  1.730733  0  0  -0.463877  0  1.938905  0  0  -0.481349  0  1.931125  0  0  -0.207119  -0.451408  0  1.94387  0
O  O142  1  0.81253493  0.73482433  0.63175890  1  0  -0.430153  0  1.788282  0  0  -0.430554  0  2.000426  0  0  -0.444833  0  1.996597  0  0  -0.172717  -0.420102  0  2.002663  0
O  O143  1  0.18746607  0.26517021  0.36824555  1  0  -0.430295  0  1.788128  0  0  -0.430648  0  2.000287  0  0  -0.444932  0  1.996478  0  0  -0.172804  -0.4202  0  2.002523  0
O  O144  1  0.35861053  0.71399210  0.18085135  1  0  -0.492329  0  1.743644  0  0  -0.484518  0  1.959118  0  0  -0.502816  0  1.951756  0  0  -0.213173  -0.470968  0  1.96368  0
O  O145  1  0.64139195  0.28600094  0.81914900  1  0  -0.492241  0  1.743767  0  0  -0.484508  0  1.959203  0  0  -0.502812  0  1.951847  0  0  -0.213131  -0.470953  0  1.96376  0
O  O146  1  0.48176383  0.84900614  0.28785561  1  0  -0.479855  0  1.767821  0  0  -0.462298  0  1.981458  0  0  -0.481805  0  1.973729  0  0  -0.205432  -0.44807  0  1.986066  0
O  O147  1  0.51823734  0.15098919  0.71214821  1  0  -0.479826  0  1.768041  0  0  -0.462293  0  1.981578  0  0  -0.481803  0  1.973851  0  0  -0.205455  -0.448059  0  1.986179  0
O  O148  1  0.34403553  0.87262164  0.14151253  1  0  -0.417948  0  1.800892  0  0  -0.418076  0  2.006817  0  0  -0.434534  0  2.005363  0  0  -0.160837  -0.405646  0  2.007222  0
O  O149  1  0.65596941  0.12737372  0.85848855  1  0  -0.417992  0  1.801016  0  0  -0.418178  0  2.006876  0  0  -0.434639  0  2.005421  0  0  -0.160922  -0.405733  0  2.007272  0
