# generated using pymatgen
data_CdH22C26N2O7
_symmetry_space_group_name_H-M   'P 1'
_cell_length_a   5.71525207
_cell_length_b   8.13621439
_cell_length_c   13.78545912
_cell_angle_alpha   76.28239884
_cell_angle_beta   79.62689866
_cell_angle_gamma   72.07818683
_symmetry_Int_Tables_number   1
_chemical_formula_structural   CdH22C26N2O7
_chemical_formula_sum   'Cd1 H22 C26 N2 O7'
_cell_volume   588.53930538
_cell_formula_units_Z   1
loop_
 _symmetry_equiv_pos_site_id
 _symmetry_equiv_pos_as_xyz
  1  'x, y, z'
loop_
 _atom_site_type_symbol
 _atom_site_label
 _atom_site_symmetry_multiplicity
 _atom_site_fract_x
 _atom_site_fract_y
 _atom_site_fract_z
 _atom_site_occupancy
 _atom_site_hle17_bader_spin_density
 _atom_site_hle17_ddec_charge
 _atom_site_hle17_ddec_spin_density
 _atom_site_hle17_ddec_sum_bond_order
 _atom_site_hle17_magmom
 _atom_site_hse06_10hf_bader_spin_density
 _atom_site_hse06_10hf_ddec_charge
 _atom_site_hse06_10hf_ddec_spin_density
 _atom_site_hse06_10hf_ddec_sum_bond_order
 _atom_site_hse06_10hf_magmom
 _atom_site_hse06_bader_spin_density
 _atom_site_hse06_ddec_charge
 _atom_site_hse06_ddec_spin_density
 _atom_site_hse06_ddec_sum_bond_order
 _atom_site_hse06_magmom
 _atom_site_pbe_bader_spin_density
 _atom_site_pbe_cm5_charge
 _atom_site_pbe_ddec_charge
 _atom_site_pbe_ddec_spin_density
 _atom_site_pbe_ddec_sum_bond_order
 _atom_site_pbe_magmom
Cd  Cd0  1  0.91985227  0.49584778  0.49972373  1  0  1.112641  0  1.663797  0  0  0.920381  0  2.100517  0  0  0.98076  0  2.046713  0  0  0.767287  0.877778  0  2.137092  0
H  H1  1  0.45179965  0.89910435  0.25911859  1  0  0.110688  0  0.945667  0  0  0.119746  0  1.010132  0  0  0.12255  0  1.007737  0  0  0.110516  0.11766  0  1.011899  0
H  H2  1  0.62635125  0.07983287  0.75110370  1  0  0.105918  0  0.933554  0  0  0.118012  0  0.992343  0  0  0.120501  0  0.990663  0  0  0.111842  0.116161  0  0.993611  0
H  H3  1  0.64266159  0.90567467  0.40481328  1  0  0.10384  0  0.990323  0  0  0.109161  0  1.057339  0  0  0.111865  0  1.057725  0  0  0.103209  0.107211  0  1.05725  0
H  H4  1  0.96600986  0.07540549  0.61006204  1  0  0.115065  0  0.976319  0  0  0.120254  0  1.042356  0  0  0.123315  0  1.042252  0  0  0.106346  0.118093  0  1.042526  0
H  H5  1  0.43208078  0.13899323  0.50858319  1  0  0.07504  0  0.954748  0  0  0.08231  0  1.023153  0  0  0.084087  0  1.022347  0  0  0.111367  0.080946  0  1.023878  0
H  H6  1  0.05648653  0.84644967  0.50201861  1  0  0.08038  0  0.939584  0  0  0.087652  0  1.006684  0  0  0.089628  0  1.005879  0  0  0.1154  0.086171  0  1.007299  0
H  H7  1  0.84662020  0.33578154  0.33651182  1  0  0.087941  0  0.954063  0  0  0.096609  0  1.019403  0  0  0.098863  0  1.017596  0  0  0.117259  0.094911  0  1.020845  0
H  H8  1  0.47682118  0.65238163  0.66022036  1  0  0.094479  0  0.959227  0  0  0.099573  0  1.031286  0  0  0.102901  0  1.02788  0  0  0.116235  0.097049  0  1.033849  0
H  H9  1  0.05127952  0.01911797  0.16753009  1  0  0.063243  0  0.967969  0  0  0.074971  0  1.034275  0  0  0.074146  0  1.036073  0  0  0.101734  0.075473  0  1.033081  0
H  H10  1  0.22719034  0.98027448  0.82273734  1  0  0.063731  0  0.95703  0  0  0.0757  0  1.024477  0  0  0.075263  0  1.025483  0  0  0.101904  0.075927  0  1.023849  0
H  H11  1  0.83259526  0.22057909  0.19302263  1  0  0.066893  0  0.911079  0  0  0.080664  0  0.972218  0  0  0.081142  0  0.971293  0  0  0.106073  0.08027  0  0.9729  0
H  H12  1  0.21049814  0.77701518  0.79856910  1  0  0.067939  0  0.922679  0  0  0.079653  0  0.988464  0  0  0.0799  0  0.988299  0  0  0.10524  0.079409  0  0.98865  0
H  H13  1  0.44995237  0.38483138  0.97772932  1  0  0.111352  0  0.967756  0  0  0.120025  0  1.032109  0  0  0.123168  0  1.031433  0  0  0.102874  0.117785  0  1.032726  0
H  H14  1  0.70907910  0.60894791  0.04182849  1  0  0.113346  0  0.955155  0  0  0.123076  0  1.016235  0  0  0.126186  0  1.015793  0  0  0.104046  0.120866  0  1.016693  0
H  H15  1  0.42692905  0.44428956  0.79276346  1  0  0.097693  0  0.9619  0  0  0.105219  0  1.030269  0  0  0.108686  0  1.027045  0  0  0.102567  0.10274  0  1.032554  0
H  H16  1  0.53124840  0.57169874  0.22272168  1  0  0.104681  0  0.955314  0  0  0.111932  0  1.022132  0  0  0.116013  0  1.018187  0  0  0.102673  0.108962  0  1.025037  0
H  H17  1  0.80265966  0.23360273  0.84788892  1  0  0.089447  0  0.966803  0  0  0.0984  0  1.03341  0  0  0.101353  0  1.030899  0  0  0.099877  0.096245  0  1.035263  0
H  H18  1  0.79994731  0.79597257  0.13285119  1  0  0.089886  0  0.967669  0  0  0.100302  0  1.030742  0  0  0.103104  0  1.028747  0  0  0.100942  0.098273  0  1.032199  0
H  H19  1  0.82715364  0.16876052  0.03155206  1  0  0.106581  0  0.963738  0  0  0.118273  0  1.023086  0  0  0.12153  0  1.021945  0  0  0.104163  0.115979  0  1.023986  0
H  H20  1  0.97393453  0.84695992  0.95380792  1  0  0.107952  0  0.953007  0  0  0.120805  0  1.009821  0  0  0.124252  0  1.008467  0  0  0.104475  0.118391  0  1.010842  0
H  H21  1  0.43349651  0.44826616  0.54477093  1  0  0.424765  0  0.887298  0  0  0.392424  0  0.95368  0  0  0.403637  0  0.937396  0  0  0.283837  0.384567  0  0.965054  0
H  H22  1  0.46745163  0.52114548  0.42765540  1  0  0.439436  0  0.851134  0  0  0.409969  0  0.912275  0  0  0.421062  0  0.895897  0  0  0.295918  0.402059  0  0.923948  0
C  C23  1  0.35971082  0.99749309  0.30545261  1  0  -0.023508  0  3.663149  0  0  -0.053346  0  3.909814  0  0  -0.049088  0  3.926497  0  0  -0.058213  -0.055861  0  3.898532  0
C  C24  1  0.66635131  0.98406028  0.70252190  1  0  -0.034852  0  3.659459  0  0  -0.061382  0  3.901806  0  0  -0.058075  0  3.919379  0  0  -0.058747  -0.063298  0  3.889971  0
C  C25  1  0.46758896  0.00087216  0.38755237  1  0  -0.12257  0  3.737213  0  0  -0.132088  0  3.986929  0  0  -0.140174  0  4.009527  0  0  -0.087414  -0.126942  0  3.971778  0
C  C26  1  0.85729562  0.98169591  0.62364766  1  0  -0.115527  0  3.717734  0  0  -0.125017  0  3.968296  0  0  -0.132403  0  3.98992  0  0  -0.082297  -0.120367  0  3.953867  0
C  C27  1  0.34875766  0.12749757  0.44616396  1  0  0.125659  0  3.707044  0  0  0.093938  0  3.959448  0  0  0.101271  0  3.978444  0  0  0.045815  0.089276  0  3.946431  0
C  C28  1  0.90535681  0.85721674  0.56330163  1  0  0.132626  0  3.695128  0  0  0.099109  0  3.950074  0  0  0.106483  0  3.968521  0  0  0.050073  0.094442  0  3.937436  0
C  C29  1  0.02373092  0.23856768  0.34923663  1  0  0.083448  0  3.688684  0  0  0.045404  0  3.93326  0  0  0.051244  0  3.953577  0  0  0.04678  0.041511  0  3.919826  0
C  C30  1  0.58322283  0.74688040  0.65233943  1  0  0.080648  0  3.664567  0  0  0.042584  0  3.912236  0  0  0.048569  0  3.931396  0  0  0.049212  0.038841  0  3.899275  0
C  C31  1  0.13498988  0.12164017  0.28429228  1  0  0.010064  0  3.759272  0  0  0.034452  0  4.000996  0  0  0.02871  0  4.024795  0  0  -0.01042  0.037914  0  3.985081  0
C  C32  1  0.52712934  0.86341156  0.71852147  1  0  0.015266  0  3.742969  0  0  0.038363  0  3.985612  0  0  0.032837  0  4.009968  0  0  -0.006416  0.041673  0  3.969335  0
C  C33  1  0.02980429  0.14567870  0.18840959  1  0  0.055772  0  3.635461  0  0  -0.01  0  3.897119  0  0  -0.000852  0  3.902165  0  0  -0.060048  -0.016088  0  3.893489  0
C  C34  1  0.33644620  0.84925545  0.80831862  1  0  0.053782  0  3.631624  0  0  -0.012785  0  3.896018  0  0  -0.003789  0  3.901181  0  0  -0.059348  -0.018738  0  3.892349  0
C  C35  1  0.14214022  0.27301738  0.01559813  1  0  0.288178  0  3.813816  0  0  0.279622  0  4.069033  0  0  0.293089  0  4.084035  0  0  0.086764  0.270473  0  4.058733  0
C  C36  1  0.35523575  0.73388332  0.98706205  1  0  0.28298  0  3.816799  0  0  0.273503  0  4.075794  0  0  0.286693  0  4.091373  0  0  0.085713  0.264593  0  4.065107  0
C  C37  1  0.31001614  0.35172363  0.94794447  1  0  -0.185569  0  3.749772  0  0  -0.205957  0  4.00245  0  0  -0.213187  0  4.022495  0  0  -0.105786  -0.201225  0  3.989005  0
C  C38  1  0.51014605  0.65218331  0.06338759  1  0  -0.192034  0  3.747359  0  0  -0.21139  0  4.00209  0  0  -0.218492  0  4.021064  0  0  -0.106317  -0.20675  0  3.989324  0
C  C39  1  0.29478475  0.38593189  0.84570385  1  0  -0.054984  0  3.771266  0  0  -0.079787  0  4.024046  0  0  -0.076429  0  4.0424  0  0  -0.089397  -0.081752  0  4.011562  0
C  C40  1  0.41013131  0.62905499  0.16349018  1  0  -0.048411  0  3.750203  0  0  -0.0737  0  4.00444  0  0  -0.069945  0  4.02128  0  0  -0.085836  -0.075906  0  3.993023  0
C  C41  1  0.11155302  0.34397626  0.80830584  1  0  -0.106581  0  3.798566  0  0  -0.086625  0  4.038341  0  0  -0.097186  0  4.061414  0  0  -0.03865  -0.079866  0  4.022833  0
C  C42  1  0.15269989  0.68113829  0.18980724  1  0  -0.095171  0  3.784785  0  0  -0.076147  0  4.025364  0  0  -0.085898  0  4.047491  0  0  -0.035134  -0.070008  0  4.010591  0
C  C43  1  0.94512567  0.26592924  0.87662265  1  0  -0.045124  0  3.769602  0  0  -0.068449  0  4.019997  0  0  -0.064227  0  4.037701  0  0  -0.087113  -0.070957  0  4.007891  0
C  C44  1  0.99983138  0.75732337  0.11272921  1  0  -0.050016  0  3.765104  0  0  -0.072648  0  4.014076  0  0  -0.068698  0  4.031635  0  0  -0.086394  -0.074958  0  4.002084  0
C  C45  1  0.95811610  0.23003121  0.97990696  1  0  -0.218376  0  3.77868  0  0  -0.238344  0  4.033787  0  0  -0.246445  0  4.054571  0  0  -0.111899  -0.233008  0  4.019729  0
C  C46  1  0.09770016  0.78590255  0.01183718  1  0  -0.210596  0  3.767852  0  0  -0.230454  0  4.023583  0  0  -0.238456  0  4.044388  0  0  -0.110131  -0.225196  0  4.009536  0
C  C47  1  0.09642960  0.38554780  0.69792108  1  0  0.639447  0  3.947289  0  0  0.588207  0  4.240264  0  0  0.623108  0  4.234005  0  0  0.192731  0.564564  0  4.24366  0
C  C48  1  0.04320558  0.65090625  0.29716752  1  0  0.628494  0  3.942277  0  0  0.578791  0  4.234564  0  0  0.613414  0  4.228791  0  0  0.18847  0.555356  0  4.237556  0
N  N49  1  0.12775569  0.24301332  0.42822897  1  0  -0.334291  0  3.267322  0  0  -0.254251  0  3.526246  0  0  -0.275275  0  3.547039  0  0  -0.329794  -0.239947  0  3.511736  0
N  N50  1  0.76896341  0.74335483  0.57681828  1  0  -0.338138  0  3.292161  0  0  -0.256363  0  3.552237  0  0  -0.277419  0  3.572527  0  0  -0.329753  -0.242087  0  3.538083  0
O  O51  1  0.17519898  0.24433303  0.11415153  1  0  -0.284376  0  2.300054  0  0  -0.213411  0  2.529286  0  0  -0.231988  0  2.531616  0  0  -0.177879  -0.200168  0  2.527055  0
O  O52  1  0.47624857  0.75371283  0.89195316  1  0  -0.288265  0  2.293022  0  0  -0.217596  0  2.524637  0  0  -0.236138  0  2.526881  0  0  -0.180183  -0.204504  0  2.522532  0
O  O53  1  0.23678766  0.47404735  0.64188634  1  0  -0.669631  0  2.018177  0  0  -0.605569  0  2.246336  0  0  -0.632178  0  2.235948  0  0  -0.330837  -0.586951  0  2.252835  0
O  O54  1  0.18394849  0.61934576  0.36683282  1  0  -0.68273  0  2.000876  0  0  -0.61249  0  2.242775  0  0  -0.642856  0  2.232649  0  0  -0.338675  -0.591143  0  2.24894  0
O  O55  1  0.93976336  0.33526566  0.66460148  1  0  -0.644596  0  1.960635  0  0  -0.579006  0  2.205486  0  0  -0.608046  0  2.195752  0  0  -0.335192  -0.558648  0  2.211261  0
O  O56  1  0.81731556  0.65235611  0.31723486  1  0  -0.638582  0  1.948297  0  0  -0.580156  0  2.183497  0  0  -0.607042  0  2.175024  0  0  -0.326287  -0.561293  0  2.188556  0
O  O57  1  0.55834760  0.44280223  0.48345416  1  0  -0.845377  0  1.874599  0  0  -0.78212  0  2.075071  0  0  -0.805043  0  2.040494  0  0  -0.593186  -0.765911  0  2.098963  0
