# generated using pymatgen
data_CoH4(CN2)4
_symmetry_space_group_name_H-M   'P 1'
_cell_length_a   7.33374837
_cell_length_b   7.98853461
_cell_length_c   7.96083952
_cell_angle_alpha   93.46110576
_cell_angle_beta   117.04778840
_cell_angle_gamma   115.83597605
_symmetry_Int_Tables_number   1
_chemical_formula_structural   CoH4(CN2)4
_chemical_formula_sum   'Co2 H8 C8 N16'
_cell_volume   353.88341782
_cell_formula_units_Z   2
loop_
 _symmetry_equiv_pos_site_id
 _symmetry_equiv_pos_as_xyz
  1  'x, y, z'
loop_
 _atom_site_type_symbol
 _atom_site_label
 _atom_site_symmetry_multiplicity
 _atom_site_fract_x
 _atom_site_fract_y
 _atom_site_fract_z
 _atom_site_occupancy
 _atom_site_pbe_cm5_charge
 _atom_site_pbe_ddec_charge
 _atom_site_pbe_ddec_spin_density
 _atom_site_pbe_ddec_sum_bond_order
 _atom_site_pbe_magmom
Co  Co0  1  0.99999895  0.99999948  0.49999727  1  0.756409  0.601536  0.31852  3.360603  0.222
Co  Co1  1  0.99999996  0.49999739  0.99999945  1  0.641223  0.560196  -2.201384  3.021271  -1.969
H  H2  1  0.09423972  0.25521199  0.26577674  1  0.132371  0.073489  -0.000217  1.047812  -0.001
H  H3  1  0.90575641  0.74478353  0.73422068  1  0.132373  0.07351  -0.000217  1.047794  -0.001
H  H4  1  0.57958078  0.03222901  0.41372838  1  0.123973  0.084135  -0.000314  1.058421  0.0
H  H5  1  0.58363332  0.41617651  0.05596211  1  0.119722  0.081733  -0.000539  1.048798  -0.001
H  H6  1  0.42042194  0.96777680  0.58627242  1  0.123962  0.084091  -0.000314  1.058402  0.0
H  H7  1  0.41637117  0.58382487  0.94404040  1  0.119741  0.081762  -0.000539  1.048816  -0.001
H  H8  1  0.39380543  0.21444163  0.22608992  1  0.111416  0.12547  -0.000334  1.032023  0.0
H  H9  1  0.60619790  0.78556271  0.77391354  1  0.111408  0.125463  -0.000334  1.032041  0.0
C  C10  1  0.93654263  0.24515541  0.25488600  1  0.183942  0.228708  0.007142  3.890257  0.007
C  C11  1  0.06345443  0.75484158  0.74511064  1  0.183937  0.228704  0.007138  3.890104  0.007
C  C12  1  0.64939343  0.12078275  0.33565454  1  0.062026  0.122706  0.012047  3.875617  0.011
C  C13  1  0.65212393  0.33254538  0.13884565  1  0.063115  0.133972  0.008291  3.89315  0.008
C  C14  1  0.35061203  0.87922010  0.66435097  1  0.061989  0.122738  0.012044  3.87565  0.011
C  C15  1  0.34787412  0.66745308  0.86115652  1  0.063127  0.133976  0.008292  3.893057  0.008
C  C16  1  0.54831282  0.22166544  0.23205704  1  -0.079754  -0.152192  -0.002044  3.931413  -0.004
C  C17  1  0.45168992  0.77834037  0.76794501  1  -0.079754  -0.152229  -0.002044  3.931389  -0.004
N  N18  1  0.84417155  0.13224372  0.34706336  1  -0.32193  -0.202626  -0.002595  3.592437  -0.005
N  N19  1  0.84575451  0.34311536  0.14850283  1  -0.318317  -0.244638  -0.01949  3.551733  -0.032
N  N20  1  0.15582682  0.86775768  0.65293536  1  -0.321904  -0.202624  -0.002595  3.592349  -0.005
N  N21  1  0.15424447  0.65688457  0.85149856  1  -0.318333  -0.244656  -0.019491  3.551777  -0.032
N  N22  1  0.10676290  0.97627557  0.31601190  1  -0.253211  -0.431153  -0.028393  3.070711  -0.044
N  N23  1  0.10060426  0.30246278  0.96513297  1  -0.220733  -0.392221  -0.003512  3.025559  -0.005
N  N24  1  0.89322977  0.02371702  0.68397888  1  -0.253263  -0.431215  -0.0284  3.070054  -0.044
N  N25  1  0.89939147  0.69752979  0.03485908  1  -0.220806  -0.392347  -0.003526  3.025106  -0.005
N  N26  1  0.99897163  0.83338250  0.17627308  1  0.097793  0.423423  0.001215  4.385715  0.001
N  N27  1  0.00104011  0.16662770  0.82374052  1  0.097791  0.423377  0.001219  4.385465  0.001
N  N28  1  0.70402232  0.73302212  0.34041205  1  -0.254686  -0.434447  -0.025505  3.014973  -0.039
N  N29  1  0.67948857  0.34688153  0.72468552  1  -0.226925  -0.403904  -0.003698  2.981518  -0.006
N  N30  1  0.29598028  0.26697632  0.65958823  1  -0.254742  -0.434523  -0.025503  3.015091  -0.039
N  N31  1  0.32051190  0.65311839  0.27531272  1  -0.226913  -0.403872  -0.003697  2.98154  -0.006
N  N32  1  0.51303878  0.69685636  0.30924941  1  0.082446  0.406786  -0.000611  4.405951  -0.002
N  N33  1  0.48696018  0.30314357  0.69074946  1  0.082508  0.406872  -0.000611  4.406016  -0.002
