# generated using pymatgen
data_CdH11C14NO6
_symmetry_space_group_name_H-M   'P 1'
_cell_length_a   8.35578614
_cell_length_b   8.90878650
_cell_length_c   10.15610547
_cell_angle_alpha   70.48566722
_cell_angle_beta   66.44155637
_cell_angle_gamma   80.91676354
_symmetry_Int_Tables_number   1
_chemical_formula_structural   CdH11C14NO6
_chemical_formula_sum   'Cd2 H22 C28 N2 O12'
_cell_volume   652.94015970
_cell_formula_units_Z   2
loop_
 _symmetry_equiv_pos_site_id
 _symmetry_equiv_pos_as_xyz
  1  'x, y, z'
loop_
 _atom_site_type_symbol
 _atom_site_label
 _atom_site_symmetry_multiplicity
 _atom_site_fract_x
 _atom_site_fract_y
 _atom_site_fract_z
 _atom_site_occupancy
 _atom_site_hle17_bader_spin_density
 _atom_site_hle17_ddec_charge
 _atom_site_hle17_ddec_spin_density
 _atom_site_hle17_ddec_sum_bond_order
 _atom_site_hle17_magmom
 _atom_site_hse06_10hf_bader_spin_density
 _atom_site_hse06_10hf_ddec_charge
 _atom_site_hse06_10hf_ddec_spin_density
 _atom_site_hse06_10hf_ddec_sum_bond_order
 _atom_site_hse06_10hf_magmom
 _atom_site_hse06_bader_spin_density
 _atom_site_hse06_ddec_charge
 _atom_site_hse06_ddec_spin_density
 _atom_site_hse06_ddec_sum_bond_order
 _atom_site_hse06_magmom
 _atom_site_pbe_bader_spin_density
 _atom_site_pbe_cm5_charge
 _atom_site_pbe_ddec_charge
 _atom_site_pbe_ddec_spin_density
 _atom_site_pbe_ddec_sum_bond_order
 _atom_site_pbe_magmom
Cd  Cd0  1  0.81820577  0.57990994  0.41308486  1  0  1.165334  0  1.616614  0  0  0.982627  0  2.054108  0  0  1.042248  0  1.999435  0  0  0.764154  0.937199  0  2.093063  0
Cd  Cd1  1  0.18179424  0.42009181  0.58691517  1  0  1.16535  0  1.616604  0  0  0.982652  0  2.054096  0  0  1.042271  0  1.999423  0  0  0.764155  0.937225  0  2.093052  0
H  H2  1  0.27511893  0.14567247  0.35603912  1  0  0.071363  0  0.937305  0  0  0.082985  0  1.005514  0  0  0.082665  0  1.0059  0  0  0.106172  0.083067  0  1.005357  0
H  H3  1  0.72488108  0.85432928  0.64395992  1  0  0.071363  0  0.937294  0  0  0.082988  0  1.005501  0  0  0.082673  0  1.005892  0  0  0.106163  0.083071  0  1.005343  0
H  H4  1  0.31668532  0.93543902  0.42068218  1  0  0.081365  0  0.9285  0  0  0.092868  0  0.991603  0  0  0.094646  0  0.989011  0  0  0.106889  0.091519  0  0.9935  0
H  H5  1  0.68331468  0.06456392  0.57931651  1  0  0.081342  0  0.928474  0  0  0.092844  0  0.99158  0  0  0.094628  0  0.988992  0  0  0.106859  0.091491  0  0.993483  0
H  H6  1  0.55417665  0.20171846  0.32737333  1  0  0.119394  0  0.944735  0  0  0.133669  0  1.000607  0  0  0.137131  0  0.998172  0  0  0.112209  0.131304  0  1.002242  0
H  H7  1  0.44582340  0.79828090  0.67262542  1  0  0.119443  0  0.944707  0  0  0.13372  0  1.000574  0  0  0.137182  0  0.99814  0  0  0.112241  0.131356  0  1.002209  0
H  H8  1  0.55369665  0.18585818  0.90862004  1  0  0.12829  0  0.945021  0  0  0.133048  0  1.015098  0  0  0.137986  0  1.010618  0  0  0.110656  0.129525  0  1.018282  0
H  H9  1  0.44630334  0.81414477  0.09138062  1  0  0.128288  0  0.944991  0  0  0.133043  0  1.015069  0  0  0.137977  0  1.010601  0  0  0.110628  0.129515  0  1.018261  0
H  H10  1  0.83875937  0.54753730  0.91246435  1  0  0.107914  0  0.966105  0  0  0.114662  0  1.034473  0  0  0.118327  0  1.031427  0  0  0.105154  0.112006  0  1.036799  0
H  H11  1  0.16124456  0.45246440  0.08753539  1  0  0.107917  0  0.966095  0  0  0.114653  0  1.034484  0  0  0.118311  0  1.03144  0  0  0.105175  0.111997  0  1.036807  0
H  H12  1  0.78861645  0.90246495  0.19310358  1  0  0.09338  0  0.933634  0  0  0.102812  0  0.994717  0  0  0.105416  0  0.992276  0  0  0.120133  0.100902  0  0.996415  0
H  H13  1  0.21138488  0.09753677  0.80689208  1  0  0.093358  0  0.933693  0  0  0.102798  0  0.994766  0  0  0.105406  0  0.992325  0  0  0.120108  0.100889  0  0.996465  0
H  H14  1  0.94595901  0.16090066  0.04375246  1  0  0.109435  0  0.966905  0  0  0.118407  0  1.027418  0  0  0.120412  0  1.028939  0  0  0.108624  0.116743  0  1.027004  0
H  H15  1  0.05404101  0.83910108  0.95624559  1  0  0.109429  0  0.966953  0  0  0.11842  0  1.027425  0  0  0.120425  0  1.028947  0  0  0.108638  0.116758  0  1.027008  0
H  H16  1  0.18293874  0.21896100  0.10554076  1  0  0.108817  0  0.951353  0  0  0.119315  0  1.01269  0  0  0.122302  0  1.009877  0  0  0.11172  0.117062  0  1.014894  0
H  H17  1  0.81705603  0.78104201  0.89446061  1  0  0.108833  0  0.951374  0  0  0.119333  0  1.012698  0  0  0.122319  0  1.009887  0  0  0.111736  0.117077  0  1.014909  0
H  H18  1  0.07867634  0.77459210  0.46563627  1  0  0.093866  0  0.947066  0  0  0.101121  0  1.015671  0  0  0.103624  0  1.013501  0  0  0.116542  0.099229  0  1.01751  0
H  H19  1  0.92132239  0.22540847  0.53436255  1  0  0.093897  0  0.947103  0  0  0.101142  0  1.015715  0  0  0.103649  0  1.013546  0  0  0.116552  0.09925  0  1.017554  0
H  H20  1  0.51423593  0.68673558  0.34485103  1  0  0.433026  0  0.847405  0  0  0.404777  0  0.915464  0  0  0.415177  0  0.900321  0  0  0.299087  0.397254  0  0.926427  0
H  H21  1  0.48576537  0.31326734  0.65514724  1  0  0.433015  0  0.847423  0  0  0.404763  0  0.915492  0  0  0.415164  0  0.900348  0  0  0.299064  0.397241  0  0.926453  0
H  H22  1  0.45077243  0.68039980  0.51115294  1  0  0.419162  0  0.892757  0  0  0.386292  0  0.96104  0  0  0.397532  0  0.944765  0  0  0.284129  0.378294  0  0.972649  0
H  H23  1  0.54922887  0.31960312  0.48884533  1  0  0.419142  0  0.892781  0  0  0.386267  0  0.961071  0  0  0.397509  0  0.944796  0  0  0.284126  0.378269  0  0.972681  0
C  C24  1  0.29645386  0.03315430  0.32809106  1  0  0.054277  0  3.614835  0  0  -0.010494  0  3.87512  0  0  -0.001745  0  3.879253  0  0  -0.058664  -0.016516  0  3.872775  0
C  C25  1  0.70354225  0.96684631  0.67191058  1  0  0.054304  0  3.614685  0  0  -0.01048  0  3.874969  0  0  -0.001764  0  3.879143  0  0  -0.058623  -0.016499  0  3.872617  0
C  C26  1  0.75571639  0.46251940  0.21275146  1  0  0.642869  0  3.899582  0  0  0.592569  0  4.186426  0  0  0.626908  0  4.180285  0  0  0.199798  0.569416  0  4.189315  0
C  C27  1  0.24428761  0.53747753  0.78724869  1  0  0.642702  0  3.899699  0  0  0.592403  0  4.18655  0  0  0.626738  0  4.180415  0  0  0.199769  0.56925  0  4.189435  0
C  C28  1  0.59248768  0.25236555  0.20591254  1  0  -0.177614  0  3.705718  0  0  -0.214971  0  3.95739  0  0  -0.215658  0  3.975321  0  0  -0.092031  -0.21416  0  3.94509  0
C  C29  1  0.40751371  0.74763141  0.79408648  1  0  -0.177783  0  3.705671  0  0  -0.215151  0  3.957362  0  0  -0.215838  0  3.975288  0  0  -0.09214  -0.214338  0  3.945059  0
C  C30  1  0.54363344  0.18021837  0.12520021  1  0  0.252422  0  3.830556  0  0  0.250042  0  4.093211  0  0  0.257223  0  4.110654  0  0  0.080295  0.244866  0  4.081384  0
C  C31  1  0.45636404  0.81977746  0.87480239  1  0  0.252459  0  3.830516  0  0  0.250056  0  4.09316  0  0  0.257237  0  4.1106  0  0  0.080271  0.244882  0  4.081328  0
C  C32  1  0.59553297  0.24268160  0.96886360  1  0  -0.151734  0  3.66578  0  0  -0.191582  0  3.923145  0  0  -0.191583  0  3.939863  0  0  -0.086229  -0.191239  0  3.911637  0
C  C33  1  0.40446444  0.75731900  0.03113860  1  0  -0.151739  0  3.665704  0  0  -0.191564  0  3.923052  0  0  -0.19157  0  3.93977  0  0  -0.086159  -0.191222  0  3.911543  0
C  C34  1  0.69740295  0.38646707  0.12899409  1  0  -0.038367  0  3.766915  0  0  -0.012616  0  4.004272  0  0  -0.020197  0  4.026364  0  0  -0.016308  -0.007829  0  3.989668  0
C  C35  1  0.30260110  0.61352629  0.87100611  1  0  -0.038317  0  3.766757  0  0  -0.012546  0  4.004093  0  0  -0.020127  0  4.026186  0  0  -0.0163  -0.00777  0  3.98951  0
C  C36  1  0.75302885  0.44686083  0.97251579  1  0  -0.081192  0  3.698151  0  0  -0.123352  0  3.953862  0  0  -0.121145  0  3.972507  0  0  -0.082407  -0.124521  0  3.941563  0
C  C37  1  0.24697513  0.55313730  0.02748401  1  0  -0.081154  0  3.698049  0  0  -0.123313  0  3.953791  0  0  -0.121097  0  3.972427  0  0  -0.08241  -0.124481  0  3.94149  0
C  C38  1  0.70068000  0.37634499  0.89262787  1  0  -0.05141  0  3.783265  0  0  -0.023964  0  4.020663  0  0  -0.032789  0  4.044857  0  0  -0.01925  -0.018053  0  4.004038  0
C  C39  1  0.29932268  0.62365196  0.10737368  1  0  -0.051427  0  3.783235  0  0  -0.023997  0  4.020661  0  0  -0.03282  0  4.044851  0  0  -0.019295  -0.018085  0  4.004036  0
C  C40  1  0.75097964  0.44851068  0.72668705  1  0  0.64318  0  3.914259  0  0  0.589437  0  4.205606  0  0  0.624068  0  4.200309  0  0  0.200226  0.566006  0  4.207965  0
C  C41  1  0.24902041  0.55148868  0.27331268  1  0  0.643278  0  3.91423  0  0  0.589536  0  4.205571  0  0  0.624167  0  4.200273  0  0  0.200254  0.566105  0  4.207933  0
C  C42  1  0.89079812  0.93522962  0.21867414  1  0  0.126169  0  3.695558  0  0  0.092791  0  3.946584  0  0  0.100361  0  3.96538  0  0  0.047503  0.088826  0  3.932896  0
C  C43  1  0.10920453  0.06477090  0.78132244  1  0  0.126203  0  3.695662  0  0  0.092811  0  3.946682  0  0  0.100376  0  3.965482  0  0  0.04754  0.088846  0  3.932994  0
C  C44  1  0.97774547  0.07798140  0.13678678  1  0  -0.109293  0  3.739402  0  0  -0.118759  0  3.989262  0  0  -0.126143  0  4.012094  0  0  -0.080023  -0.114411  0  3.974873  0
C  C45  1  0.02225585  0.92202033  0.86321282  1  0  -0.109309  0  3.739475  0  0  -0.118779  0  3.989333  0  0  -0.126163  0  4.012166  0  0  -0.080049  -0.11443  0  3.974942  0
C  C46  1  0.10871502  0.11105013  0.17350189  1  0  -0.020941  0  3.644278  0  0  -0.049294  0  3.887319  0  0  -0.045269  0  3.903635  0  0  -0.056128  -0.052767  0  3.877553  0
C  C47  1  0.89128500  0.88895043  0.82649848  1  0  -0.020969  0  3.644369  0  0  -0.049327  0  3.887407  0  0  -0.045302  0  3.903723  0  0  -0.056136  -0.0528  0  3.87764  0
C  C48  1  0.14703317  0.00301414  0.29426883  1  0  0.013615  0  3.741886  0  0  0.03745  0  3.983212  0  0  0.031462  0  4.008097  0  0  -0.008423  0.040714  0  3.968209  0
C  C49  1  0.85296688  0.99698523  0.70573189  1  0  0.013616  0  3.741858  0  0  0.037447  0  3.983175  0  0  0.031467  0  4.008068  0  0  -0.008431  0.040711  0  3.968171  0
C  C50  1  0.05348195  0.86324013  0.37120830  1  0  0.074192  0  3.690133  0  0  0.034637  0  3.941573  0  0  0.040609  0  3.962425  0  0  0.042549  0.031114  0  3.927785  0
C  C51  1  0.94651804  0.13676282  0.62879236  1  0  0.074182  0  3.690215  0  0  0.034649  0  3.94161  0  0  0.040619  0  3.962462  0  0  0.042558  0.031126  0  3.927822  0
N  N52  1  0.92964168  0.82907569  0.33254159  1  0  -0.352704  0  3.303619  0  0  -0.269043  0  3.569968  0  0  -0.292206  0  3.592142  0  0  -0.336754  -0.25277  0  3.553088  0
N  N53  1  0.07035835  0.17092487  0.66745878  1  0  -0.352735  0  3.303746  0  0  -0.269082  0  3.570108  0  0  -0.292246  0  3.592285  0  0  -0.336795  -0.252809  0  3.553228  0
O  O54  1  0.73709571  0.38262779  0.35041507  1  0  -0.679405  0  2.033406  0  0  -0.604049  0  2.272954  0  0  -0.634459  0  2.261833  0  0  -0.3357  -0.581948  0  2.280308  0
O  O55  1  0.26290698  0.61736917  0.64958648  1  0  -0.67929  0  2.033451  0  0  -0.603985  0  2.27306  0  0  -0.634387  0  2.261936  0  0  -0.335657  -0.581882  0  2.280411  0
O  O56  1  0.82029380  0.59892122  0.14994179  1  0  -0.615284  0  1.906922  0  0  -0.55848  0  2.135144  0  0  -0.585113  0  2.128053  0  0  -0.316779  -0.539096  0  2.138677  0
O  O57  1  0.17971024  0.40107332  0.85005609  1  0  -0.615234  0  1.906955  0  0  -0.5584  0  2.135142  0  0  -0.585034  0  2.128052  0  0  -0.316768  -0.539022  0  2.138686  0
O  O58  1  0.65707901  0.42409675  0.66350418  1  0  -0.641775  0  2.02048  0  0  -0.571137  0  2.261785  0  0  -0.600665  0  2.25333  0  0  -0.313302  -0.549875  0  2.26743  0
O  O59  1  0.34292106  0.57590142  0.33649491  1  0  -0.641814  0  2.020474  0  0  -0.571168  0  2.261758  0  0  -0.600693  0  2.253301  0  0  -0.313299  -0.54991  0  2.267411  0
O  O60  1  0.88559085  0.53612405  0.65068125  1  0  -0.683374  0  2.011311  0  0  -0.612998  0  2.271742  0  0  -0.642813  0  2.25956  0  0  -0.335209  -0.591159  0  2.278899  0
O  O61  1  0.11440783  0.46387891  0.34931984  1  0  -0.683393  0  2.01129  0  0  -0.613042  0  2.271777  0  0  -0.642859  0  2.259595  0  0  -0.335217  -0.591193  0  2.278911  0
O  O62  1  0.45033111  0.04296667  0.19221405  1  0  -0.298987  0  2.292115  0  0  -0.228769  0  2.526106  0  0  -0.246245  0  2.528268  0  0  -0.187931  -0.216234  0  2.524231  0
O  O63  1  0.54966371  0.95703276  0.80778737  1  0  -0.298984  0  2.292011  0  0  -0.228727  0  2.525975  0  0  -0.246191  0  2.528142  0  0  -0.1879  -0.216193  0  2.524098  0
O  O64  1  0.55114892  0.71689440  0.41308506  1  0  -0.835994  0  1.857853  0  0  -0.779998  0  2.060526  0  0  -0.80206  0  2.026836  0  0  -0.590694  -0.76446  0  2.084313  0
O  O65  1  0.44885238  0.28310852  0.58691321  1  0  -0.835973  0  1.857905  0  0  -0.779969  0  2.060561  0  0  -0.802033  0  2.026867  0  0  -0.590663  -0.764431  0  2.08435  0
