# generated using pymatgen
data_ZnH16C24NO5
_symmetry_space_group_name_H-M   'P 1'
_cell_length_a   13.94785039
_cell_length_b   16.35325551
_cell_length_c   24.52033218
_cell_angle_alpha   89.99997245
_cell_angle_beta   90.00006025
_cell_angle_gamma   114.06843170
_symmetry_Int_Tables_number   1
_chemical_formula_structural   ZnH16C24NO5
_chemical_formula_sum   'Zn8 H128 C192 N8 O40'
_cell_volume   5106.65715695
_cell_formula_units_Z   8
loop_
 _symmetry_equiv_pos_site_id
 _symmetry_equiv_pos_as_xyz
  1  'x, y, z'
loop_
 _atom_site_type_symbol
 _atom_site_label
 _atom_site_symmetry_multiplicity
 _atom_site_fract_x
 _atom_site_fract_y
 _atom_site_fract_z
 _atom_site_occupancy
 _atom_site_pbe_bader_charge
 _atom_site_pbe_bader_spin_density
 _atom_site_pbe_cm5_charge
 _atom_site_pbe_ddec_charge
 _atom_site_pbe_ddec_spin_density
 _atom_site_pbe_ddec_sum_bond_order
 _atom_site_pbe_magmom
Zn  Zn0  1  0.01780922  0.70398313  0.33865110  1  1.314985  0  0.685214  0.868302  0  2.315404  0
Zn  Zn1  1  0.48218848  0.79601628  0.83865260  1  1.315009  0  0.685241  0.868362  0  2.315286  0
Zn  Zn2  1  0.98218789  0.29601638  0.66134732  1  1.314996  0  0.68522  0.868315  0  2.315389  0
Zn  Zn3  1  0.51781174  0.20398524  0.16134826  1  1.315003  0  0.685217  0.868309  0  2.315363  0
Zn  Zn4  1  0.88909057  0.48263061  0.33770850  1  1.281859  0  0.677554  0.809035  0  2.3629  0
Zn  Zn5  1  0.61091018  0.01736966  0.83771028  1  1.2819  0  0.67755  0.809084  0  2.362757  0
Zn  Zn6  1  0.11090798  0.51736890  0.66229155  1  1.281924  0  0.677528  0.80905  0  2.362845  0
Zn  Zn7  1  0.38909507  0.98263187  0.16229181  1  1.281977  0  0.677569  0.809118  0  2.362726  0
H  H8  1  0.13967944  0.83076457  0.25699316  1  0.131244  0  0.11799  0.086623  0  1.038698  0
H  H9  1  0.36031788  0.66923284  0.75699178  1  0.131251  0  0.11801  0.086676  0  1.038746  0
H  H10  1  0.86031919  0.16923360  0.74300689  1  0.131259  0  0.117997  0.086648  0  1.038667  0
H  H11  1  0.63968322  0.33076601  0.24300786  1  0.131209  0  0.118032  0.086718  0  1.038812  0
H  H12  1  0.16364941  0.97657659  0.21494396  1  0.100172  0  0.107483  0.123185  0  1.021889  0
H  H13  1  0.33634815  0.52342149  0.71494384  1  0.100119  0  0.107463  0.12316  0  1.021883  0
H  H14  1  0.83635097  0.02342226  0.78505568  1  0.100173  0  0.107476  0.123177  0  1.021901  0
H  H15  1  0.66365231  0.47657602  0.28505703  1  0.100074  0  0.107442  0.123137  0  1.021963  0
H  H16  1  0.91350648  0.97549582  0.32023191  1  0.066256  0  0.104409  0.107763  0  1.017285  0
H  H17  1  0.58649377  0.52450548  0.82023164  1  0.066265  0  0.104402  0.107748  0  1.017299  0
H  H18  1  0.08649454  0.02450437  0.67976691  1  0.066346  0  0.104389  0.107721  0  1.017293  0
H  H19  1  0.41350733  0.47549337  0.17977004  1  0.066092  0  0.104424  0.107771  0  1.017264  0
H  H20  1  0.90190452  0.82999825  0.35734685  1  0.087074  0  0.116174  0.085318  0  1.005193  0
H  H21  1  0.59809372  0.67000171  0.85734735  1  0.087079  0  0.116148  0.085283  0  1.005239  0
H  H22  1  0.09809339  0.16999993  0.64265280  1  0.087083  0  0.116164  0.08531  0  1.005237  0
H  H23  1  0.40190730  0.32999848  0.14265311  1  0.087102  0  0.116165  0.085316  0  1.005208  0
H  H24  1  0.11653073  0.10009868  0.20854858  1  0.07678  0  0.102454  0.103823  0  1.016006  0
H  H25  1  0.38346793  0.39989972  0.70854877  1  0.076759  0  0.102456  0.103839  0  1.016013  0
H  H26  1  0.88346918  0.89990218  0.79145065  1  0.076794  0  0.102495  0.103856  0  1.015994  0
H  H27  1  0.61653341  0.60010114  0.29145291  1  0.076696  0  0.102507  0.103927  0  1.015967  0
H  H28  1  0.97821150  0.11814819  0.30182816  1  0.043763  0  0.101169  0.095129  0  1.009644  0
H  H29  1  0.52178783  0.38185074  0.80182814  1  0.043767  0  0.101162  0.095124  0  1.009646  0
H  H30  1  0.02178889  0.88185065  0.69817148  1  0.043749  0  0.101166  0.095141  0  1.009604  0
H  H31  1  0.47821152  0.61814744  0.19817313  1  0.043968  0  0.101197  0.095177  0  1.009607  0
H  H32  1  0.13652065  0.22651423  0.17308453  1  0.062277  0  0.10016  0.099053  0  1.025974  0
H  H33  1  0.36347937  0.27348417  0.67308516  1  0.062226  0  0.10016  0.099068  0  1.026038  0
H  H34  1  0.86347909  0.77348328  0.82691430  1  0.062244  0  0.100174  0.099082  0  1.026022  0
H  H35  1  0.63652133  0.72651534  0.32691530  1  0.062269  0  0.100164  0.099052  0  1.026005  0
H  H36  1  0.19817353  0.38647755  0.15418429  1  0.070044  0  0.100679  0.094567  0  1.011766  0
H  H37  1  0.30182790  0.11352086  0.65418330  1  0.070147  0  0.100685  0.094564  0  1.011754  0
H  H38  1  0.80182478  0.61351996  0.84581454  1  0.070191  0  0.100678  0.094542  0  1.011766  0
H  H39  1  0.69817352  0.88647866  0.34581512  1  0.070045  0  0.100691  0.094583  0  1.011774  0
H  H40  1  0.05278329  0.42267655  0.30209741  1  0.109402  0  0.101194  0.105404  0  1.047566  0
H  H41  1  0.44721522  0.07732117  0.80209651  1  0.109447  0  0.101193  0.105425  0  1.047506  0
H  H42  1  0.94721391  0.57732162  0.69790142  1  0.109467  0  0.101208  0.105397  0  1.047502  0
H  H43  1  0.55278381  0.92267634  0.19790272  1  0.109467  0  0.1012  0.105427  0  1.047548  0
H  H44  1  0.99074339  0.26041205  0.32200894  1  0.063169  0  0.098342  0.095355  0  1.024633  0
H  H45  1  0.50925358  0.23958486  0.82200978  1  0.063178  0  0.098343  0.095358  0  1.024637  0
H  H46  1  0.00925381  0.73958612  0.67798907  1  0.063166  0  0.098332  0.095365  0  1.02461  0
H  H47  1  0.49074409  0.76041130  0.17799068  1  0.063187  0  0.098358  0.095368  0  1.024664  0
H  H48  1  0.14528310  0.54652065  0.25304791  1  0.0918  0  0.109739  0.115778  0  1.01088  0
H  H49  1  0.35471597  0.95347744  0.75304685  1  0.091826  0  0.109722  0.115781  0  1.010804  0
H  H50  1  0.85471449  0.45347686  0.74695091  1  0.091718  0  0.109714  0.11576  0  1.01086  0
H  H51  1  0.64528370  0.04652141  0.24695157  1  0.091789  0  0.109754  0.115804  0  1.01085  0
H  H52  1  0.22794413  0.52877950  0.13876034  1  0.038889  0  0.099773  0.097845  0  1.008169  0
H  H53  1  0.27205784  0.97122061  0.63875922  1  0.038832  0  0.099764  0.097843  0  1.008277  0
H  H54  1  0.77205896  0.47122203  0.86123930  1  0.038855  0  0.099752  0.097828  0  1.008187  0
H  H55  1  0.72794358  0.02877891  0.36124043  1  0.038907  0  0.099768  0.097847  0  1.00825  0
H  H56  1  0.35788891  0.83379752  0.08258654  1  0.150594  0  0.125374  0.109082  0  1.002707  0
H  H57  1  0.14210770  0.66620057  0.58258625  1  0.150567  0  0.125349  0.109044  0  1.002697  0
H  H58  1  0.64210653  0.16619998  0.91741392  1  0.150555  0  0.125365  0.109042  0  1.002736  0
H  H59  1  0.85789237  0.33379761  0.41741421  1  0.150579  0  0.125337  0.109037  0  1.002656  0
H  H60  1  0.29083590  0.66671291  0.08585771  1  0.063072  0  0.110048  0.118219  0  0.995062  0
H  H61  1  0.20916135  0.83328652  0.58585700  1  0.063407  0  0.110067  0.118247  0  0.995061  0
H  H62  1  0.70915978  0.33328659  0.91414316  1  0.063406  0  0.110074  0.118253  0  0.995096  0
H  H63  1  0.79083832  0.16671233  0.41414305  1  0.063278  0  0.1101  0.118301  0  0.995028  0
H  H64  1  0.22779710  0.68394574  0.25802338  1  0.162565  0  0.113696  0.134229  0  1.020251  0
H  H65  1  0.27220644  0.81605570  0.75802149  1  0.162592  0  0.113687  0.134149  0  1.020381  0
H  H66  1  0.77220392  0.31605445  0.74197789  1  0.162601  0  0.113709  0.134228  0  1.020278  0
H  H67  1  0.72779490  0.18394515  0.24197774  1  0.162586  0  0.113692  0.1342  0  1.020291  0
H  H68  1  0.30122492  0.84575713  0.24802270  1  0.148267  0  0.121191  0.099854  0  1.023658  0
H  H69  1  0.19877510  0.65424297  0.74802245  1  0.148287  0  0.121172  0.099833  0  1.02365  0
H  H70  1  0.69877538  0.15424306  0.75197735  1  0.148338  0  0.121181  0.099844  0  1.02362  0
H  H71  1  0.80122552  0.34575789  0.25197760  1  0.148332  0  0.121193  0.099843  0  1.023644  0
H  H72  1  0.21541392  0.78573390  0.49008914  1  0.085366  0  0.104035  0.106528  0  1.003489  0
H  H73  1  0.28458589  0.71426484  0.99009055  1  0.085329  0  0.10402  0.106501  0  1.003517  0
H  H74  1  0.78458933  0.21426496  0.50991091  1  0.085303  0  0.104023  0.106478  0  1.003514  0
H  H75  1  0.71541266  0.28573468  0.00991072  1  0.085351  0  0.10403  0.1065  0  1.003497  0
H  H76  1  0.37711946  0.84043337  0.54788163  1  0.071157  0  0.096868  0.106833  0  1.055067  0
H  H77  1  0.12287884  0.65956541  0.04788183  1  0.071121  0  0.096856  0.106867  0  1.055108  0
H  H78  1  0.62288339  0.15956616  0.45211802  1  0.071123  0  0.096864  0.106868  0  1.055054  0
H  H79  1  0.87711796  0.34043343  0.95211904  1  0.071142  0  0.096842  0.106834  0  1.055133  0
H  H80  1  0.56457016  0.86731231  0.40404146  1  0.080135  0  0.097395  0.104456  0  1.043143  0
H  H81  1  0.93543135  0.63268831  0.90404176  1  0.080158  0  0.097384  0.104453  0  1.043198  0
H  H82  1  0.43543293  0.13268922  0.59595737  1  0.080195  0  0.097344  0.104349  0  1.043264  0
H  H83  1  0.06457007  0.36731121  0.09595788  1  0.080146  0  0.097365  0.104391  0  1.043219  0
H  H84  1  0.40256919  0.81664806  0.34660296  1  0.056115  0  0.104453  0.106421  0  1.000929  0
H  H85  1  0.09743235  0.68335336  0.84660427  1  0.056145  0  0.104442  0.106425  0  1.000959  0
H  H86  1  0.59743374  0.18335614  0.65339627  1  0.055953  0  0.104431  0.106429  0  1.000964  0
H  H87  1  0.90256931  0.31664816  0.15339659  1  0.056118  0  0.104461  0.106427  0  1.000967  0
H  H88  1  0.66316723  0.04471485  0.66386355  1  0.111543  0  0.104943  0.1097  0  1.022169  0
H  H89  1  0.83683360  0.45528477  0.16386337  1  0.111531  0  0.104936  0.10969  0  1.022178  0
H  H90  1  0.33683387  0.95528400  0.33613650  1  0.111535  0  0.104935  0.10971  0  1.022152  0
H  H91  1  0.16316607  0.54471408  0.83613668  1  0.111557  0  0.104934  0.109667  0  1.022186  0
H  H92  1  0.66172901  0.03066077  0.56202969  1  0.09886  0  0.101459  0.11717  0  1.03429  0
H  H93  1  0.83827195  0.46933952  0.06202992  1  0.09887  0  0.101441  0.117152  0  1.034311  0
H  H94  1  0.33827272  0.96933942  0.43797077  1  0.098838  0  0.101455  0.117147  0  1.034282  0
H  H95  1  0.16172875  0.53065999  0.93797094  1  0.098872  0  0.101435  0.117136  0  1.03432  0
H  H96  1  0.48446295  0.74609435  0.57520104  1  0.107784  0  0.107227  0.126517  0  1.007578  0
H  H97  1  0.01553683  0.75390443  0.07520115  1  0.107805  0  0.107211  0.126467  0  1.007648  0
H  H98  1  0.51553847  0.25390517  0.42479901  1  0.107807  0  0.107216  0.126477  0  1.007591  0
H  H99  1  0.98446283  0.24609442  0.92479890  1  0.107778  0  0.107231  0.126528  0  1.00757  0
H  H100  1  0.48145839  0.76081639  0.67720333  1  0.09392  0  0.101315  0.103352  0  1.018684  0
H  H101  1  0.01853902  0.73918304  0.17720466  1  0.09391  0  0.101327  0.103363  0  1.018704  0
H  H102  1  0.51854271  0.23918246  0.32279591  1  0.093952  0  0.101289  0.103327  0  1.018693  0
H  H103  1  0.98145737  0.26081647  0.82279620  1  0.093896  0  0.101308  0.103348  0  1.018681  0
H  H104  1  0.80019267  0.74176852  0.43675358  1  0.10612  0  0.106046  0.108733  0  1.000406  0
H  H105  1  0.69980723  0.75823010  0.93675208  1  0.106097  0  0.106067  0.108775  0  1.000383  0
H  H106  1  0.19981010  0.25823234  0.56324728  1  0.106148  0  0.106071  0.108783  0  1.000448  0
H  H107  1  0.30019092  0.24177009  0.06324756  1  0.106106  0  0.106064  0.108789  0  1.000435  0
H  H108  1  0.65023383  0.76344603  0.48216564  1  0.093725  0  0.108054  0.128637  0  1.003437  0
H  H109  1  0.84976607  0.73655392  0.98216546  1  0.093683  0  0.108066  0.128657  0  1.003431  0
H  H110  1  0.34976719  0.23655416  0.51783522  1  0.093694  0  0.108072  0.128656  0  1.003412  0
H  H111  1  0.15023279  0.26344627  0.01783418  1  0.09373  0  0.108056  0.12865  0  1.003418  0
H  H112  1  0.44411173  0.49340834  0.43930283  1  0.114311  0  0.111551  0.130374  0  0.985463  0
H  H113  1  0.05588654  0.00659137  0.93930581  1  0.114338  0  0.111574  0.130388  0  0.985442  0
H  H114  1  0.55588912  0.50659452  0.56069355  1  0.114272  0  0.11155  0.130347  0  0.985451  0
H  H115  1  0.94411065  0.99340680  0.06069506  1  0.114295  0  0.111547  0.130357  0  0.985453  0
H  H116  1  0.59333215  0.47216488  0.39488260  1  0.095353  0  0.107175  0.110563  0  0.997165  0
H  H117  1  0.90666615  0.02783605  0.89488496  1  0.09541  0  0.107203  0.110633  0  0.997109  0
H  H118  1  0.40666903  0.52783866  0.60511419  1  0.095356  0  0.10719  0.110605  0  0.997072  0
H  H119  1  0.09333168  0.97216346  0.10511509  1  0.095367  0  0.107219  0.110665  0  0.997052  0
H  H120  1  0.10503603  0.52631368  0.50226598  1  0.163079  0  0.10687  0.126736  0  1.041211  0
H  H121  1  0.39496314  0.97368711  0.00226543  1  0.163139  0  0.106872  0.126677  0  1.041252  0
H  H122  1  0.89496435  0.47368517  0.49773488  1  0.163073  0  0.106868  0.126684  0  1.041254  0
H  H123  1  0.60503501  0.02631307  0.99773421  1  0.163186  0  0.106857  0.126651  0  1.04127  0
H  H124  1  0.28410025  0.57818720  0.54291433  1  0.080644  0  0.103573  0.121912  0  1.018903  0
H  H125  1  0.21589915  0.92181090  0.04291369  1  0.080634  0  0.103601  0.121994  0  1.018818  0
H  H126  1  0.71589870  0.42181164  0.45708612  1  0.080629  0  0.10362  0.121964  0  1.018838  0
H  H127  1  0.78409924  0.07818527  0.95708554  1  0.080676  0  0.103576  0.121901  0  1.018918  0
H  H128  1  0.41962137  0.63637159  0.38181092  1  0.084126  0  0.102571  0.116146  0  1.01201  0
H  H129  1  0.08037784  0.86362782  0.88181135  1  0.084172  0  0.102569  0.116171  0  1.011951  0
H  H130  1  0.58037789  0.36362792  0.61818831  1  0.084168  0  0.102574  0.11616  0  1.011989  0
H  H131  1  0.91962142  0.13637170  0.11818829  1  0.084181  0  0.102564  0.11615  0  1.012027  0
H  H132  1  0.24078783  0.58682423  0.34173026  1  0.049745  0  0.102413  0.104881  0  1.009421  0
H  H133  1  0.25921092  0.91317586  0.84173037  1  0.049663  0  0.102413  0.104911  0  1.009382  0
H  H134  1  0.75921183  0.41317462  0.65826979  1  0.049922  0  0.10241  0.104874  0  1.009462  0
H  H135  1  0.74078620  0.08682365  0.15826886  1  0.049669  0  0.102457  0.104908  0  1.00944  0
C  C136  1  0.09172738  0.86580356  0.26944689  1  0.410687  0  0.049735  0.107403  0  3.941756  0
C  C137  1  0.40826885  0.63419452  0.76944718  1  0.410648  0  0.04972  0.107345  0  3.941822  0
C  C138  1  0.90827053  0.13419461  0.73055112  1  0.410731  0  0.049716  0.107358  0  3.941776  0
C  C139  1  0.59173361  0.36580567  0.23055409  1  0.410644  0  0.049672  0.107271  0  3.941929  0
C  C140  1  0.10411259  0.94679108  0.24632321  1  0.015029  0  -0.08195  -0.173879  0  3.902052  0
C  C141  1  0.39588463  0.55320767  0.74632312  1  0.015044  0  -0.081987  -0.173944  0  3.902118  0
C  C142  1  0.89588532  0.05320709  0.75367602  1  0.015038  0  -0.082018  -0.173958  0  3.902127  0
C  C143  1  0.60411511  0.44678984  0.25367897  1  0.01512  0  -0.081961  -0.173905  0  3.902198  0
C  C144  1  0.04228000  0.99105746  0.26478297  1  0.019918  0  0.010309  0.159307  0  4.022297  0
C  C145  1  0.45771869  0.50894130  0.76478211  1  0.01978  0  0.010306  0.159346  0  4.022249  0
C  C146  1  0.95771967  0.00894139  0.73521667  1  0.019714  0  0.010283  0.159261  0  4.022393  0
C  C147  1  0.54227970  0.49105487  0.23522039  1  0.019623  0  0.010345  0.15944  0  4.022112  0
C  C148  1  0.96668789  0.94696156  0.30516607  1  -0.039133  0  -0.08639  -0.183669  0  3.941991  0
C  C149  1  0.53331209  0.55303773  0.80516616  1  -0.039116  0  -0.086368  -0.183634  0  3.941939  0
C  C150  1  0.03331185  0.05303595  0.69483357  1  -0.039285  0  -0.086348  -0.183553  0  3.941798  0
C  C151  1  0.46668765  0.44695977  0.19483634  1  -0.038887  0  -0.086391  -0.183667  0  3.941901  0
C  C152  1  0.95930429  0.86581304  0.32606180  1  0.486887  0  0.044916  0.092494  0  3.973074  0
C  C153  1  0.54069533  0.63418692  0.82606228  1  0.486806  0  0.044924  0.092516  0  3.973111  0
C  C154  1  0.04069394  0.13418581  0.67393662  1  0.486876  0  0.044926  0.092478  0  3.972956  0
C  C155  1  0.45930433  0.36581192  0.17393899  1  0.486785  0  0.044932  0.092501  0  3.973112  0
C  C156  1  0.06282148  0.07945392  0.24330788  1  -0.020928  0  -0.088335  -0.135996  0  3.96447  0
C  C157  1  0.43717788  0.42054582  0.74330769  1  -0.020793  0  -0.088355  -0.136049  0  3.964505  0
C  C158  1  0.93717882  0.92054627  0.75669176  1  -0.020786  0  -0.088359  -0.136038  0  3.96445  0
C  C159  1  0.56282075  0.57945236  0.25669440  1  -0.020796  0  -0.088381  -0.136176  0  3.964614  0
C  C160  1  0.02868863  0.13841510  0.26574598  1  -0.05704  0  -0.078168  -0.101664  0  3.97432  0
C  C161  1  0.47131077  0.36158463  0.76574623  1  -0.057005  0  -0.078147  -0.101619  0  3.97428  0
C  C162  1  0.97131064  0.86158441  0.73425326  1  -0.057017  0  -0.078143  -0.101647  0  3.974149  0
C  C163  1  0.52868826  0.63841288  0.23425585  1  -0.057149  0  -0.078247  -0.101733  0  3.974317  0
C  C164  1  0.05934643  0.23102978  0.24958224  1  -0.044891  0  -0.008346  0.107821  0  4.032644  0
C  C165  1  0.44065413  0.26896794  0.74958251  1  -0.044931  0  -0.00831  0.107828  0  4.032705  0
C  C166  1  0.94065260  0.76896772  0.75041699  1  -0.044937  0  -0.008335  0.107935  0  4.032584  0
C  C167  1  0.55934593  0.73103023  0.25041795  1  -0.044872  0  -0.008306  0.107892  0  4.032614  0
C  C168  1  0.11741508  0.26870395  0.20174807  1  0.038112  0  -0.083608  -0.118101  0  3.953207  0
C  C169  1  0.38258595  0.23129646  0.70174791  1  0.038081  0  -0.083649  -0.118207  0  3.953331  0
C  C170  1  0.88258450  0.73129623  0.79825116  1  0.03808  0  -0.083665  -0.118255  0  3.95331  0
C  C171  1  0.61741331  0.76870306  0.29825295  1  0.038037  0  -0.083603  -0.118107  0  3.953171  0
C  C172  1  0.15159897  0.35924842  0.19082204  1  -0.098379  0  -0.084781  -0.122856  0  3.98317  0
C  C173  1  0.34840172  0.14075133  0.69082188  1  -0.098346  0  -0.084764  -0.122783  0  3.983174  0
C  C174  1  0.84839894  0.64074976  0.80917638  1  -0.098466  0  -0.084756  -0.122788  0  3.983068  0
C  C175  1  0.65159858  0.85924886  0.30917817  1  -0.098236  0  -0.084821  -0.122932  0  3.983176  0
C  C176  1  0.12863939  0.41662478  0.22668409  1  0.027315  0  -0.009449  0.104505  0  4.029246  0
C  C177  1  0.37136241  0.08337562  0.72668397  1  0.027175  0  -0.009449  0.104516  0  4.029411  0
C  C178  1  0.87135781  0.58337339  0.77331392  1  0.027154  0  -0.009446  0.104533  0  4.029318  0
C  C179  1  0.62863965  0.91662523  0.27331649  1  0.027214  0  -0.009435  0.104581  0  4.029268  0
C  C180  1  0.06988387  0.37873510  0.27395791  1  -0.028428  0  -0.082719  -0.111781  0  3.939993  0
C  C181  1  0.43011386  0.12126262  0.77395822  1  -0.028541  0  -0.082756  -0.111858  0  3.940087  0
C  C182  1  0.93011053  0.62126173  0.72603969  1  -0.028401  0  -0.082775  -0.111798  0  3.940031  0
C  C183  1  0.56988652  0.87873623  0.22604183  1  -0.02851  0  -0.082714  -0.111798  0  3.93999  0
C  C184  1  0.03547214  0.28807041  0.28490475  1  -0.0834  0  -0.086168  -0.119684  0  3.969159  0
C  C185  1  0.46452498  0.21192597  0.78490546  1  -0.083271  0  -0.086169  -0.119649  0  3.969224  0
C  C186  1  0.96452162  0.71192508  0.71509408  1  -0.083294  0  -0.086104  -0.119693  0  3.969133  0
C  C187  1  0.53547261  0.78807153  0.21509622  1  -0.083367  0  -0.086208  -0.119739  0  3.969269  0
C  C188  1  0.16360760  0.51228790  0.21886038  1  -0.067912  0  -0.071018  -0.090879  0  3.945388  0
C  C189  1  0.33639515  0.98771354  0.71885807  1  -0.067834  0  -0.070969  -0.090835  0  3.945245  0
C  C190  1  0.83639095  0.48771161  0.78113967  1  -0.067849  0  -0.070976  -0.090873  0  3.945324  0
C  C191  1  0.66360619  0.01228732  0.28114035  1  -0.067898  0  -0.071041  -0.090946  0  3.945338  0
C  C192  1  0.21395537  0.56152713  0.17496742  1  -0.042674  0  -0.094549  -0.152462  0  3.984026  0
C  C193  1  0.28604746  0.93847164  0.67496510  1  -0.042597  0  -0.094563  -0.152539  0  3.984102  0
C  C194  1  0.78604565  0.43847306  0.82503344  1  -0.042636  0  -0.094545  -0.152439  0  3.983971  0
C  C195  1  0.71395332  0.06152654  0.32503373  1  -0.042696  0  -0.094535  -0.152453  0  3.984015  0
C  C196  1  0.32725593  0.79664740  0.12014149  1  0.411996  0  0.047805  0.091977  0  3.935866  0
C  C197  1  0.17274425  0.70335204  0.62014080  1  0.412021  0  0.047818  0.092051  0  3.935759  0
C  C198  1  0.67274087  0.20335144  0.87985856  1  0.412052  0  0.047843  0.092142  0  3.93583  0
C  C199  1  0.82725716  0.29664748  0.37985843  1  0.411957  0  0.047814  0.092053  0  3.935821  0
C  C200  1  0.28999118  0.70400978  0.12260720  1  -0.025859  0  -0.085759  -0.190226  0  3.947171  0
C  C201  1  0.21000892  0.79599099  0.62260610  1  -0.02678  0  -0.085797  -0.190354  0  3.947034  0
C  C202  1  0.71000553  0.29599040  0.87739325  1  -0.026192  0  -0.085834  -0.19042  0  3.947213  0
C  C203  1  0.78999138  0.20400919  0.37739313  1  -0.026476  0  -0.085827  -0.190418  0  3.947247  0
C  C204  1  0.25139220  0.65836284  0.17205841  1  -0.020408  0  0.009931  0.151447  0  4.033613  0
C  C205  1  0.24861198  0.84163727  0.67205690  1  -0.019987  0  0.009928  0.151504  0  4.033491  0
C  C206  1  0.74860850  0.34163668  0.82794328  1  -0.020438  0  0.009861  0.151373  0  4.033456  0
C  C207  1  0.75138936  0.15836359  0.32794315  1  -0.019975  0  0.009908  0.151417  0  4.033577  0
C  C208  1  0.25459423  0.71167484  0.21773111  1  -0.009334  0  -0.076056  -0.159262  0  3.886833  0
C  C209  1  0.24541171  0.78832728  0.71773044  1  -0.008921  0  -0.076024  -0.159147  0  3.88684  0
C  C210  1  0.74540823  0.28832535  0.78226935  1  -0.009268  0  -0.075978  -0.159144  0  3.886688  0
C  C211  1  0.75458963  0.21167358  0.28226921  1  -0.008917  0  -0.07596  -0.159097  0  3.886626  0
C  C212  1  0.29492536  0.80380157  0.21250564  1  0.420355  0  0.045863  0.089827  0  3.934293  0
C  C213  1  0.20507841  0.69620054  0.71250498  1  0.419925  0  0.045878  0.089812  0  3.934235  0
C  C214  1  0.70507558  0.19619996  0.78749481  1  0.420213  0  0.045862  0.089827  0  3.934295  0
C  C215  1  0.79492476  0.30379965  0.28749426  1  0.419854  0  0.045782  0.089749  0  3.934281  0
C  C216  1  0.20300317  0.76563097  0.38025254  1  1.5226  0  0.191847  0.556566  0  4.229829  0
C  C217  1  0.29699660  0.73437112  0.88025436  1  1.522554  0  0.191836  0.556384  0  4.229994  0
C  C218  1  0.79699808  0.23437122  0.61974711  1  1.522373  0  0.191776  0.55634  0  4.229934  0
C  C219  1  0.70300211  0.26563174  0.11974732  1  1.522387  0  0.191793  0.556416  0  4.229931  0
C  C220  1  0.29878419  0.79792636  0.41493969  1  -0.042018  0  -0.027486  -0.061123  0  3.996775  0
C  C221  1  0.20121540  0.70207372  0.91494024  1  -0.04193  0  -0.027499  -0.061027  0  3.996691  0
C  C222  1  0.70121906  0.20207852  0.58505995  1  -0.041927  0  -0.027493  -0.06094  0  3.996647  0
C  C223  1  0.79878211  0.29792513  0.08506062  1  -0.04193  0  -0.027493  -0.061009  0  3.99659  0
C  C224  1  0.29260884  0.80465387  0.47163631  1  0.003171  0  -0.081305  -0.066505  0  3.993997  0
C  C225  1  0.20739157  0.69534620  0.97163850  1  0.002544  0  -0.081285  -0.066462  0  3.993928  0
C  C226  1  0.70739281  0.19534765  0.52836211  1  0.002602  0  -0.081314  -0.066508  0  3.993987  0
C  C227  1  0.79260984  0.30465332  0.02836277  1  0.003126  0  -0.081305  -0.066484  0  3.993946  0
C  C228  1  0.38264295  0.83476633  0.50390506  1  -0.013184  0  -0.113382  -0.23148  0  4.017427  0
C  C229  1  0.11735846  0.66523313  0.00390648  1  -0.012603  0  -0.113457  -0.231695  0  4.017564  0
C  C230  1  0.61735879  0.16523386  0.49609417  1  -0.012595  0  -0.113398  -0.231571  0  4.017435  0
C  C231  1  0.88264232  0.33476505  0.99609398  1  -0.01312  0  -0.113398  -0.23152  0  4.017526  0
C  C232  1  0.48021548  0.85585514  0.47905877  1  0.380027  0  0.08969  0.278355  0  4.030865  0
C  C233  1  0.01978446  0.64414694  0.97906005  1  0.380067  0  0.089848  0.278593  0  4.030522  0
C  C234  1  0.51978705  0.14414973  0.52094006  1  0.379995  0  0.089742  0.278468  0  4.030606  0
C  C235  1  0.98021600  0.35585057  0.02094000  1  0.380037  0  0.089732  0.278382  0  4.030712  0
C  C236  1  0.48779198  0.85010601  0.42241394  1  -0.036697  0  -0.107751  -0.208342  0  4.008156  0
C  C237  1  0.01220818  0.64989674  0.92241359  1  -0.036741  0  -0.107773  -0.208394  0  4.008055  0
C  C238  1  0.51220975  0.14990020  0.57758529  1  -0.036748  0  -0.107716  -0.20826  0  4.008103  0
C  C239  1  0.98779116  0.35010143  0.07758606  1  -0.036718  0  -0.107764  -0.208299  0  4.008082  0
C  C240  1  0.39776557  0.82186162  0.39074062  1  0.025781  0  -0.079115  -0.061231  0  3.993418  0
C  C241  1  0.10223351  0.67814047  0.89074153  1  0.025726  0  -0.079127  -0.061288  0  3.993577  0
C  C242  1  0.60223410  0.17814325  0.60925780  1  0.025938  0  -0.079082  -0.061308  0  3.99351  0
C  C243  1  0.89776648  0.32185905  0.10925893  1  0.025755  0  -0.079129  -0.061286  0  3.993426  0
C  C244  1  0.56543953  0.91262011  0.73706100  1  1.580431  0  0.219888  0.601201  0  4.160775  0
C  C245  1  0.93455953  0.58738052  0.23706060  1  1.580434  0  0.219843  0.60112  0  4.16079  0
C  C246  1  0.43455870  0.08737873  0.26293905  1  1.580451  0  0.219961  0.601292  0  4.160752  0
C  C247  1  0.06544308  0.41262301  0.76293864  1  1.580717  0  0.21996  0.601379  0  4.160582  0
C  C248  1  0.57089166  0.90372467  0.67663931  1  -0.00254  0  -0.026977  -0.062193  0  3.9878  0
C  C249  1  0.92910729  0.59627598  0.17663971  1  -0.002572  0  -0.027019  -0.062225  0  3.987864  0
C  C250  1  0.42911016  0.09627418  0.32335992  1  -0.002568  0  -0.026956  -0.062154  0  3.987818  0
C  C251  1  0.07089086  0.40372421  0.82336074  1  -0.002447  0  -0.026983  -0.062212  0  3.987838  0
C  C252  1  0.62394907  0.97957968  0.64441300  1  -0.033539  0  -0.080562  -0.064524  0  3.964367  0
C  C253  1  0.87605062  0.52041962  0.14441339  1  -0.033578  0  -0.080574  -0.064541  0  3.964355  0
C  C254  1  0.37605194  0.02042050  0.35558624  1  -0.033549  0  -0.080589  -0.064633  0  3.964426  0
C  C255  1  0.12394937  0.47957989  0.85558788  1  -0.033584  0  -0.080572  -0.06454  0  3.964382  0
C  C256  1  0.62401668  0.97209428  0.58787339  1  0.020932  0  -0.099677  -0.189298  0  3.978618  0
C  C257  1  0.87598506  0.52790504  0.08787419  1  0.020924  0  -0.099635  -0.189234  0  3.97848  0
C  C258  1  0.37598473  0.02790524  0.41212585  1  0.020932  0  -0.099605  -0.189138  0  3.978443  0
C  C259  1  0.12401748  0.47209381  0.91212708  1  0.020907  0  -0.099642  -0.18921  0  3.97856  0
C  C260  1  0.57209583  0.88831380  0.56384516  1  0.406804  0  0.083896  0.260052  0  4.03678  0
C  C261  1  0.92790722  0.61168687  0.06384638  1  0.407258  0  0.083859  0.260023  0  4.036795  0
C  C262  1  0.42790590  0.11168639  0.43615366  1  0.406978  0  0.083872  0.260017  0  4.036808  0
C  C263  1  0.07209675  0.38831199  0.93615449  1  0.407058  0  0.083931  0.26011  0  4.036789  0
C  C264  1  0.52251026  0.81096920  0.59523584  1  -0.038959  0  -0.101894  -0.205191  0  3.99627  0
C  C265  1  0.97749038  0.68903078  0.09523706  1  -0.039009  0  -0.10186  -0.205063  0  3.996372  0
C  C266  1  0.47749148  0.18903099  0.40476217  1  -0.039046  0  -0.101856  -0.205086  0  3.996397  0
C  C267  1  0.02251008  0.31096673  0.90476258  1  -0.039056  0  -0.101901  -0.205186  0  3.996396  0
C  C268  1  0.52130054  0.81948531  0.65166208  1  -0.084768  0  -0.084196  -0.067206  0  3.979564  0
C  C269  1  0.97869733  0.68051467  0.15166330  1  -0.08481  0  -0.084186  -0.067258  0  3.979637  0
C  C270  1  0.47869912  0.18051354  0.34833756  1  -0.08482  0  -0.084203  -0.067244  0  3.979657  0
C  C271  1  0.02130130  0.31948351  0.84833838  1  -0.084826  0  -0.084185  -0.067199  0  3.979675  0
C  C272  1  0.79427474  0.59467686  0.38430652  1  1.554689  0  0.221475  0.598676  0  4.178863  0
C  C273  1  0.70572546  0.90532711  0.88430905  1  1.554646  0  0.221483  0.598547  0  4.179058  0
C  C274  1  0.20572532  0.40532734  0.61569312  1  1.554492  0  0.221462  0.59862  0  4.179044  0
C  C275  1  0.29427747  0.09467710  0.11569508  1  1.554494  0  0.221547  0.598814  0  4.178858  0
C  C276  1  0.70562800  0.60648913  0.41197373  1  -0.058418  0  -0.031519  -0.076643  0  4.017737  0
C  C277  1  0.79437178  0.89351082  0.91197510  1  -0.05857  0  -0.031502  -0.07654  0  4.017795  0
C  C278  1  0.29437119  0.39351172  0.58802713  1  -0.058336  0  -0.031506  -0.076508  0  4.017755  0
C  C279  1  0.20562996  0.10648937  0.08802862  1  -0.058325  0  -0.031479  -0.076573  0  4.017845  0
C  C280  1  0.72165247  0.68807625  0.43721156  1  -0.008507  0  -0.082527  -0.072184  0  3.998235  0
C  C281  1  0.77834591  0.81192370  0.93721130  1  -0.008528  0  -0.082592  -0.072289  0  3.998292  0
C  C282  1  0.27834783  0.31192394  0.56279013  1  -0.008491  0  -0.082571  -0.072297  0  3.998342  0
C  C283  1  0.22165399  0.18807716  0.06278997  1  -0.008517  0  -0.082602  -0.072337  0  3.998308  0
C  C284  1  0.63926250  0.70031620  0.46269079  1  -0.020806  0  -0.102415  -0.203649  0  3.981054  0
C  C285  1  0.86073466  0.79968106  0.96269019  1  -0.020816  0  -0.102425  -0.203674  0  3.980921  0
C  C286  1  0.36073820  0.29968332  0.53731089  1  -0.02081  0  -0.102425  -0.203637  0  3.980965  0
C  C287  1  0.13926325  0.20031711  0.03731109  1  -0.020775  0  -0.102427  -0.203666  0  3.980934  0
C  C288  1  0.53948239  0.62997333  0.46249787  1  0.394349  0  0.089912  0.266967  0  4.044765  0
C  C289  1  0.96051572  0.87002595  0.96249894  1  0.394061  0  0.089945  0.26705  0  4.044652  0
C  C290  1  0.46051823  0.37002753  0.53750136  1  0.394122  0  0.089907  0.266987  0  4.04472  0
C  C291  1  0.03948171  0.12997423  0.03750315  1  0.394353  0  0.089946  0.267051  0  4.044614  0
C  C292  1  0.52222805  0.54757946  0.43823230  1  -0.034806  0  -0.099719  -0.206807  0  4.008419  0
C  C293  1  0.97777065  0.95242116  0.93823498  1  -0.034523  0  -0.09977  -0.206847  0  4.008343  0
C  C294  1  0.47777209  0.45242340  0.56176611  1  -0.034522  0  -0.099715  -0.206773  0  4.008378  0
C  C295  1  0.02222829  0.04757769  0.06176751  1  -0.034711  0  -0.099706  -0.206776  0  4.00834  0
C  C296  1  0.60530717  0.53615652  0.41337174  1  -0.029571  0  -0.081515  -0.069536  0  3.999981  0
C  C297  1  0.89469149  0.96384410  0.91337355  1  -0.029612  0  -0.081555  -0.06965  0  3.999933  0
C  C298  1  0.39469058  0.46384433  0.58662709  1  -0.029658  0  -0.081572  -0.069653  0  3.99991  0
C  C299  1  0.10531057  0.03615676  0.08662813  1  -0.029678  0  -0.081623  -0.069747  0  4.000049  0
C  C300  1  0.05529715  0.52469270  0.39598478  1  1.52499  0  0.198036  0.562845  0  4.199029  0
C  C301  1  0.44470241  0.97531340  0.89598458  1  1.525605  0  0.198028  0.56277  0  4.199096  0
C  C302  1  0.94469868  0.47531015  0.60401690  1  1.524919  0  0.198137  0.563047  0  4.199066  0
C  C303  1  0.55529941  0.02469148  0.10401384  1  1.524999  0  0.198037  0.562733  0  4.198965  0
C  C304  1  0.16185615  0.55274024  0.41940782  1  -0.062975  0  -0.026769  -0.052121  0  4.001509  0
C  C305  1  0.33814369  0.94726185  0.91940756  1  -0.062939  0  -0.026766  -0.052152  0  4.001599  0
C  C306  1  0.83814208  0.44725861  0.58059223  1  -0.06295  0  -0.026862  -0.052372  0  4.001762  0
C  C307  1  0.66185900  0.05274035  0.08059127  1  -0.06298  0  -0.026758  -0.052125  0  4.001492  0
C  C308  1  0.17406538  0.55006429  0.47605306  1  -0.025853  0  -0.077961  -0.061343  0  3.930421  0
C  C309  1  0.32593353  0.94993712  0.97605442  1  -0.025868  0  -0.07791  -0.061155  0  3.930345  0
C  C310  1  0.82593469  0.44993389  0.52394618  1  -0.025873  0  -0.077929  -0.061239  0  3.930491  0
C  C311  1  0.67406669  0.05006440  0.02394522  1  -0.02602  0  -0.077962  -0.061235  0  3.930454  0
C  C312  1  0.27383839  0.57940323  0.49889250  1  0.038396  0  -0.102536  -0.199514  0  3.981472  0
C  C313  1  0.22616207  0.92059684  0.99889381  1  0.038288  0  -0.102556  -0.199631  0  3.98139  0
C  C314  1  0.72616207  0.42059428  0.50110633  1  0.038399  0  -0.102544  -0.199406  0  3.981339  0
C  C315  1  0.77383831  0.07940201  0.00110665  1  0.03833  0  -0.102464  -0.199381  0  3.981477  0
C  C316  1  0.36121068  0.60976647  0.46455285  1  0.328444  0  0.085598  0.259309  0  4.035411  0
C  C317  1  0.13878932  0.89023427  0.96455208  1  0.32849  0  0.085532  0.259283  0  4.035469  0
C  C318  1  0.63878898  0.39023238  0.53544883  1  0.328877  0  0.085534  0.25915  0  4.035518  0
C  C319  1  0.86120931  0.10976390  0.03544797  1  0.328828  0  0.085533  0.259208  0  4.035468  0
C  C320  1  0.35046158  0.61137491  0.40790353  1  -0.020334  0  -0.106305  -0.213786  0  4.030852  0
C  C321  1  0.14953696  0.88862450  0.90790359  1  -0.02046  0  -0.106339  -0.213867  0  4.030908  0
C  C322  1  0.64953712  0.38862193  0.59209692  1  -0.020503  0  -0.106373  -0.213819  0  4.030916  0
C  C323  1  0.85046302  0.11137502  0.09209646  1  -0.020446  0  -0.106347  -0.213835  0  4.030924  0
C  C324  1  0.25058852  0.58339129  0.38561384  1  0.028128  0  -0.084422  -0.067802  0  3.990245  0
C  C325  1  0.24940879  0.91661012  0.88561436  1  0.02826  0  -0.084391  -0.067782  0  3.99028  0
C  C326  1  0.74940812  0.41660420  0.61438661  1  0.027962  0  -0.084315  -0.067667  0  3.99025  0
C  C327  1  0.75058936  0.08339006  0.11438569  1  0.028235  0  -0.084451  -0.067818  0  3.99028  0
N  N328  1  0.02155078  0.82577883  0.30917839  1  -1.237946  0  -0.326906  -0.236508  0  3.534571  0
N  N329  1  0.47844615  0.67422058  0.80917953  1  -1.237792  0  -0.326844  -0.236444  0  3.534477  0
N  N330  1  0.97844569  0.17421934  0.69081880  1  -1.237863  0  -0.326836  -0.236422  0  3.534502  0
N  N331  1  0.52155415  0.32577960  0.19082134  1  -1.237738  0  -0.326855  -0.236457  0  3.534471  0
N  N332  1  0.33018120  0.84654190  0.16457277  1  -1.255557  0  -0.336949  -0.243687  0  3.566765  0
N  N333  1  0.16982145  0.65345955  0.66457292  1  -1.255534  0  -0.336916  -0.24363  0  3.566794  0
N  N334  1  0.66981902  0.15345963  0.83542728  1  -1.255596  0  -0.336936  -0.243725  0  3.566911  0
N  N335  1  0.83018204  0.34654131  0.33542673  1  -1.255544  0  -0.336883  -0.243613  0  3.566811  0
O  O336  1  0.21141773  0.76783478  0.32884459  1  -1.171982  0  -0.319913  -0.568221  0  2.210429  0
O  O337  1  0.28858250  0.73216999  0.82884600  1  -1.171882  0  -0.31983  -0.568043  0  2.210364  0
O  O338  1  0.78858448  0.23216942  0.67115465  1  -1.171952  0  -0.319829  -0.568072  0  2.21047  0
O  O339  1  0.71141437  0.26783354  0.17115568  1  -1.17198  0  -0.319843  -0.568139  0  2.210401  0
O  O340  1  0.11229231  0.73563154  0.40405276  1  -1.158214  0  -0.335399  -0.54935  0  2.233744  0
O  O341  1  0.38770750  0.76437055  0.90405422  1  -1.15826  0  -0.335449  -0.549357  0  2.233828  0
O  O342  1  0.88770751  0.26436463  0.59594606  1  -1.158093  0  -0.335425  -0.549342  0  2.233752  0
O  O343  1  0.61229384  0.23563633  0.09594624  1  -1.158069  0  -0.335397  -0.549323  0  2.233819  0
O  O344  1  0.57401550  0.88432005  0.50712407  1  -1.132777  0  -0.159646  -0.2297  0  2.552975  0
O  O345  1  0.92598482  0.61568262  0.00712447  1  -1.133071  0  -0.159657  -0.229743  0  2.55294  0
O  O346  1  0.42598640  0.11568348  0.49287598  1  -1.132744  0  -0.159667  -0.229765  0  2.552963  0
O  O347  1  0.07401580  0.38431222  0.99287599  1  -1.13293  0  -0.159638  -0.229771  0  2.553024  0
O  O348  1  0.62084423  0.98880646  0.75825158  1  -1.181281  0  -0.318581  -0.54495  0  2.338425  0
O  O349  1  0.87915671  0.51119351  0.25825158  1  -1.181251  0  -0.318577  -0.544946  0  2.338465  0
O  O350  1  0.37915408  0.01119105  0.24174888  1  -1.181336  0  -0.318637  -0.545075  0  2.338466  0
O  O351  1  0.12084694  0.48881069  0.74175010  1  -1.181366  0  -0.318625  -0.545068  0  2.338443  0
O  O352  1  0.50465102  0.84304381  0.76271073  1  -1.185449  0  -0.31362  -0.554804  0  2.426543  0
O  O353  1  0.99534881  0.65695682  0.26271074  1  -1.185441  0  -0.313558  -0.554681  0  2.426555  0
O  O354  1  0.49534442  0.15695369  0.23728810  1  -1.185414  0  -0.31364  -0.554769  0  2.426592  0
O  O355  1  0.00465588  0.34304806  0.73728767  1  -1.185596  0  -0.313615  -0.554825  0  2.426427  0
O  O356  1  0.87817939  0.66433143  0.37690329  1  -1.189589  0  -0.312662  -0.548237  0  2.374356  0
O  O357  1  0.62181968  0.83567321  0.87690497  1  -1.189433  0  -0.312681  -0.548246  0  2.374378  0
O  O358  1  0.12181908  0.33567544  0.62309676  1  -1.189482  0  -0.312606  -0.548223  0  2.374419  0
O  O359  1  0.37818046  0.16432965  0.12309793  1  -1.189597  0  -0.312659  -0.548265  0  2.37438  0
O  O360  1  0.77858794  0.51493104  0.36968723  1  -1.176354  0  -0.317313  -0.545892  0  2.368577  0
O  O361  1  0.72141591  0.98507160  0.86969056  1  -1.176318  0  -0.317309  -0.545825  0  2.368733  0
O  O362  1  0.22141603  0.48507383  0.63031160  1  -1.176337  0  -0.317338  -0.545891  0  2.368615  0
O  O363  1  0.27858782  0.01493127  0.13031398  1  -1.17635  0  -0.317379  -0.54599  0  2.368454  0
O  O364  1  0.45976360  0.64316215  0.48904847  1  -1.096848  0  -0.15126  -0.22121  0  2.569381  0
O  O365  1  0.04023629  0.85683524  0.98904847  1  -1.096865  0  -0.151241  -0.221241  0  2.569347  0
O  O366  1  0.54023854  0.35683737  0.51095199  1  -1.097237  0  -0.151236  -0.221242  0  2.569419  0
O  O367  1  0.95976194  0.14316360  0.01095240  1  -1.097213  0  -0.151229  -0.221215  0  2.569288  0
O  O368  1  0.97421028  0.47925875  0.42306748  1  -1.177176  0  -0.306772  -0.535218  0  2.195408  0
O  O369  1  0.52578847  0.02074752  0.92306677  1  -1.177153  0  -0.306794  -0.53518  0  2.195483  0
O  O370  1  0.02578532  0.52074811  0.57693583  1  -1.177013  0  -0.306841  -0.535331  0  2.195505  0
O  O371  1  0.47421327  0.97925869  0.07693124  1  -1.177123  0  -0.306789  -0.535178  0  2.195431  0
O  O372  1  0.04717497  0.54752942  0.34563064  1  -1.178687  0  -0.333135  -0.587591  0  2.331783  0
O  O373  1  0.45282482  0.95247736  0.84563045  1  -1.179285  0  -0.333115  -0.587602  0  2.331755  0
O  O374  1  0.95282270  0.45247277  0.65437104  1  -1.178757  0  -0.333148  -0.587636  0  2.331754  0
O  O375  1  0.54717596  0.04752685  0.15436919  1  -1.178675  0  -0.333135  -0.58756  0  2.331693  0
