# generated using pymatgen
data_UH8(CO)6
_symmetry_space_group_name_H-M   'P 1'
_cell_length_a   5.52293069
_cell_length_b   8.46871795
_cell_length_c   10.46599122
_cell_angle_alpha   95.79906887
_cell_angle_beta   81.35616491
_cell_angle_gamma   79.86031773
_symmetry_Int_Tables_number   1
_chemical_formula_structural   UH8(CO)6
_chemical_formula_sum   'U2 H16 C12 O12'
_cell_volume   472.29202255
_cell_formula_units_Z   2
loop_
 _symmetry_equiv_pos_site_id
 _symmetry_equiv_pos_as_xyz
  1  'x, y, z'
loop_
 _atom_site_type_symbol
 _atom_site_label
 _atom_site_symmetry_multiplicity
 _atom_site_fract_x
 _atom_site_fract_y
 _atom_site_fract_z
 _atom_site_occupancy
 _atom_site_hle17_bader_spin_density
 _atom_site_hle17_ddec_charge
 _atom_site_hle17_ddec_spin_density
 _atom_site_hle17_ddec_sum_bond_order
 _atom_site_hle17_magmom
 _atom_site_hse06_10hf_bader_spin_density
 _atom_site_hse06_10hf_ddec_charge
 _atom_site_hse06_10hf_ddec_spin_density
 _atom_site_hse06_10hf_ddec_sum_bond_order
 _atom_site_hse06_10hf_magmom
 _atom_site_hse06_bader_spin_density
 _atom_site_hse06_ddec_charge
 _atom_site_hse06_ddec_spin_density
 _atom_site_hse06_ddec_sum_bond_order
 _atom_site_hse06_magmom
 _atom_site_pbe_bader_spin_density
 _atom_site_pbe_cm5_charge
 _atom_site_pbe_ddec_charge
 _atom_site_pbe_ddec_spin_density
 _atom_site_pbe_ddec_sum_bond_order
 _atom_site_pbe_magmom
U  U0  1  0.49146773  0.97966884  0.74418165  1  0  2.499913  0  4.196762  0  0  2.561743  0  4.87304  0  0  2.677241  0  4.826391  0  0  2.22739  2.480211  0  4.907121  0
U  U1  1  0.50854176  0.02034405  0.25580385  1  0  2.50007  0  4.197303  0  0  2.561904  0  4.873657  0  0  2.677425  0  4.826963  0  0  2.22754  2.480341  0  4.907784  0
H  H2  1  0.15797251  0.66438915  0.34302135  1  0  0.115334  0  0.922115  0  0  0.132826  0  0.974281  0  0  0.134618  0  0.973739  0  0  0.112026  0.131426  0  0.974949  0
H  H3  1  0.84201008  0.33563065  0.65697384  1  0  0.115341  0  0.922121  0  0  0.132834  0  0.974314  0  0  0.134631  0  0.973777  0  0  0.112047  0.131435  0  0.974993  0
H  H4  1  0.91170407  0.76818850  0.46103970  1  0  0.123519  0  0.928492  0  0  0.136938  0  0.990573  0  0  0.139218  0  0.989593  0  0  0.121067  0.135331  0  0.991416  0
H  H5  1  0.08827373  0.23181571  0.53895570  1  0  0.123423  0  0.928477  0  0  0.13685  0  0.990607  0  0  0.139137  0  0.989613  0  0  0.121028  0.135238  0  0.991446  0
H  H6  1  0.28441169  0.46509442  0.49321969  1  0  0.065316  0  0.939188  0  0  0.085091  0  0.997177  0  0  0.085419  0  0.998393  0  0  0.091384  0.084819  0  0.996289  0
H  H7  1  0.71563580  0.53492321  0.50675229  1  0  0.065473  0  0.939338  0  0  0.08518  0  0.99738  0  0  0.085506  0  0.998598  0  0  0.091437  0.084906  0  0.996495  0
H  H8  1  0.06531321  0.58317298  0.62449356  1  0  0.078093  0  0.9368  0  0  0.09831  0  0.992275  0  0  0.099585  0  0.991627  0  0  0.094314  0.097202  0  0.993123  0
H  H9  1  0.93474363  0.41682953  0.37551166  1  0  0.078125  0  0.936866  0  0  0.098365  0  0.992326  0  0  0.099637  0  0.991683  0  0  0.094396  0.097254  0  0.993151  0
H  H10  1  0.99260051  0.32425543  0.94576082  1  0  0.128243  0  0.925378  0  0  0.146127  0  0.978286  0  0  0.148143  0  0.977511  0  0  0.118527  0.144747  0  0.978906  0
H  H11  1  0.00738157  0.67574429  0.05426569  1  0  0.128333  0  0.925233  0  0  0.146237  0  0.978076  0  0  0.148249  0  0.977288  0  0  0.118565  0.144863  0  0.978696  0
H  H12  1  0.82689734  0.37317056  0.10840658  1  0  0.115512  0  0.912541  0  0  0.133034  0  0.963861  0  0  0.134955  0  0.963255  0  0  0.112771  0.131533  0  0.964557  0
H  H13  1  0.17308001  0.62681040  0.89161144  1  0  0.115665  0  0.912337  0  0  0.133133  0  0.963683  0  0  0.13504  0  0.963075  0  0  0.112825  0.131655  0  0.964397  0
H  H14  1  0.71295666  0.59236758  0.96776202  1  0  0.068141  0  0.952123  0  0  0.086064  0  1.01364  0  0  0.086435  0  1.014593  0  0  0.096693  0.085853  0  1.012922  0
H  H15  1  0.28702631  0.40763842  0.03225396  1  0  0.068034  0  0.952165  0  0  0.085851  0  1.013819  0  0  0.086205  0  1.014781  0  0  0.096676  0.085656  0  1.013078  0
H  H16  1  0.62580197  0.45112295  0.85681446  1  0  0.07176  0  0.932486  0  0  0.091851  0  0.988178  0  0  0.092728  0  0.988411  0  0  0.097582  0.091162  0  0.988184  0
H  H17  1  0.37416539  0.54886263  0.14322868  1  0  0.071727  0  0.932162  0  0  0.091766  0  0.987938  0  0  0.092642  0  0.988164  0  0  0.097532  0.091068  0  0.987926  0
C  C18  1  0.25622280  0.81326887  0.49364292  1  0  0.789061  0  3.721182  0  0  0.760127  0  4.013458  0  0  0.801553  0  3.998078  0  0  0.270236  0.731386  0  4.023181  0
C  C19  1  0.74379047  0.18672660  0.50634951  1  0  0.788664  0  3.721051  0  0  0.759753  0  4.013413  0  0  0.801151  0  3.998099  0  0  0.270054  0.730961  0  4.023179  0
C  C20  1  0.10188283  0.69541388  0.44929803  1  0  -0.275964  0  3.668044  0  0  -0.311505  0  3.904053  0  0  -0.318593  0  3.912201  0  0  -0.148681  -0.30658  0  3.898332  0
C  C21  1  0.89810684  0.30460875  0.55070222  1  0  -0.275771  0  3.667687  0  0  -0.311396  0  3.903853  0  0  -0.318483  0  3.912023  0  0  -0.1486  -0.306425  0  3.898143  0
C  C22  1  0.10005065  0.54593233  0.51865694  1  0  -0.079974  0  3.680342  0  0  -0.12151  0  3.938474  0  0  -0.121756  0  3.952827  0  0  -0.162141  -0.121016  0  3.928309  0
C  C23  1  0.89994846  0.45408566  0.48133167  1  0  -0.08  0  3.680564  0  0  -0.121551  0  3.938802  0  0  -0.121788  0  3.953148  0  0  -0.162295  -0.121068  0  3.928608  0
C  C24  1  0.71677185  0.18839068  0.98923795  1  0  0.792622  0  3.726324  0  0  0.767039  0  4.01234  0  0  0.80821  0  3.997113  0  0  0.273164  0.738527  0  4.02194  0
C  C25  1  0.28321597  0.81159794  0.01075800  1  0  0.792599  0  3.726469  0  0  0.766978  0  4.012529  0  0  0.80814  0  3.9973  0  0  0.27308  0.738529  0  4.022044  0
C  C26  1  0.80563200  0.34606679  0.00621086  1  0  -0.280669  0  3.650359  0  0  -0.321585  0  3.892352  0  0  -0.328594  0  3.900482  0  0  -0.149672  -0.316653  0  3.886472  0
C  C27  1  0.19435320  0.65393222  0.99380763  1  0  -0.281103  0  3.65011  0  0  -0.321869  0  3.891893  0  0  -0.328833  0  3.899954  0  0  -0.149756  -0.317025  0  3.886091  0
C  C28  1  0.63225115  0.48279479  0.96065800  1  0  -0.083152  0  3.677969  0  0  -0.124857  0  3.93904  0  0  -0.1253  0  3.953913  0  0  -0.158205  -0.124296  0  3.928442  0
C  C29  1  0.36776483  0.51720077  0.03936292  1  0  -0.082772  0  3.677375  0  0  -0.124414  0  3.938425  0  0  -0.124843  0  3.953262  0  0  -0.158156  -0.123836  0  3.927827  0
O  O30  1  0.22854748  0.14051704  0.74369654  1  0  -0.705862  0  1.53571  0  0  -0.716493  0  1.818227  0  0  -0.739901  0  1.804048  0  0  -0.755333  -0.701773  0  1.828728  0
O  O31  1  0.77144703  0.85947847  0.25625473  1  0  -0.705924  0  1.535708  0  0  -0.716612  0  1.818284  0  0  -0.740033  0  1.804105  0  0  -0.755462  -0.701896  0  1.828802  0
O  O32  1  0.75048450  0.81841128  0.74974154  1  0  -0.699756  0  1.512001  0  0  -0.710425  0  1.790925  0  0  -0.733548  0  1.776683  0  0  -0.753235  -0.695961  0  1.801569  0
O  O33  1  0.24952569  0.18158011  0.25024539  1  0  -0.699784  0  1.512463  0  0  -0.710461  0  1.791413  0  0  -0.733591  0  1.777163  0  0  -0.753437  -0.696009  0  1.802088  0
O  O34  1  0.28776290  0.92672489  0.42366883  1  0  -0.711334  0  2.077588  0  0  -0.708401  0  2.377069  0  0  -0.746593  0  2.366923  0  0  -0.387785  -0.680714  0  2.382988  0
O  O35  1  0.71228317  0.07326087  0.57630940  1  0  -0.711238  0  2.078086  0  0  -0.708281  0  2.377533  0  0  -0.746451  0  2.367399  0  0  -0.387676  -0.680567  0  2.383458  0
O  O36  1  0.34588759  0.80326618  0.59817941  1  0  -0.659969  0  2.011563  0  0  -0.650563  0  2.282833  0  0  -0.686231  0  2.272247  0  0  -0.353105  -0.624654  0  2.289093  0
O  O37  1  0.65410232  0.19674444  0.40180716  1  0  -0.659887  0  2.01119  0  0  -0.650469  0  2.282452  0  0  -0.686134  0  2.271887  0  0  -0.353058  -0.624548  0  2.288726  0
O  O38  1  0.63277054  0.15334729  0.88571559  1  0  -0.671729  0  2.072304  0  0  -0.663539  0  2.353675  0  0  -0.700503  0  2.343596  0  0  -0.368337  -0.63685  0  2.359675  0
O  O39  1  0.36713409  0.84667196  0.11431278  1  0  -0.671888  0  2.072236  0  0  -0.663699  0  2.353525  0  0  -0.700671  0  2.343441  0  0  -0.368403  -0.637028  0  2.359493  0
O  O40  1  0.72750828  0.09526565  0.07768744  1  0  -0.679226  0  2.056086  0  0  -0.67029  0  2.333498  0  0  -0.707117  0  2.322432  0  0  -0.378527  -0.643703  0  2.340145  0
O  O41  1  0.27258565  0.90469383  0.92230727  1  0  -0.678966  0  2.05618  0  0  -0.670079  0  2.333688  0  0  -0.706904  0  2.322632  0  0  -0.378469  -0.6435  0  2.340293  0
