# generated using pymatgen
data_ScH5C8O5
_symmetry_space_group_name_H-M   'P 1'
_cell_length_a   7.42772798
_cell_length_b   5.83137009
_cell_length_c   20.05053824
_cell_angle_alpha   90.00262183
_cell_angle_beta   89.99109789
_cell_angle_gamma   90.04430162
_symmetry_Int_Tables_number   1
_chemical_formula_structural   ScH5C8O5
_chemical_formula_sum   'Sc4 H20 C32 O20'
_cell_volume   868.46535028
_cell_formula_units_Z   4
loop_
 _symmetry_equiv_pos_site_id
 _symmetry_equiv_pos_as_xyz
  1  'x, y, z'
loop_
 _atom_site_type_symbol
 _atom_site_label
 _atom_site_symmetry_multiplicity
 _atom_site_fract_x
 _atom_site_fract_y
 _atom_site_fract_z
 _atom_site_occupancy
 _atom_site_hle17_bader_spin_density
 _atom_site_hle17_ddec_charge
 _atom_site_hle17_ddec_spin_density
 _atom_site_hle17_ddec_sum_bond_order
 _atom_site_hle17_magmom
 _atom_site_hse06_10hf_bader_spin_density
 _atom_site_hse06_10hf_ddec_charge
 _atom_site_hse06_10hf_ddec_spin_density
 _atom_site_hse06_10hf_ddec_sum_bond_order
 _atom_site_hse06_10hf_magmom
 _atom_site_hse06_bader_spin_density
 _atom_site_hse06_ddec_charge
 _atom_site_hse06_ddec_spin_density
 _atom_site_hse06_ddec_sum_bond_order
 _atom_site_hse06_magmom
 _atom_site_pbe_bader_spin_density
 _atom_site_pbe_cm5_charge
 _atom_site_pbe_ddec_charge
 _atom_site_pbe_ddec_spin_density
 _atom_site_pbe_ddec_sum_bond_order
 _atom_site_pbe_magmom
Sc  Sc0  1  0.64478169  0.50064204  0.49994402  1  0  2.031775  0  1.662897  0  0  1.93864  0  2.090924  0  0  2.047215  0  1.985317  0  0  1.22552  1.860345  0  2.162985  0
Sc  Sc1  1  0.14476929  0.49940220  0.50005609  1  0  2.031723  0  1.663184  0  0  1.938565  0  2.091292  0  0  2.047156  0  1.985661  0  0  1.225425  1.86038  0  2.163104  0
Sc  Sc2  1  0.64477416  0.99938087  0.99993286  1  0  2.03168  0  1.663207  0  0  1.938599  0  2.091212  0  0  2.047197  0  1.985573  0  0  1.225509  1.860361  0  2.163148  0
Sc  Sc3  1  0.14478892  0.00063422  0.00006226  1  0  2.031598  0  1.663047  0  0  1.938327  0  2.091307  0  0  2.046935  0  1.985663  0  0  1.225395  1.860109  0  2.163196  0
H  H4  1  0.10635778  0.26544635  0.69143045  1  0  0.105697  0  0.940529  0  0  0.115998  0  0.997888  0  0  0.119148  0  0.996643  0  0  0.109903  0.113702  0  0.998935  0
H  H5  1  0.60662349  0.73494019  0.30871432  1  0  0.106017  0  0.939984  0  0  0.116038  0  0.997704  0  0  0.11917  0  0.996458  0  0  0.109977  0.113748  0  0.998739  0
H  H6  1  0.10657413  0.23495955  0.19134599  1  0  0.105764  0  0.94032  0  0  0.115871  0  0.997906  0  0  0.119011  0  0.996666  0  0  0.109889  0.113577  0  0.99897  0
H  H7  1  0.60648381  0.76518863  0.80864268  1  0  0.105893  0  0.940357  0  0  0.116112  0  0.997776  0  0  0.119253  0  0.996528  0  0  0.109988  0.113831  0  0.998824  0
H  H8  1  0.10620736  0.26002863  0.81673471  1  0  0.106464  0  0.936245  0  0  0.116731  0  0.993921  0  0  0.120126  0  0.992263  0  0  0.110512  0.114308  0  0.995183  0
H  H9  1  0.60610347  0.74036992  0.18340408  1  0  0.106564  0  0.936403  0  0  0.116712  0  0.994152  0  0  0.120003  0  0.992638  0  0  0.110537  0.114327  0  0.995355  0
H  H10  1  0.10615573  0.24039521  0.31665595  1  0  0.106703  0  0.936241  0  0  0.116831  0  0.994045  0  0  0.120167  0  0.992467  0  0  0.110592  0.114411  0  0.995294  0
H  H11  1  0.60620887  0.75977699  0.68333221  1  0  0.106597  0  0.936139  0  0  0.1167  0  0.994043  0  0  0.120083  0  0.992414  0  0  0.110498  0.114286  0  0.995285  0
H  H12  1  0.68390748  0.26641714  0.81669056  1  0  0.106533  0  0.937179  0  0  0.116602  0  0.994745  0  0  0.119895  0  0.993242  0  0  0.110972  0.114166  0  0.996029  0
H  H13  1  0.18379640  0.73318189  0.18316689  1  0  0.106627  0  0.936868  0  0  0.116571  0  0.994686  0  0  0.119822  0  0.993212  0  0  0.110817  0.114135  0  0.995972  0
H  H14  1  0.68383931  0.23315054  0.31677511  1  0  0.106574  0  0.936823  0  0  0.116543  0  0.994533  0  0  0.119788  0  0.993084  0  0  0.110834  0.114109  0  0.995814  0
H  H15  1  0.18390903  0.76662682  0.68323895  1  0  0.106507  0  0.936986  0  0  0.116512  0  0.994635  0  0  0.119699  0  0.993264  0  0  0.110845  0.114115  0  0.995877  0
H  H16  1  0.68375607  0.27139757  0.69136385  1  0  0.105659  0  0.939766  0  0  0.115595  0  0.997539  0  0  0.118772  0  0.99621  0  0  0.109694  0.113229  0  0.998734  0
H  H17  1  0.18400030  0.72818945  0.30848562  1  0  0.105412  0  0.939918  0  0  0.115416  0  0.997751  0  0  0.118563  0  0.996464  0  0  0.109666  0.113103  0  0.99889  0
H  H18  1  0.68395373  0.22817619  0.19145468  1  0  0.105578  0  0.939946  0  0  0.115526  0  0.997784  0  0  0.118711  0  0.996447  0  0  0.109661  0.11316  0  0.998981  0
H  H19  1  0.18388079  0.77162003  0.80856038  1  0  0.105652  0  0.939908  0  0  0.115653  0  0.997662  0  0  0.118807  0  0.996362  0  0  0.109751  0.113331  0  0.998811  0
H  H20  1  0.39435515  0.83462745  0.49621226  1  0  0.456961  0  0.807395  0  0  0.444265  0  0.839117  0  0  0.454541  0  0.824961  0  0  0.328455  0.436848  0  0.849322  0
H  H21  1  0.89382743  0.16538593  0.50378596  1  0  0.457082  0  0.807313  0  0  0.444354  0  0.8391  0  0  0.454637  0  0.824931  0  0  0.328205  0.436934  0  0.849311  0
H  H22  1  0.39382069  0.66537212  0.99620584  1  0  0.456999  0  0.807381  0  0  0.444262  0  0.839201  0  0  0.454545  0  0.825029  0  0  0.328192  0.43684  0  0.849414  0
H  H23  1  0.89435514  0.33461211  0.00378041  1  0  0.456964  0  0.807419  0  0  0.444266  0  0.839146  0  0  0.454542  0  0.824992  0  0  0.328452  0.436848  0  0.849354  0
C  C24  1  0.39494710  0.28769287  0.60996357  1  0  0.718223  0  3.842219  0  0  0.675928  0  4.129863  0  0  0.715054  0  4.118509  0  0  0.248876  0.648955  0  4.137026  0
C  C25  1  0.89532494  0.71232048  0.39003916  1  0  0.718951  0  3.843475  0  0  0.676709  0  4.13101  0  0  0.715825  0  4.119624  0  0  0.249056  0.649742  0  4.138197  0
C  C26  1  0.39522733  0.21231437  0.10995848  1  0  0.71859  0  3.84344  0  0  0.676467  0  4.130723  0  0  0.715595  0  4.119351  0  0  0.249036  0.649487  0  4.137909  0
C  C27  1  0.89510528  0.78767325  0.89004075  1  0  0.718234  0  3.843682  0  0  0.676033  0  4.131142  0  0  0.71516  0  4.119785  0  0  0.248895  0.649053  0  4.138318  0
C  C28  1  0.39506622  0.26830167  0.68427988  1  0  -0.068493  0  3.726216  0  0  -0.048549  0  3.957329  0  0  -0.055718  0  3.977999  0  0  -0.011227  -0.043966  0  3.943505  0
C  C29  1  0.89532161  0.73173054  0.31572684  1  0  -0.06832  0  3.726803  0  0  -0.048608  0  3.958196  0  0  -0.055712  0  3.978774  0  0  -0.011138  -0.044082  0  3.944454  0
C  C30  1  0.39527339  0.23172025  0.18427509  1  0  -0.068448  0  3.727099  0  0  -0.04854  0  3.958127  0  0  -0.055711  0  3.978817  0  0  -0.011275  -0.043956  0  3.944297  0
C  C31  1  0.89520327  0.76826395  0.81572365  1  0  -0.068548  0  3.726783  0  0  -0.048687  0  3.958004  0  0  -0.055853  0  3.978675  0  0  -0.011252  -0.044107  0  3.944191  0
C  C32  1  0.23186358  0.26533076  0.71941053  1  0  -0.064682  0  3.738385  0  0  -0.087621  0  3.989918  0  0  -0.088747  0  4.011257  0  0  -0.076465  -0.086713  0  3.975566  0
C  C33  1  0.73203823  0.73489628  0.28067446  1  0  -0.065229  0  3.738548  0  0  -0.087904  0  3.990191  0  0  -0.089019  0  4.011453  0  0  -0.076729  -0.086984  0  3.975864  0
C  C34  1  0.23201534  0.23494171  0.21936098  1  0  -0.064778  0  3.738959  0  0  -0.087475  0  3.990327  0  0  -0.088594  0  4.011655  0  0  -0.076549  -0.08658  0  3.975977  0
C  C35  1  0.73196452  0.76516701  0.78063722  1  0  -0.064983  0  3.73876  0  0  -0.087757  0  3.990264  0  0  -0.088871  0  4.011588  0  0  -0.076585  -0.086873  0  3.975939  0
C  C36  1  0.23178709  0.26338873  0.78872235  1  0  -0.063491  0  3.732631  0  0  -0.087985  0  3.985649  0  0  -0.089107  0  4.006514  0  0  -0.076841  -0.087081  0  3.971586  0
C  C37  1  0.73176874  0.73687090  0.21136114  1  0  -0.06373  0  3.732662  0  0  -0.088066  0  3.985568  0  0  -0.08912  0  4.00646  0  0  -0.076769  -0.087177  0  3.971482  0
C  C38  1  0.23179179  0.23685984  0.28867287  1  0  -0.063962  0  3.732825  0  0  -0.088413  0  3.985832  0  0  -0.08949  0  4.00671  0  0  -0.076854  -0.087499  0  3.971753  0
C  C39  1  0.73180437  0.76324031  0.71132383  1  0  -0.063691  0  3.732644  0  0  -0.08819  0  3.985757  0  0  -0.089307  0  4.006611  0  0  -0.076971  -0.087286  0  3.971702  0
C  C40  1  0.39508637  0.26422547  0.82382718  1  0  -0.069266  0  3.729012  0  0  -0.049688  0  3.961223  0  0  -0.056726  0  3.981733  0  0  -0.010011  -0.045119  0  3.94745  0
C  C41  1  0.89496352  0.73576559  0.17617505  1  0  -0.068576  0  3.727905  0  0  -0.049157  0  3.960011  0  0  -0.056193  0  3.980459  0  0  -0.009959  -0.044596  0  3.946268  0
C  C42  1  0.39501447  0.23577765  0.32382305  1  0  -0.068815  0  3.7283  0  0  -0.049282  0  3.960411  0  0  -0.056321  0  3.980876  0  0  -0.009965  -0.044715  0  3.946653  0
C  C43  1  0.89507176  0.76420827  0.67617718  1  0  -0.069226  0  3.72879  0  0  -0.049667  0  3.960815  0  0  -0.056701  0  3.981278  0  0  -0.00988  -0.0451  0  3.947065  0
C  C44  1  0.55833307  0.26659276  0.78868854  1  0  -0.062706  0  3.734012  0  0  -0.086535  0  3.986685  0  0  -0.087564  0  4.007513  0  0  -0.076736  -0.085639  0  3.972611  0
C  C45  1  0.05830079  0.73311604  0.21123718  1  0  -0.063206  0  3.732356  0  0  -0.087033  0  3.985227  0  0  -0.088024  0  4.006078  0  0  -0.076791  -0.086138  0  3.97116  0
C  C46  1  0.55832806  0.23309980  0.28872720  1  0  -0.062904  0  3.733441  0  0  -0.08661  0  3.98619  0  0  -0.087605  0  4.007055  0  0  -0.076684  -0.085715  0  3.972113  0
C  C47  1  0.05835699  0.76671531  0.71127632  1  0  -0.062688  0  3.73395  0  0  -0.086475  0  3.986733  0  0  -0.087419  0  4.007572  0  0  -0.076593  -0.085619  0  3.972661  0
C  C48  1  0.55830041  0.26837187  0.71937472  1  0  -0.064418  0  3.738996  0  0  -0.08735  0  3.990438  0  0  -0.088455  0  4.011701  0  0  -0.07668  -0.086437  0  3.976136  0
C  C49  1  0.05844792  0.73139351  0.28055199  1  0  -0.06397  0  3.738653  0  0  -0.086901  0  3.990315  0  0  -0.088  0  4.011566  0  0  -0.076496  -0.086019  0  3.975994  0
C  C50  1  0.55843191  0.23136859  0.21940982  1  0  -0.064198  0  3.739504  0  0  -0.087246  0  3.991158  0  0  -0.088356  0  4.012412  0  0  -0.07659  -0.086336  0  3.976852  0
C  C51  1  0.05839318  0.76848253  0.78058871  1  0  -0.064205  0  3.739863  0  0  -0.087261  0  3.991443  0  0  -0.088347  0  4.012692  0  0  -0.076756  -0.086385  0  3.977127  0
C  C52  1  0.39517929  0.24595409  0.89805873  1  0  0.717333  0  3.846021  0  0  0.675091  0  4.13343  0  0  0.71406  0  4.122438  0  0  0.249625  0.648219  0  4.140316  0
C  C53  1  0.89485986  0.75410042  0.10194400  1  0  0.716555  0  3.846055  0  0  0.674949  0  4.132526  0  0  0.713947  0  4.121477  0  0  0.249457  0.648059  0  4.139457  0
C  C54  1  0.39497508  0.25407744  0.39805684  1  0  0.71695  0  3.84593  0  0  0.674953  0  4.133008  0  0  0.713956  0  4.121965  0  0  0.249542  0.648061  0  4.139918  0
C  C55  1  0.89510848  0.74594106  0.60194389  1  0  0.717404  0  3.845666  0  0  0.675516  0  4.132471  0  0  0.714504  0  4.121438  0  0  0.249812  0.648627  0  4.139388  0
O  O56  1  0.54652473  0.29973853  0.58032266  1  0  -0.711801  0  2.003291  0  0  -0.670303  0  2.257869  0  0  -0.705951  0  2.243857  0  0  -0.364963  -0.644981  0  2.266684  0
O  O57  1  0.04691370  0.70012149  0.41962286  1  0  -0.711602  0  2.004307  0  0  -0.670121  0  2.258927  0  0  -0.70577  0  2.244916  0  0  -0.364693  -0.644814  0  2.267737  0
O  O58  1  0.54677664  0.20024048  0.08032656  1  0  -0.7117  0  2.004721  0  0  -0.670335  0  2.25935  0  0  -0.705979  0  2.245324  0  0  -0.364875  -0.645022  0  2.26817  0
O  O59  1  0.04668748  0.79981160  0.91964490  1  0  -0.711534  0  2.004716  0  0  -0.670051  0  2.259298  0  0  -0.705705  0  2.245291  0  0  -0.364604  -0.644743  0  2.268119  0
O  O60  1  0.24327124  0.29879438  0.58036115  1  0  -0.711811  0  2.004049  0  0  -0.670493  0  2.258774  0  0  -0.706194  0  2.244758  0  0  -0.365221  -0.645142  0  2.267574  0
O  O61  1  0.74368471  0.70138433  0.41970053  1  0  -0.712655  0  2.004853  0  0  -0.671275  0  2.259531  0  0  -0.706984  0  2.245486  0  0  -0.365541  -0.645902  0  2.268352  0
O  O62  1  0.24355131  0.20129071  0.08034065  1  0  -0.712187  0  2.004528  0  0  -0.670842  0  2.259116  0  0  -0.706548  0  2.245063  0  0  -0.365322  -0.645494  0  2.267958  0
O  O63  1  0.74344219  0.79863592  0.91967864  1  0  -0.711987  0  2.004528  0  0  -0.6707  0  2.25919  0  0  -0.706402  0  2.245162  0  0  -0.365417  -0.645351  0  2.26802  0
O  O64  1  0.24376374  0.23495447  0.92796897  1  0  -0.711772  0  1.997307  0  0  -0.670087  0  2.251127  0  0  -0.705703  0  2.237133  0  0  -0.365465  -0.644759  0  2.259891  0
O  O65  1  0.74338479  0.76533227  0.07211666  1  0  -0.71135  0  1.99754  0  0  -0.669898  0  2.250923  0  0  -0.705519  0  2.236916  0  0  -0.365228  -0.644566  0  2.259703  0
O  O66  1  0.24352335  0.26520814  0.42792765  1  0  -0.711562  0  1.997948  0  0  -0.669959  0  2.251533  0  0  -0.705578  0  2.237513  0  0  -0.365374  -0.64464  0  2.260329  0
O  O67  1  0.74366007  0.73485225  0.57207668  1  0  -0.711695  0  1.997366  0  0  -0.670124  0  2.250901  0  0  -0.705737  0  2.236894  0  0  -0.365578  -0.644794  0  2.259703  0
O  O68  1  0.54656528  0.23437412  0.92792796  1  0  -0.712364  0  2.000136  0  0  -0.670633  0  2.253764  0  0  -0.706267  0  2.2398  0  0  -0.36548  -0.64528  0  2.262493  0
O  O69  1  0.04621478  0.76543275  0.07200659  1  0  -0.712455  0  2.000421  0  0  -0.670813  0  2.2536  0  0  -0.706434  0  2.239558  0  0  -0.365495  -0.645463  0  2.262364  0
O  O70  1  0.54634155  0.26549721  0.42796545  1  0  -0.712489  0  1.999858  0  0  -0.670718  0  2.253233  0  0  -0.70633  0  2.239197  0  0  -0.365449  -0.645368  0  2.262015  0
O  O71  1  0.04646822  0.73449657  0.57202645  1  0  -0.712669  0  2.000111  0  0  -0.670975  0  2.253543  0  0  -0.706597  0  2.239526  0  0  -0.365578  -0.645622  0  2.262294  0
O  O72  1  0.39468421  0.66765457  0.49691256  1  0  -1.107704  0  1.615774  0  0  -1.069492  0  1.841128  0  0  -1.118291  0  1.80707  0  0  -0.704546  -1.034581  0  1.864498  0
O  O73  1  0.89449731  0.33235537  0.50309814  1  0  -1.107887  0  1.615966  0  0  -1.069615  0  1.841148  0  0  -1.118429  0  1.807105  0  0  -0.704192  -1.034694  0  1.864503  0
O  O74  1  0.39450878  0.83234315  0.99689753  1  0  -1.107807  0  1.616107  0  0  -1.069386  0  1.841054  0  0  -1.118205  0  1.807013  0  0  -0.704178  -1.034471  0  1.864402  0
O  O75  1  0.89466736  0.16764106  0.00308125  1  0  -1.107697  0  1.61583  0  0  -1.069516  0  1.841261  0  0  -1.118302  0  1.807156  0  0  -0.704595  -1.034596  0  1.864591  0
