# generated using pymatgen
data_MnH27C30(N3O2)2
_symmetry_space_group_name_H-M   'P 1'
_cell_length_a   10.21201016
_cell_length_b   11.07414721
_cell_length_c   13.91000000
_cell_angle_alpha   107.69950647
_cell_angle_beta   95.82596522
_cell_angle_gamma   97.25636987
_symmetry_Int_Tables_number   1
_chemical_formula_structural   MnH27C30(N3O2)2
_chemical_formula_sum   'Mn2 H54 C60 N12 O8'
_cell_volume   1470.22528634
_cell_formula_units_Z   2
loop_
 _symmetry_equiv_pos_site_id
 _symmetry_equiv_pos_as_xyz
  1  'x, y, z'
loop_
 _atom_site_type_symbol
 _atom_site_label
 _atom_site_symmetry_multiplicity
 _atom_site_fract_x
 _atom_site_fract_y
 _atom_site_fract_z
 _atom_site_occupancy
 _atom_site_hle17_ddec_charge
 _atom_site_hle17_ddec_spin_density
 _atom_site_hle17_ddec_sum_bond_order
 _atom_site_hle17_magmom
 _atom_site_hse06_10hf_ddec_charge
 _atom_site_hse06_10hf_ddec_spin_density
 _atom_site_hse06_10hf_ddec_sum_bond_order
 _atom_site_hse06_10hf_magmom
 _atom_site_hse06_ddec_charge
 _atom_site_hse06_ddec_spin_density
 _atom_site_hse06_ddec_sum_bond_order
 _atom_site_hse06_magmom
 _atom_site_pbe_bader_charge
 _atom_site_pbe_bader_spin_density
 _atom_site_pbe_cm5_charge
 _atom_site_pbe_ddec_charge
 _atom_site_pbe_ddec_spin_density
 _atom_site_pbe_ddec_sum_bond_order
 _atom_site_pbe_magmom
Mn  Mn0  1  0.19253662  0.36119379  0.81862437  1  1.036381  -4.806775  1.877896  -4.665  0.857933  -4.733513  2.377262  -4.521  0.919973  -4.777504  2.310742  -4.585  1.460477  -4.55372  0.5879  0.808876  -4.690813  2.427721  -4.46
Mn  Mn1  1  0.80746222  0.63880130  0.18137565  1  1.036417  4.806805  1.877781  4.665  0.857994  4.733527  2.377102  4.521  0.920034  4.777514  2.310584  4.585  1.460554  4.553518  0.588006  0.809087  4.690645  2.427521  4.46
H  H2  1  0.83754598  0.02931027  0.65125347  1  0.103001  6.4e-05  0.947144  0.0  0.113911  -0.00013  1.007572  0.0  0.118178  -4e-05  1.004113  0.0  0.086309  -0.000513  0.099771  0.110927  -0.000213  1.009821  0.0
H  H3  1  0.16245434  0.97069346  0.34874085  1  0.103008  -5.3e-05  0.947101  0.0  0.113924  0.00013  1.007523  0.0  0.118193  4e-05  1.004061  0.0  0.086339  0.000516  0.099793  0.110957  0.000215  1.009743  0.0
H  H4  1  0.41727593  0.05225656  0.64633380  1  0.096978  0.000171  0.953005  0.0  0.10626  5.8e-05  1.016216  0.0  0.110704  0.000112  1.012222  0.0  0.081246  -0.000413  0.099657  0.103136  -2.5e-05  1.0189  0.0
H  H5  1  0.58272620  0.94774621  0.35366689  1  0.096944  -0.000153  0.953027  0.0  0.106242  -5.8e-05  1.016221  0.0  0.110688  -0.000112  1.012225  0.0  0.081221  0.000416  0.099641  0.103135  2.7e-05  1.018878  0.0
H  H6  1  0.71176378  0.37629779  0.82208441  1  0.096383  9.3e-05  0.985125  0.0  0.101905  -3.9e-05  1.059212  0.0  0.105889  2.2e-05  1.05542  0.0  0.101803  -0.000309  0.100673  0.09897  -0.000101  1.062139  0.0
H  H7  1  0.28824114  0.62370402  0.17792057  1  0.096393  -8.8e-05  0.985151  0.0  0.101915  3.9e-05  1.059239  0.0  0.105881  -2.2e-05  1.055465  0.0  0.101526  0.000309  0.100668  0.098992  0.000101  1.062141  0.0
H  H8  1  0.64281375  0.87032976  0.50579337  1  0.104542  1.2e-05  0.952632  0.0  0.126669  1.8e-05  1.013894  0.0  0.127652  1.4e-05  1.013799  0.0  0.031081  0.00011  0.090434  0.125959  2.9e-05  1.01393  0.0
H  H9  1  0.35718165  0.12967397  0.49420202  1  0.104499  -1e-05  0.952717  0.0  0.126649  -1.8e-05  1.013947  0.0  0.127627  -1.4e-05  1.013855  0.0  0.031045  -0.000109  0.090444  0.125956  -2.8e-05  1.01396  0.0
H  H10  1  0.48191568  0.85914642  0.54217598  1  0.103392  -4e-06  0.962269  0.0  0.125733  1e-06  1.02116  0.0  0.126954  1e-06  1.021595  0.0  0.027566  1e-06  0.089213  0.124745  1e-06  1.021003  0.0
H  H11  1  0.51808301  0.14085924  0.45782228  1  0.103346  -0.0  0.962321  0.0  0.125704  -1e-06  1.021204  0.0  0.126913  -1e-06  1.021651  0.0  0.027631  1e-06  0.089207  0.124724  -0.0  1.021033  0.0
H  H12  1  0.61609801  0.81852688  0.61188581  1  0.100288  3.5e-05  0.960594  0.0  0.120249  3.5e-05  1.026275  0.0  0.121003  3.8e-05  1.028  0.0  0.042191  7.1e-05  0.085453  0.119621  3.9e-05  1.025238  0.0
H  H13  1  0.38389920  0.18147589  0.38810875  1  0.100288  -3.5e-05  0.960639  0.0  0.120254  -3.5e-05  1.026333  0.0  0.121008  -3.8e-05  1.028056  0.0  0.042168  -7e-05  0.085477  0.119631  -3.8e-05  1.025289  0.0
H  H14  1  0.43701550  0.62078779  0.89462725  1  0.117723  0.000199  0.937068  0.0  0.126328  -0.000149  0.997945  0.0  0.129584  -6.1e-05  0.993827  0.0  0.201128  -0.000453  0.141299  0.123807  -0.000237  1.001172  0.0
H  H15  1  0.56297628  0.37920633  0.10536770  1  0.117793  -0.000203  0.936994  0.0  0.126396  0.000149  0.997841  0.0  0.129651  6.1e-05  0.993727  0.0  0.201175  0.000452  0.141355  0.123877  0.000237  1.001055  0.0
H  H16  1  0.04638789  0.58931775  0.96638244  1  0.112008  1.8e-05  0.973075  0.0  0.119401  -0.000164  1.037476  0.0  0.121997  -0.000117  1.035793  0.0  0.143882  -0.000392  0.121296  0.117561  -0.00021  1.038769  0.0
H  H17  1  0.95361572  0.41068214  0.03362125  1  0.111978  -2.6e-05  0.973115  0.0  0.119402  0.000164  1.037455  0.0  0.121999  0.000117  1.035772  0.0  0.143902  0.000391  0.121311  0.117567  0.000209  1.038741  0.0
H  H18  1  0.15794326  0.84870318  0.03073617  1  0.109799  -0.000249  0.958065  0.0  0.123189  -0.000332  1.014958  0.0  0.126162  -0.000258  1.013451  0.0  0.108821  -0.000819  0.120325  0.120607  -0.000527  1.0169  0.0
H  H19  1  0.84206165  0.15129287  0.96926237  1  0.109764  0.000254  0.958072  0.0  0.123141  0.000332  1.014977  0.0  0.126121  0.000258  1.013463  0.0  0.108744  0.00082  0.120337  0.120585  0.000528  1.016876  0.0
H  H20  1  0.43467194  0.93156376  0.14451914  1  0.113881  9e-06  0.970926  0.0  0.122011  -2.9e-05  1.036263  0.0  0.123755  -2.3e-05  1.037441  0.0  0.102165  -1e-05  0.107142  0.12061  -3.8e-05  1.035624  0.0
H  H21  1  0.56532804  0.06843229  0.85547473  1  0.113839  -1e-06  0.970956  0.0  0.121998  2.9e-05  1.036272  0.0  0.123742  2.3e-05  1.037449  0.0  0.102472  1.1e-05  0.10714  0.120609  3.8e-05  1.035619  0.0
H  H22  1  0.10369327  0.61074056  0.73806245  1  0.103799  0.000107  0.954026  0.0  0.113428  -0.000127  1.01392  0.0  0.115393  -3.6e-05  1.014076  0.0  0.111976  -0.000711  0.118119  0.111993  -0.000234  1.013949  0.0
H  H23  1  0.89631098  0.38925741  0.26193939  1  0.1038  -0.000108  0.954014  0.0  0.113449  0.000126  1.013876  0.0  0.115411  3.6e-05  1.014031  0.0  0.111969  0.00071  0.118086  0.112008  0.000233  1.013921  0.0
H  H24  1  0.12749187  0.61884332  0.54128819  1  0.117681  -0.000294  0.944179  0.0  0.131285  -0.000464  0.996341  0.0  0.134078  -0.000346  0.995138  0.0  0.121763  -0.000955  0.125693  0.129142  -0.000607  0.997456  0.0
H  H25  1  0.87250894  0.38115753  0.45871553  1  0.117603  0.000285  0.944209  0.0  0.131231  0.000464  0.996341  0.0  0.134022  0.000347  0.995138  0.0  0.121754  0.000954  0.125696  0.129101  0.000607  0.997434  0.0
H  H26  1  0.24438052  0.27835916  0.57471941  1  0.098009  0.000312  0.944436  0.0  0.105235  8.4e-05  1.011467  0.0  0.108003  0.000148  1.007898  0.0  0.123957  -0.000396  0.13839  0.103076  9e-06  1.01422  0.0
H  H27  1  0.75562128  0.72164170  0.42527863  1  0.098017  -0.000314  0.94441  0.0  0.105228  -8.4e-05  1.011464  0.0  0.107994  -0.000148  1.007896  0.0  0.123984  0.000395  0.138373  0.10307  -9e-06  1.014215  0.0
H  H28  1  0.36580166  0.47189884  0.24056532  1  0.126945  -0.000152  0.981244  0.0  0.133951  -0.00018  1.047777  0.0  0.13788  -0.000176  1.045189  0.0  0.150772  2.4e-05  0.108373  0.131033  -0.000177  1.049785  0.0
H  H29  1  0.63419784  0.52810009  0.75943568  1  0.126895  0.000154  0.981271  0.0  0.133912  0.00018  1.047796  0.0  0.137837  0.000176  1.045209  0.0  0.150727  -2.4e-05  0.108343  0.130999  0.000177  1.049798  0.0
H  H30  1  0.06024276  0.22772699  0.39616478  1  0.109116  -2.4e-05  0.934839  0.0  0.123428  -4.6e-05  0.988199  0.0  0.126391  -2.6e-05  0.986962  0.0  0.074296  -0.000139  0.111057  0.121244  -7e-05  0.989203  0.0
H  H31  1  0.93975560  0.77227674  0.60383730  1  0.109142  2.5e-05  0.93483  0.0  0.123433  4.6e-05  0.988202  0.0  0.126396  2.6e-05  0.986967  0.0  0.074383  0.000139  0.111081  0.121249  7e-05  0.989201  0.0
H  H32  1  0.99332891  0.11892123  0.11812313  1  0.102331  -1e-06  0.971135  0.0  0.11684  -2e-06  1.044601  0.0  0.11812  -9e-06  1.045137  0.0  0.049168  7e-06  0.087857  0.115926  -1e-06  1.044198  0.0
H  H33  1  0.00666518  0.88108058  0.88188104  1  0.102393  4e-06  0.971119  0.0  0.116906  1e-06  1.044566  0.0  0.118187  1e-05  1.045105  0.0  0.048957  -6e-06  0.087873  0.115994  1e-06  1.044161  0.0
H  H34  1  0.95025662  0.09393051  0.23244466  1  0.116558  -2.9e-05  0.93276  0.0  0.141706  -4.2e-05  0.984877  0.0  0.143268  -4.2e-05  0.984096  0.0  0.060463  1.2e-05  0.097703  0.140536  -3.5e-05  0.985392  0.0
H  H35  1  0.04973961  0.90607226  0.76756062  1  0.116526  3.5e-05  0.932693  0.0  0.14167  4.2e-05  0.984841  0.0  0.143232  4.2e-05  0.984062  0.0  0.060602  -1.1e-05  0.097729  0.140507  3.5e-05  0.985348  0.0
H  H36  1  0.08282765  0.02703419  0.17772808  1  0.113823  -4.8e-05  0.945061  0.0  0.13463  -4.5e-05  1.009155  0.0  0.135549  -5e-05  1.00939  0.0  0.05977  -5e-06  0.094096  0.133703  -8.1e-05  1.00936  0.0
H  H37  1  0.91716397  0.97296474  0.82227520  1  0.11383  4.8e-05  0.945098  0.0  0.134633  4.5e-05  1.009183  0.0  0.135553  5.1e-05  1.009421  0.0  0.059805  6e-06  0.094121  0.133712  8.2e-05  1.009385  0.0
H  H38  1  0.33138121  0.67299149  0.44908452  1  0.111896  -1.4e-05  0.939114  0.0  0.134556  -3.7e-05  0.998005  0.0  0.135166  -2.1e-05  0.998758  0.0  0.03121  -6.6e-05  0.09583  0.134059  -5.1e-05  0.997559  0.0
H  H39  1  0.66862436  0.32700840  0.55091645  1  0.111882  1.1e-05  0.9391  0.0  0.134531  3.7e-05  0.998004  0.0  0.135141  2.1e-05  0.998757  0.0  0.03117  6.6e-05  0.095817  0.134039  5.1e-05  0.997553  0.0
H  H40  1  0.47209590  0.60684201  0.40796882  1  0.11865  -6.5e-05  0.94144  0.0  0.141829  -8.4e-05  0.998823  0.0  0.142634  -8.5e-05  0.999666  0.0  0.057532  3.2e-05  0.097264  0.141098  -7.4e-05  0.998445  0.0
H  H41  1  0.52790573  0.39315788  0.59203329  1  0.118627  7e-05  0.941452  0.0  0.141787  8.4e-05  0.998859  0.0  0.142601  8.5e-05  0.99969  0.0  0.057538  -3.1e-05  0.09725  0.141065  7.4e-05  0.998468  0.0
H  H42  1  0.41554346  0.59168898  0.52191207  1  0.108971  9e-06  0.94947  0.0  0.129305  9e-06  1.011051  0.0  0.130825  9e-06  1.011044  0.0  0.040487  -7e-06  0.091834  0.128182  8e-06  1.011061  0.0
H  H43  1  0.58445949  0.40831283  0.47808772  1  0.108976  -6e-06  0.949421  0.0  0.129301  -9e-06  1.011028  0.0  0.130819  -9e-06  1.011023  0.0  0.040501  8e-06  0.091822  0.128174  -7e-06  1.011044  0.0
H  H44  1  0.18484182  0.45070575  0.08275333  1  0.109301  0.000171  0.950249  0.0  0.115214  -5.2e-05  1.020052  0.0  0.118689  -4e-05  1.015352  0.0  0.18221  -0.000125  0.139755  0.112543  -9.7e-05  1.023674  0.0
H  H45  1  0.81515932  0.54929703  0.91725087  1  0.109271  -0.000175  0.95033  0.0  0.115214  5.2e-05  1.020098  0.0  0.118689  4e-05  1.015396  0.0  0.181996  0.000124  0.139746  0.112549  9.6e-05  1.023713  0.0
H  H46  1  0.24327185  0.10189006  0.87483168  1  0.112562  0.000148  0.941637  0.0  0.123572  -5.9e-05  0.996895  0.0  0.126212  1.6e-05  0.995761  0.0  0.158606  -0.000585  0.122486  0.121634  -0.000133  0.997873  0.0
H  H47  1  0.75672091  0.89810407  0.12516909  1  0.112592  -0.000146  0.941653  0.0  0.123575  5.9e-05  0.996946  0.0  0.126216  -1.7e-05  0.995809  0.0  0.158602  0.000585  0.122497  0.121634  0.000133  0.997929  0.0
H  H48  1  0.24896034  0.07584972  0.06899154  1  0.102071  -0.000242  0.987186  0.0  0.111439  -0.000398  1.051459  0.0  0.113784  -0.000292  1.050982  0.0  0.099386  -0.000933  0.114255  0.109431  -0.000594  1.052364  0.0
H  H49  1  0.75103342  0.92415017  0.93101142  1  0.10204  0.000242  0.987128  0.0  0.111422  0.000399  1.051394  0.0  0.113771  0.000292  1.050915  0.0  0.099434  0.000933  0.114254  0.109419  0.000594  1.052287  0.0
H  H50  1  0.70600003  0.20706928  0.21906169  1  0.106364  -7e-06  0.965919  0.0  0.123525  -5e-06  1.033772  0.0  0.124802  -1.1e-05  1.03411  0.0  0.067577  8.4e-05  0.090633  0.122618  9e-06  1.033491  0.0
H  H51  1  0.29399832  0.79292869  0.78093324  1  0.106367  1.1e-05  0.965841  0.0  0.123524  5e-06  1.033712  0.0  0.1248  1.1e-05  1.034051  0.0  0.067578  -8.3e-05  0.090663  0.122618  -8e-06  1.033428  0.0
H  H52  1  0.59391337  0.10442181  0.26211969  1  0.116509  1e-05  0.95439  0.0  0.140708  2.3e-05  1.009381  0.0  0.141752  1.8e-05  1.009432  0.0  0.044074  3.9e-05  0.095212  0.139787  2.4e-05  1.009494  0.0
H  H53  1  0.40608860  0.89558000  0.73787572  1  0.116495  -8e-06  0.954408  0.0  0.140699  -2.3e-05  1.009397  0.0  0.141742  -1.8e-05  1.009445  0.0  0.043954  -3.6e-05  0.095214  0.139783  -2.2e-05  1.009504  0.0
H  H54  1  0.54462862  0.24131522  0.23708782  1  0.115692  5e-06  0.932935  0.0  0.137498  -5e-06  0.992271  0.0  0.138533  -4e-06  0.992555  0.0  0.050011  6.6e-05  0.095408  0.136776  2e-06  0.991971  0.0
H  H55  1  0.45537547  0.75868179  0.76290586  1  0.115737  0.0  0.932818  0.0  0.137549  4e-06  0.992149  0.0  0.138584  4e-06  0.992436  0.0  0.04994  -6.5e-05  0.095435  0.136831  -1e-06  0.991844  0.0
C  C56  1  0.93224037  0.27146556  0.77464756  1  0.613619  -0.004044  3.953007  -0.002  0.570239  -0.008027  4.236388  -0.005  0.603756  -0.006453  4.232218  -0.004  1.556002  -0.008058  0.189944  0.547346  -0.009719  4.237743  -0.006
C  C57  1  0.06776258  0.72853625  0.22535152  1  0.613626  0.004024  3.952761  0.002  0.570252  0.008025  4.23615  0.005  0.603773  0.006452  4.231976  0.004  1.556043  0.008086  0.18998  0.547367  0.009742  4.2375  0.006
C  C58  1  0.78901879  0.20863504  0.73990844  1  -0.064828  0.002209  3.805223  0.002  -0.038892  0.001358  4.039945  0.001  -0.046296  0.001701  4.062339  0.002  -0.027078  0.000505  -0.025471  -0.034695  0.000876  4.02578  0.001
C  C59  1  0.21098301  0.79136581  0.26008960  1  -0.064746  -0.002025  3.805156  -0.002  -0.038829  -0.001354  4.039891  -0.001  -0.046234  -0.001704  4.062276  -0.002  -0.027264  -0.000469  -0.025397  -0.034612  -0.000848  4.025711  -0.001
C  C60  1  0.75619386  0.08133615  0.67502648  1  -0.135765  -0.002693  3.704938  -0.002  -0.167106  -0.003315  3.945578  -0.003  -0.166602  -0.002771  3.963763  -0.002  -0.086334  -0.004042  -0.091162  -0.166521  -0.003075  3.932848  -0.002
C  C61  1  0.24380597  0.91866470  0.32497069  1  -0.135821  0.002485  3.704867  0.002  -0.167157  0.003318  3.945515  0.003  -0.166651  0.002767  3.963696  0.002  -0.086323  0.004139  -0.091173  -0.166525  0.003152  3.932738  0.002
C  C62  1  0.62266519  0.02253683  0.64064609  1  0.123891  0.001307  3.784948  0.001  0.154989  0.000614  4.022247  0.001  0.153681  0.000829  4.047703  0.001  0.033887  0.000645  -0.018458  0.155655  0.000518  4.004572  0.001
C  C63  1  0.37733284  0.97746499  0.35935262  1  0.123984  -0.001125  3.784935  -0.001  0.155047  -0.000619  4.022271  -0.001  0.15374  -0.000823  4.047721  -0.001  0.033867  -0.000656  -0.018416  0.155721  -0.000526  4.004583  -0.001
C  C64  1  0.52235951  0.09450818  0.67212547  1  -0.142348  -0.002346  3.72376  -0.002  -0.173694  -0.002811  3.971308  -0.002  -0.173557  -0.002371  3.989537  -0.002  -0.150972  -0.00351  -0.091526  -0.17292  -0.002542  3.95854  -0.002
C  C65  1  0.47764148  0.90549940  0.32787629  1  -0.142258  0.002115  3.723976  0.002  -0.173615  0.002814  3.971517  0.002  -0.173479  0.002367  3.98975  0.002  -0.150373  0.003599  -0.091381  -0.172795  0.002612  3.958702  0.002
C  C66  1  0.55366084  0.22232803  0.73687333  1  -0.066246  0.001281  3.788193  0.001  -0.040477  0.000847  4.023772  0.001  -0.047985  0.001215  4.045974  0.001  -0.055588  -0.000259  -0.024573  -0.035907  0.00037  4.009494  0.0
C  C67  1  0.44634195  0.77767858  0.26312978  1  -0.066273  -0.001077  3.788347  -0.001  -0.040509  -0.000843  4.023904  -0.001  -0.04802  -0.001215  4.046108  -0.001  -0.056256  0.000291  -0.024566  -0.03592  -0.000344  4.009607  0.0
C  C68  1  0.68719514  0.27805638  0.77089401  1  -0.080757  -0.0018  3.734373  -0.002  -0.120156  -0.002159  3.986023  -0.002  -0.118561  -0.001849  4.005495  -0.002  -0.006655  -0.004606  -0.085654  -0.121312  -0.003414  3.974004  -0.003
C  C69  1  0.31280847  0.72194928  0.22910820  1  -0.080802  0.001598  3.734367  0.002  -0.120195  0.002149  3.985996  0.002  -0.118589  0.001857  4.005485  0.002  -0.006029  0.004602  -0.085657  -0.121341  0.003411  3.973946  0.003
C  C70  1  0.44621748  0.30069894  0.76982915  1  0.620331  -0.004303  3.95687  -0.003  0.574341  -0.00819  4.24966  -0.006  0.608019  -0.00647  4.244069  -0.004  1.550676  -0.008383  0.194952  0.551294  -0.009967  4.252261  -0.007
C  C71  1  0.55378333  0.69930191  0.23017529  1  0.620304  0.00426  3.95689  0.003  0.574338  0.008191  4.249662  0.006  0.608017  0.006471  4.244073  0.004  1.550784  0.008403  0.194902  0.5513  0.009987  4.252249  0.007
C  C72  1  0.58873615  0.88539148  0.57172390  1  -0.332248  -2.8e-05  3.746004  0.0  -0.414533  5e-06  3.983109  0.0  -0.417205  -3e-06  3.994758  0.0  -0.045472  1e-05  -0.241936  -0.412331  4.1e-05  3.97506  0.0
C  C73  1  0.41126204  0.11461130  0.42827218  1  -0.33221  4e-05  3.74612  0.0  -0.414534  -6e-06  3.983235  0.0  -0.417193  3e-06  3.994895  0.0  -0.045478  -6e-06  -0.241983  -0.412339  -3.8e-05  3.975145  0.0
C  C74  1  0.34528706  0.64688387  0.92168086  1  0.181295  -0.0066  3.608543  -0.006  0.119969  -0.008953  3.873782  -0.008  0.135026  -0.007636  3.883775  -0.007  0.937418  -0.012434  0.153809  0.109939  -0.010524  3.866714  -0.009
C  C75  1  0.65470833  0.35310833  0.07831389  1  0.181266  0.006662  3.608518  0.006  0.120001  0.008954  3.873708  0.008  0.13506  0.007637  3.883698  0.007  0.937088  0.012425  0.153872  0.109981  0.010514  3.866631  0.009
C  C76  1  0.14381271  0.63505750  0.96063816  1  0.019421  -0.002425  3.733596  -0.003  -0.015998  -0.00388  4.003801  -0.004  -0.012762  -0.003317  4.022512  -0.004  0.496097  -0.005891  0.004792  -0.018521  -0.004478  3.991316  -0.005
C  C77  1  0.85618941  0.36493951  0.03936113  1  0.019467  0.002501  3.73367  0.003  -0.015956  0.003879  4.003886  0.004  -0.012721  0.003318  4.0226  0.004  0.495998  0.005889  0.004794  -0.01847  0.004476  3.991379  0.005
C  C78  1  0.19707229  0.76317435  0.99241130  1  -0.073881  0.001182  3.680913  0.001  -0.114596  0.000189  3.941171  0.0  -0.11422  0.000657  3.95993  0.0  0.189398  -0.000526  -0.005126  -0.114662  -0.00018  3.929115  0.0
C  C79  1  0.80293032  0.23682554  0.00758369  1  -0.073803  -0.001248  3.680832  -0.001  -0.114502  -0.00019  3.941108  0.0  -0.114133  -0.000656  3.959868  0.0  0.189336  0.000527  -0.00507  -0.114564  0.00018  3.928987  0.0
C  C80  1  0.41527782  0.88568368  0.98184239  1  0.119068  0.000252  3.764352  0.0  0.103445  0.00011  4.016887  0.0  0.107221  0.000197  4.039583  0.0  0.290129  0.000298  0.091789  0.100664  0.000106  4.001773  0.0
C  C81  1  0.58472659  0.11430948  0.01814967  1  0.118916  -0.000238  3.764373  0.0  0.103208  -0.000108  4.017037  0.0  0.106937  -0.000199  4.039796  0.0  0.290425  -0.000326  0.091622  0.100456  -0.000129  4.001879  0.0
C  C82  1  0.46316341  0.96390464  0.08178800  1  -0.184915  -0.000703  3.723535  -0.001  -0.212424  -0.000714  3.978307  -0.001  -0.215315  -0.000629  3.998013  0.0  0.021015  -0.001125  -0.086262  -0.210447  -0.000911  3.965394  -0.001
C  C83  1  0.53684133  0.03609045  0.91820527  1  -0.184695  0.000674  3.723539  0.001  -0.212211  0.000712  3.978334  0.001  -0.21509  0.000633  3.998058  0.0  0.021148  0.001109  -0.086131  -0.210234  0.000898  3.965378  0.001
C  C84  1  0.54927315  0.08035190  0.10267737  1  0.086889  0.000628  3.749419  0.001  0.10583  0.000565  3.995331  0.001  0.105539  0.000524  4.018654  0.0  -0.014089  0.001051  -0.004771  0.105834  0.000803  3.979688  0.001
C  C85  1  0.45072406  0.91965088  0.89731936  1  0.086772  -0.000614  3.749526  -0.001  0.105676  -0.000567  3.995451  -0.001  0.105374  -0.000523  4.018758  0.0  -0.014662  -0.001054  -0.00488  0.105697  -0.000806  3.979799  -0.001
C  C86  1  0.13861969  0.54400188  0.67517802  1  0.006103  -0.001385  3.754778  -0.002  -0.026289  -0.002648  4.023511  -0.003  -0.024145  -0.002068  4.043772  -0.003  0.389916  -0.00494  0.003035  -0.027865  -0.003276  4.00972  -0.004
C  C87  1  0.86138555  0.45599609  0.32482533  1  0.006094  0.001346  3.75474  0.002  -0.0263  0.002649  4.023518  0.003  -0.024151  0.00207  4.043773  0.003  0.389806  0.004938  0.003016  -0.027873  0.003274  4.009715  0.004
C  C88  1  0.14976933  0.55002176  0.57906411  1  -0.076553  0.00029  3.690614  0.0  -0.118487  -0.000389  3.954158  0.0  -0.117295  5e-06  3.972401  0.0  0.303889  -0.001037  -0.004017  -0.119153  -0.000716  3.94193  0.0
C  C89  1  0.85022836  0.44997813  0.42093843  1  -0.076575  -0.00022  3.690678  0.0  -0.118519  0.000388  3.954213  0.0  -0.117324  -6e-06  3.972453  0.0  0.303693  0.001037  -0.004038  -0.119172  0.000716  3.941934  0.0
C  C90  1  0.20923181  0.36991074  0.59391872  1  0.168645  -0.003059  3.641884  -0.003  0.109725  -0.005366  3.905424  -0.005  0.123397  -0.004441  3.917429  -0.004  0.988178  -0.007894  0.149906  0.100601  -0.006354  3.897298  -0.006
C  C91  1  0.79076966  0.63008819  0.40608027  1  0.168624  0.003054  3.641704  0.003  0.109728  0.005367  3.905275  0.005  0.123399  0.004442  3.91728  0.004  0.988224  0.007893  0.149946  0.100608  0.006354  3.897148  0.006
C  C92  1  0.20761702  0.39493126  0.42176959  1  0.110068  -0.00052  3.78242  0.0  0.093154  -0.000725  4.039681  -0.001  0.096886  -0.000556  4.063339  0.0  0.291238  -0.001073  0.087245  0.090624  -0.00097  4.023819  -0.001
C  C93  1  0.79238298  0.60507055  0.57823286  1  0.11022  0.000517  3.782261  0.0  0.093349  0.000728  4.039456  0.001  0.097081  0.000557  4.063115  0.0  0.290778  0.001073  0.087334  0.090817  0.00097  4.02359  0.001
C  C94  1  0.29532704  0.46717752  0.38066459  1  0.094318  -3.2e-05  3.741397  0.0  0.113158  -0.000145  3.986908  0.0  0.113212  -8.5e-05  4.010124  0.0  0.010465  -0.000155  -0.004199  0.113131  -0.00015  3.971462  0.0
C  C95  1  0.70467296  0.53282430  0.61933787  1  0.094323  3.2e-05  3.741337  0.0  0.113154  0.000143  3.986831  0.0  0.113206  8.4e-05  4.010051  0.0  0.010496  0.000155  -0.00414  0.113119  0.00015  3.971391  0.0
C  C96  1  0.29708296  0.41962209  0.27550282  1  -0.183199  -9.7e-05  3.692481  0.0  -0.211333  -0.00019  3.943376  0.0  -0.215066  -0.000169  3.962718  0.0  0.02427  -0.000243  -0.084474  -0.20902  -0.000235  3.930793  0.0
C  C97  1  0.70291834  0.58037587  0.72450024  1  -0.183185  9.9e-05  3.692483  0.0  -0.211327  0.000189  3.943414  0.0  -0.215056  0.000173  3.962754  0.0  0.02428  0.000244  -0.084461  -0.209006  0.000236  3.930813  0.0
C  C98  1  0.21338433  0.30690433  0.21422091  1  0.124165  -0.000407  3.751271  0.0  0.110133  -0.00053  3.998827  0.0  0.11435  -0.000381  4.021561  0.0  0.320723  -0.000681  0.092929  0.107186  -0.000684  3.983535  -0.001
C  C99  1  0.78661501  0.69309364  0.78578200  1  0.124242  0.000386  3.751083  0.0  0.110189  0.000534  3.998713  0.0  0.114405  0.000376  4.021447  0.0  0.320811  0.000683  0.092932  0.107242  0.000685  3.983399  0.001
C  C100  1  0.12709266  0.23280011  0.25540247  1  0.084465  -0.000155  3.752985  0.0  0.106089  -0.000296  3.995836  0.0  0.105826  -0.000224  4.019666  0.0  -0.011076  -0.00053  -0.006032  0.106148  -0.000434  3.979744  0.0
C  C101  1  0.87290225  0.76720074  0.74459937  1  0.084478  0.000183  3.752905  0.0  0.106065  0.000295  3.995806  0.0  0.105802  0.000226  4.019642  0.0  -0.011351  0.00053  -0.006068  0.106129  0.000434  3.979702  0.0
C  C102  1  0.12759565  0.27986340  0.36073136  1  -0.194749  2e-05  3.7566  0.0  -0.224568  -7.1e-05  4.014764  0.0  -0.228798  -2.7e-05  4.03628  0.0  -0.029146  -0.000146  -0.089745  -0.221711  -0.000113  4.000221  0.0
C  C103  1  0.87240434  0.72013841  0.63927253  1  -0.194809  -3.4e-05  3.756554  0.0  -0.224591  7e-05  4.01469  0.0  -0.228824  2.6e-05  4.03621  0.0  -0.028743  0.000146  -0.089753  -0.22173  0.000114  4.000133  0.0
C  C104  1  0.03367397  0.11236694  0.19220956  1  -0.330946  -7.4e-05  3.743499  0.0  -0.415749  -9.1e-05  3.987539  0.0  -0.417406  -8.8e-05  3.996814  0.0  -0.079817  -5e-05  -0.238994  -0.414302  -0.000118  3.981224  0.0
C  C105  1  0.96631996  0.88763392  0.80779436  1  -0.331003  5.8e-05  3.743463  0.0  -0.41582  9e-05  3.987615  0.0  -0.417463  8.8e-05  3.996855  0.0  -0.07978  5.1e-05  -0.239065  -0.414379  0.000119  3.981284  0.0
C  C106  1  0.38366398  0.59070473  0.44389340  1  -0.327832  -2.2e-05  3.730007  0.0  -0.411795  -7.6e-05  3.971673  0.0  -0.413754  -5.7e-05  3.981917  0.0  -0.038443  -8.2e-05  -0.237086  -0.410173  -9.4e-05  3.96467  0.0
C  C107  1  0.61633667  0.40929516  0.55610720  1  -0.327805  1.4e-05  3.72988  0.0  -0.411741  7.6e-05  3.971534  0.0  -0.413707  5.7e-05  3.981774  0.0  -0.038392  8.2e-05  -0.237065  -0.410123  9.4e-05  3.964518  0.0
C  C108  1  0.20351292  0.35313524  0.05034948  1  0.177616  -0.004162  3.610793  -0.004  0.119224  -0.006598  3.874714  -0.006  0.132951  -0.005536  3.886394  -0.005  0.951143  -0.009278  0.155888  0.10989  -0.007768  3.867177  -0.007
C  C109  1  0.79648281  0.64686465  0.94965435  1  0.17769  0.004198  3.611019  0.005  0.1193  0.006597  3.874889  0.006  0.133026  0.005538  3.886572  0.005  0.951543  0.009276  0.155915  0.109986  0.007766  3.86732  0.007
C  C110  1  0.23074351  0.16946209  0.94681269  1  0.012641  -0.001391  3.738895  -0.002  -0.020072  -0.002724  4.004279  -0.003  -0.018031  -0.002167  4.024639  -0.003  0.343337  -0.004883  0.004659  -0.021581  -0.003276  3.990397  -0.003
C  C111  1  0.76925435  0.83053877  0.05319009  1  0.012626  0.001377  3.738906  0.002  -0.02007  0.002723  4.004296  0.003  -0.018026  0.002171  4.024648  0.003  0.343313  0.004883  0.004632  -0.021584  0.003275  3.990426  0.003
C  C112  1  0.23190966  0.15452532  0.04124328  1  -0.081323  0.000447  3.704762  0.0  -0.120307  -0.000327  3.963469  0.0  -0.119596  0.000104  3.983302  0.0  0.3131  -0.001064  -0.00839  -0.12043  -0.0007  3.950034  0.0
C  C113  1  0.76808475  0.84547265  0.95876070  1  -0.081281  -0.00043  3.704896  0.0  -0.120275  0.000326  3.963572  0.0  -0.119569  -0.000102  3.983407  0.0  0.313159  0.001067  -0.00842  -0.120385  0.000702  3.950098  0.0
C  C114  1  0.60150338  0.16232147  0.21085407  1  -0.331852  -5.2e-05  3.72833  0.0  -0.413062  -7e-06  3.963399  0.0  -0.4148  -2.3e-05  3.972893  0.0  -0.072823  5.3e-05  -0.238652  -0.411574  1.4e-05  3.956903  0.0
C  C115  1  0.39849842  0.83767939  0.78914325  1  -0.331923  3e-05  3.72822  0.0  -0.413124  9e-06  3.9633  0.0  -0.414861  2.3e-05  3.972794  0.0  -0.072541  -5.1e-05  -0.238716  -0.41164  -1.3e-05  3.956786  0.0
N  N116  1  0.23680157  0.56382721  0.91685615  1  -0.37007  -0.025647  3.232317  -0.009  -0.301479  -0.030886  3.527569  -0.008  -0.32259  -0.027358  3.540408  -0.006  -1.225071  -0.050833  -0.33975  -0.28588  -0.033823  3.518284  -0.01
N  N117  1  0.76319841  0.43616884  0.08314059  1  -0.370202  0.025603  3.232254  0.009  -0.30167  0.030887  3.527564  0.008  -0.322779  0.027359  3.540397  0.006  -1.224825  0.050818  -0.339852  -0.286099  0.033821  3.518306  0.01
N  N118  1  0.32512313  0.76973154  0.96665309  1  -0.102974  -0.001184  3.622036  -0.001  -0.010596  -0.002527  3.835104  -0.002  -0.025433  -0.001917  3.860956  -0.002  -1.274859  -0.005207  -0.232193  -0.00072  -0.003159  3.817497  -0.003
N  N119  1  0.67487849  0.23026259  0.03333971  1  -0.102917  0.001161  3.621998  0.001  -0.01054  0.002528  3.835095  0.002  -0.025364  0.001913  3.860959  0.002  -1.274617  0.005201  -0.232211  -0.000667  0.003157  3.817461  0.003
N  N120  1  0.17693359  0.43208285  0.68352634  1  -0.347057  -0.025584  3.231314  -0.013  -0.280022  -0.030191  3.515054  -0.013  -0.299967  -0.027362  3.530148  -0.011  -1.224435  -0.048536  -0.330531  -0.265644  -0.032901  3.504568  -0.015
N  N121  1  0.82307034  0.56791319  0.31647357  1  -0.346943  0.025584  3.231152  0.013  -0.279953  0.030189  3.514938  0.013  -0.299898  0.027359  3.53003  0.011  -1.224482  0.048522  -0.330455  -0.26561  0.032888  3.504493  0.015
N  N122  1  0.19484835  0.43822769  0.52762978  1  -0.100688  -0.000922  3.626803  -0.001  -0.008718  -0.002043  3.840498  -0.002  -0.023567  -0.001571  3.866714  -0.002  -1.257433  -0.004004  -0.231832  0.001076  -0.00254  3.822737  -0.002
N  N123  1  0.80515280  0.56177509  0.47237299  1  -0.100716  0.000915  3.626835  0.001  -0.008761  0.002044  3.840519  0.002  -0.023608  0.00157  3.866734  0.002  -1.257034  0.004003  -0.231888  0.001043  0.00254  3.822731  0.002
N  N124  1  0.21465560  0.27205284  0.10689879  1  -0.093674  -0.001087  3.606186  -0.001  -0.000932  -0.002235  3.813657  -0.002  -0.015898  -0.001731  3.839772  -0.002  -1.290023  -0.004371  -0.229922  0.009138  -0.002734  3.795848  -0.003
N  N125  1  0.78534620  0.72794801  0.89310572  1  -0.093773  0.001059  3.606404  0.001  -0.001026  0.002238  3.813871  0.002  -0.015991  0.001723  3.839989  0.002  -1.289989  0.004372  -0.229878  0.009054  0.002734  3.796024  0.003
N  N126  1  0.21240062  0.29319019  0.95358520  1  -0.352851  -0.026789  3.217193  -0.013  -0.286274  -0.031917  3.505063  -0.013  -0.306736  -0.028696  3.519591  -0.011  -1.222524  -0.052001  -0.333972  -0.27141  -0.034909  3.495122  -0.015
N  N127  1  0.78759724  0.70681066  0.04641901  1  -0.352926  0.026782  3.217267  0.013  -0.286361  0.031917  3.505145  0.013  -0.306823  0.028699  3.519672  0.011  -1.222722  0.051983  -0.333985  -0.271531  0.034899  3.495233  0.015
O  O128  1  0.02276944  0.20357730  0.74704672  1  -0.633147  -0.031715  1.946214  -0.026  -0.575397  -0.035929  2.182438  -0.027  -0.605069  -0.031059  2.172015  -0.023  -1.182986  -0.059292  -0.331173  -0.552817  -0.040394  2.189278  -0.032
O  O129  1  0.97723384  0.79642643  0.25295787  1  -0.633167  0.03172  1.946048  0.026  -0.575429  0.035928  2.182271  0.027  -0.605099  0.031053  2.171847  0.023  -1.182954  0.059298  -0.331161  -0.552834  0.0404  2.189091  0.032
O  O130  1  0.95957591  0.38936890  0.82915544  1  -0.643072  -0.019643  1.931191  -0.015  -0.590503  -0.028388  2.172264  -0.022  -0.618911  -0.024566  2.164809  -0.019  -1.204025  -0.044222  -0.323079  -0.568948  -0.032255  2.175938  -0.026
O  O131  1  0.04042949  0.61063003  0.17084240  1  -0.64311  0.019661  1.93106  0.015  -0.590511  0.028384  2.172059  0.022  -0.618919  0.024564  2.1646  0.019  -1.203949  0.04423  -0.323098  -0.568926  0.032267  2.175711  0.026
O  O132  1  0.32603788  0.23848550  0.75098886  1  -0.645999  -0.035197  1.999528  -0.026  -0.582264  -0.038956  2.25509  -0.025  -0.613091  -0.034282  2.242383  -0.021  -1.193037  -0.064169  -0.332329  -0.559034  -0.043133  2.263595  -0.029
O  O133  1  0.67396376  0.76152016  0.24901464  1  -0.646046  0.035206  1.999528  0.026  -0.582297  0.038954  2.255049  0.025  -0.613125  0.034275  2.242345  0.021  -1.193052  0.064177  -0.33231  -0.55906  0.043138  2.26354  0.029
O  O134  1  0.47807665  0.42042372  0.81274046  1  -0.630172  -0.005739  1.908692  -0.003  -0.586237  -0.012302  2.134658  -0.009  -0.610057  -0.010148  2.125445  -0.007  -1.1893  -0.019447  -0.324962  -0.568778  -0.014229  2.140065  -0.011
O  O135  1  0.52192351  0.57957905  0.18726080  1  -0.630147  0.005775  1.908672  0.003  -0.586238  0.012299  2.134651  0.009  -0.610056  0.010149  2.125437  0.007  -1.189272  0.019467  -0.32491  -0.568745  0.014242  2.140029  0.011
