# generated using pymatgen
data_Al2H20C17O11
_symmetry_space_group_name_H-M   'P 1'
_cell_length_a   6.65101060
_cell_length_b   14.30090536
_cell_length_c   16.00089970
_cell_angle_alpha   89.99979064
_cell_angle_beta   89.99963533
_cell_angle_gamma   98.06664551
_symmetry_Int_Tables_number   1
_chemical_formula_structural   Al2H20C17O11
_chemical_formula_sum   'Al4 H40 C34 O22'
_cell_volume   1506.87440104
_cell_formula_units_Z   2
loop_
 _symmetry_equiv_pos_site_id
 _symmetry_equiv_pos_as_xyz
  1  'x, y, z'
loop_
 _atom_site_type_symbol
 _atom_site_label
 _atom_site_symmetry_multiplicity
 _atom_site_fract_x
 _atom_site_fract_y
 _atom_site_fract_z
 _atom_site_occupancy
 _atom_site_pbe_bader_charge
 _atom_site_pbe_bader_spin_density
 _atom_site_pbe_cm5_charge
 _atom_site_pbe_ddec_charge
 _atom_site_pbe_ddec_spin_density
 _atom_site_pbe_ddec_sum_bond_order
 _atom_site_pbe_magmom
Al  Al0  1  0.17907824  0.75911890  0.50096279  1  2.499438  0  0.396359  1.638855  0  2.583843  0
Al  Al1  1  0.82091988  0.24088076  0.00096255  1  2.499412  0  0.396337  1.638985  0  2.583671  0
Al  Al2  1  0.67993764  0.76064604  0.50069072  1  2.500427  0  0.395431  1.641383  0  2.584722  0
Al  Al3  1  0.32006566  0.23935573  0.00069028  1  2.500504  0  0.395467  1.641526  0  2.584608  0
H  H4  1  0.21397932  0.86843621  0.25374333  1  0.051822  0  0.095672  0.096305  0  0.989271  0
H  H5  1  0.78601485  0.13155514  0.75375233  1  0.05168  0  0.095646  0.096257  0  0.98933  0
H  H6  1  0.96539699  0.83021668  0.21692358  1  0.019432  0  0.092207  0.087901  0  0.976069  0
H  H7  1  0.03459405  0.16977769  0.71693248  1  0.019263  0  0.092275  0.087981  0  0.976008  0
H  H8  1  0.02934843  0.93620672  0.10629370  1  0.012368  0  0.089943  0.083144  0  0.982812  0
H  H9  1  0.97066037  0.06379239  0.60630043  1  0.012511  0  0.089862  0.08294  0  0.982799  0
H  H10  1  0.26556354  0.98489553  0.14963578  1  0.024374  0  0.091329  0.088856  0  0.991358  0
H  H11  1  0.73444298  0.01510266  0.64963722  1  0.024397  0  0.091366  0.08893  0  0.991361  0
H  H12  1  0.27840919  0.00897583  0.34870866  1  0.037632  0  0.096074  0.097738  0  0.983903  0
H  H13  1  0.72159273  0.99101008  0.84871632  1  0.037377  0  0.096068  0.09775  0  0.983899  0
H  H14  1  0.28882422  0.12717245  0.24627734  1  0.053092  0  0.092359  0.090747  0  0.997203  0
H  H15  1  0.71117823  0.87282104  0.74627979  1  0.052912  0  0.092379  0.090724  0  0.997179  0
H  H16  1  0.71399366  0.00018462  0.34430632  1  0.025023  0  0.090127  0.087823  0  0.986359  0
H  H17  1  0.28602090  0.99981259  0.84430541  1  0.024805  0  0.0901  0.087835  0  0.986425  0
H  H18  1  0.66515958  0.90024586  0.28016229  1  0.035281  0  0.094626  0.09426  0  0.981977  0
H  H19  1  0.33483499  0.09975243  0.78015916  1  0.03529  0  0.094625  0.094296  0  0.981854  0
H  H20  1  0.70759991  0.99315710  0.15914262  1  0.036041  0  0.087353  0.080989  0  0.991474  0
H  H21  1  0.29239914  0.00683683  0.65914181  1  0.035951  0  0.087332  0.081004  0  0.991443  0
H  H22  1  0.72122313  0.09338023  0.22360857  1  0.034836  0  0.090609  0.087475  0  0.987112  0
H  H23  1  0.27877532  0.90661409  0.72360861  1  0.034736  0  0.090639  0.087536  0  0.987097  0
H  H24  1  0.07457906  0.05742609  0.39488195  1  0.013988  0  0.089972  0.082715  0  0.984472  0
H  H25  1  0.92543129  0.94255957  0.89488284  1  0.013688  0  0.090047  0.082762  0  0.984416  0
H  H26  1  0.06219419  0.16269346  0.28520359  1  0.020433  0  0.091034  0.086082  0  0.987954  0
H  H27  1  0.93780409  0.83729772  0.78520103  1  0.020291  0  0.091028  0.086036  0  0.987956  0
H  H28  1  0.67553908  0.56169361  0.29892989  1  0.084909  0  0.117968  0.132788  0  0.972794  0
H  H29  1  0.32447500  0.43830523  0.79892757  1  0.085045  0  0.117967  0.133086  0  0.972753  0
H  H30  1  0.77963683  0.44968167  0.20382712  1  0.087731  0  0.110611  0.144577  0  1.004564  0
H  H31  1  0.22036773  0.55031697  0.70382853  1  0.087719  0  0.110594  0.144562  0  1.004583  0
H  H32  1  0.20999222  0.55599580  0.30299670  1  0.105413  0  0.112087  0.128523  0  0.999413  0
H  H33  1  0.79001736  0.44400798  0.80299717  1  0.105281  0  0.112122  0.128585  0  0.999428  0
H  H34  1  0.02370023  0.34298321  0.19808576  1  0.103693  0  0.105296  0.119843  0  1.025109  0
H  H35  1  0.16323501  0.35326141  0.29521630  1  0.060623  0  0.090917  0.084057  0  0.999014  0
H  H36  1  0.25849378  0.29683489  0.20553877  1  0.071459  0  0.100011  0.100964  0  1.045885  0
H  H37  1  0.97630808  0.65703665  0.69812054  1  0.103506  0  0.105254  0.119794  0  1.025046  0
H  H38  1  0.83669418  0.64675892  0.79523283  1  0.060347  0  0.090975  0.08398  0  0.998944  0
H  H39  1  0.74150431  0.70318143  0.70554044  1  0.071177  0  0.099996  0.100945  0  1.045973  0
H  H40  1  0.46245413  0.87722064  0.53428775  1  0.604052  0  0.35099  0.427738  0  0.858756  0
H  H41  1  0.53753350  0.12278030  0.03429010  1  0.604056  0  0.351018  0.427853  0  0.858536  0
H  H42  1  0.89007227  0.64034679  0.53089949  1  0.645452  0  0.353839  0.43517  0  0.848619  0
H  H43  1  0.10992643  0.35966050  0.03088312  1  0.645321  0  0.353859  0.435174  0  0.848654  0
C  C44  1  0.40265202  0.64819151  0.38781271  1  1.543775  0  0.259701  0.673637  0  4.115807  0
C  C45  1  0.59735754  0.35181044  0.88780975  1  1.5441  0  0.259689  0.673708  0  4.115864  0
C  C46  1  0.39153040  0.64324534  0.61361566  1  1.552819  0  0.254079  0.694945  0  4.11089  0
C  C47  1  0.60846919  0.35676295  0.11360826  1  1.55257  0  0.254132  0.695011  0  4.110848  0
C  C48  1  0.95980242  0.87471139  0.61497738  1  1.548972  0  0.272205  0.636226  0  4.031133  0
C  C49  1  0.04019898  0.12528840  0.11497826  1  1.549043  0  0.272159  0.636082  0  4.031326  0
C  C50  1  0.96837670  0.87008315  0.38684645  1  1.580374  0  0.27654  0.638357  0  4.027976  0
C  C51  1  0.03162419  0.12991035  0.88685049  1  1.580268  0  0.276696  0.638692  0  4.02765  0
C  C52  1  0.07063787  0.89289804  0.23599765  1  -0.022499  0  -0.156605  -0.171754  0  3.854371  0
C  C53  1  0.92936171  0.10709550  0.73600501  1  -0.023007  0  -0.156598  -0.171721  0  3.85443  0
C  C54  1  0.10335527  0.96579887  0.16387904  1  -0.026026  0  -0.155989  -0.168298  0  3.853876  0
C  C55  1  0.89664206  0.03419928  0.66388486  1  -0.026136  0  -0.155889  -0.168055  0  3.853712  0
C  C56  1  0.12679964  0.02809645  0.33645707  1  -0.011021  0  -0.156551  -0.173007  0  3.856563  0
C  C57  1  0.87320633  0.97189233  0.83646117  1  -0.010881  0  -0.156713  -0.173162  0  3.856785  0
C  C58  1  0.77295345  0.96474746  0.29050080  1  -0.023902  0  -0.162398  -0.179419  0  3.883811  0
C  C59  1  0.22704866  0.03524651  0.79050011  1  -0.023541  0  -0.162408  -0.179507  0  3.883877  0
C  C60  1  0.98188559  0.93761257  0.31307360  1  0.031776  0  -0.015018  0.014975  0  3.812401  0
C  C61  1  0.01811234  0.06237848  0.81307852  1  0.032505  0  -0.015052  0.014807  0  3.812509  0
C  C62  1  0.01426899  0.05647788  0.18811056  1  0.053978  0  -0.016313  0.012312  0  3.807396  0
C  C63  1  0.98573037  0.94351802  0.68811062  1  0.054633  0  -0.016364  0.012116  0  3.807568  0
C  C64  1  0.13204039  0.10114798  0.26488784  1  -0.055615  0  -0.158171  -0.172275  0  3.855198  0
C  C65  1  0.86796055  0.89884613  0.76488844  1  -0.055169  0  -0.158165  -0.172107  0  3.855132  0
C  C66  1  0.79015776  0.02902966  0.21232919  1  -0.061977  0  -0.165038  -0.177993  0  3.893579  0
C  C67  1  0.20983761  0.97096401  0.71232863  1  -0.062265  0  -0.164996  -0.177978  0  3.893653  0
C  C68  1  0.36820681  0.57803433  0.31990108  1  -0.034281  0  -0.081624  -0.204862  0  3.895958  0
C  C69  1  0.63180490  0.42196724  0.81989840  1  -0.034036  0  -0.081704  -0.204935  0  3.896091  0
C  C70  1  0.51715885  0.53931628  0.28159554  1  -0.013733  0  -0.075734  -0.133614  0  3.972092  0
C  C71  1  0.48285506  0.46068618  0.78159761  1  -0.013798  0  -0.075638  -0.133994  0  3.972384  0
C  C72  1  0.62576987  0.42613658  0.18185866  1  0.013895  0  -0.106795  -0.38139  0  3.849478  0
C  C73  1  0.37423547  0.57386853  0.68186572  1  0.013987  0  -0.106727  -0.381296  0  3.849535  0
C  C74  1  0.47313465  0.46641781  0.21817305  1  0.496593  0  0.101252  0.307357  0  4.052211  0
C  C75  1  0.52686828  0.53358571  0.71817661  1  0.496463  0  0.101207  0.307193  0  4.052505  0
C  C76  1  0.17496739  0.35327944  0.22650452  1  0.323147  0  -0.143911  -0.179794  0  3.894177  0
C  C77  1  0.82501459  0.64673895  0.72652046  1  0.323628  0  -0.143857  -0.179705  0  3.89412  0
O  O78  1  0.56292675  0.66443560  0.57743300  1  -1.263576  0  -0.238994  -0.607268  0  2.367657  0
O  O79  1  0.43706947  0.33557501  0.07742499  1  -1.263742  0  -0.238964  -0.607296  0  2.367528  0
O  O80  1  0.24137000  0.66657020  0.42378280  1  -1.251822  0  -0.235952  -0.590645  0  2.320879  0
O  O81  1  0.75863326  0.33342735  0.92377874  1  -1.252444  0  -0.235913  -0.590578  0  2.320904  0
O  O82  1  0.12860580  0.83653976  0.40745113  1  -1.26441  0  -0.234452  -0.585504  0  2.33906  0
O  O83  1  0.87139333  0.16345364  0.90745725  1  -1.264174  0  -0.234543  -0.585734  0  2.339142  0
O  O84  1  0.22809454  0.67627835  0.59405386  1  -1.250288  0  -0.244965  -0.606535  0  2.302788  0
O  O85  1  0.77190290  0.32372721  0.09404789  1  -1.249975  0  -0.245025  -0.606678  0  2.302953  0
O  O86  1  0.11982539  0.85484352  0.57932083  1  -1.263287  0  -0.238567  -0.604414  0  2.366148  0
O  O87  1  0.88017825  0.14516210  0.07932758  1  -1.263234  0  -0.238531  -0.604327  0  2.366191  0
O  O88  1  0.58346482  0.68332039  0.40676128  1  -1.250568  0  -0.234693  -0.581619  0  2.305078  0
O  O89  1  0.41654594  0.31667652  0.90675530  1  -1.25052  0  -0.234709  -0.581767  0  2.305185  0
O  O90  1  0.44628763  0.81820336  0.50361835  1  -1.40865  0  -0.448303  -0.989623  0  2.198925  0
O  O91  1  0.55371714  0.18179839  0.00362107  1  -1.408701  0  -0.448296  -0.989758  0  2.198683  0
O  O92  1  0.77826798  0.84237712  0.59397205  1  -1.263364  0  -0.243357  -0.611524  0  2.361598  0
O  O93  1  0.22173570  0.15762914  0.09397284  1  -1.263364  0  -0.243366  -0.611537  0  2.361685  0
O  O94  1  0.79879176  0.85348084  0.42453152  1  -1.275126  0  -0.233489  -0.59169  0  2.380455  0
O  O95  1  0.20121404  0.14651529  0.92453056  1  -1.275181  0  -0.233563  -0.591774  0  2.38028  0
O  O96  1  0.91134031  0.70148605  0.50363838  1  -1.447741  0  -0.449455  -0.992299  0  2.198455  0
O  O97  1  0.08865650  0.29851431  0.00363416  1  -1.447624  0  -0.449484  -0.992316  0  2.198469  0
O  O98  1  0.27188337  0.44447387  0.19838079  1  -1.084945  0  -0.202228  -0.192131  0  2.528987  0
O  O99  1  0.72811976  0.55554389  0.69838923  1  -1.084695  0  -0.202323  -0.192007  0  2.528793  0
