# generated using pymatgen
data_CdH14C19(N4O3)2
_symmetry_space_group_name_H-M   'P 1'
_cell_length_a   9.68389515
_cell_length_b   9.75558354
_cell_length_c   11.16787157
_cell_angle_alpha   80.40410427
_cell_angle_beta   88.59023140
_cell_angle_gamma   89.27479907
_symmetry_Int_Tables_number   1
_chemical_formula_structural   CdH14C19(N4O3)2
_chemical_formula_sum   'Cd2 H28 C38 N16 O12'
_cell_volume   1039.93533640
_cell_formula_units_Z   2
loop_
 _symmetry_equiv_pos_site_id
 _symmetry_equiv_pos_as_xyz
  1  'x, y, z'
loop_
 _atom_site_type_symbol
 _atom_site_label
 _atom_site_symmetry_multiplicity
 _atom_site_fract_x
 _atom_site_fract_y
 _atom_site_fract_z
 _atom_site_occupancy
 _atom_site_hle17_bader_spin_density
 _atom_site_hle17_ddec_charge
 _atom_site_hle17_ddec_spin_density
 _atom_site_hle17_ddec_sum_bond_order
 _atom_site_hle17_magmom
 _atom_site_hse06_10hf_bader_spin_density
 _atom_site_hse06_10hf_ddec_charge
 _atom_site_hse06_10hf_ddec_spin_density
 _atom_site_hse06_10hf_ddec_sum_bond_order
 _atom_site_hse06_10hf_magmom
 _atom_site_hse06_bader_spin_density
 _atom_site_hse06_ddec_charge
 _atom_site_hse06_ddec_spin_density
 _atom_site_hse06_ddec_sum_bond_order
 _atom_site_hse06_magmom
 _atom_site_pbe_bader_spin_density
 _atom_site_pbe_cm5_charge
 _atom_site_pbe_ddec_charge
 _atom_site_pbe_ddec_spin_density
 _atom_site_pbe_ddec_sum_bond_order
 _atom_site_pbe_magmom
Cd  Cd0  1  0.70311604  0.86979401  0.25787752  1  0  1.045061  0  1.748542  0  0  0.835776  0  2.205308  0  0  0.890865  0  2.157886  0  0  0.792904  0.796007  0  2.238251  0
Cd  Cd1  1  0.29688422  0.13020609  0.74212157  1  0  1.045085  0  1.748473  0  0  0.835823  0  2.205224  0  0  0.890909  0  2.157768  0  0  0.792904  0.796054  0  2.238164  0
H  H2  1  0.37322183  0.86768810  0.26635021  1  0  0.09028  0  0.939425  0  0  0.100905  0  0.998102  0  0  0.102927  0  0.996991  0  0  0.121734  0.099381  0  0.99906  0
H  H3  1  0.62677635  0.13231303  0.73364878  1  0  0.090275  0  0.939407  0  0  0.100902  0  0.998085  0  0  0.102925  0  0.996944  0  0  0.121735  0.099373  0  0.999062  0
H  H4  1  0.05575705  0.42585963  0.24308868  1  0  0.092416  0  0.914314  0  0  0.105334  0  0.977795  0  0  0.105549  0  0.978343  0  0  0.13523  0.105057  0  0.977602  0
H  H5  1  0.94424324  0.57413735  0.75691086  1  0  0.092519  0  0.914456  0  0  0.10544  0  0.977893  0  0  0.105659  0  0.978439  0  0  0.13529  0.10515  0  0.977709  0
H  H6  1  0.16625093  0.28005546  0.22808861  1  0  0.104354  0  0.956513  0  0  0.112133  0  1.024016  0  0  0.113936  0  1.022074  0  0  0.134694  0.110699  0  1.02551  0
H  H7  1  0.83374934  0.71994360  0.77191063  1  0  0.10441  0  0.956507  0  0  0.112184  0  1.024004  0  0  0.113971  0  1.022086  0  0  0.134699  0.110751  0  1.025495  0
H  H8  1  0.80924111  0.42372909  0.37142150  1  0  0.115943  0  0.987322  0  0  0.117477  0  1.06218  0  0  0.121517  0  1.059435  0  0  0.102353  0.114558  0  1.064311  0
H  H9  1  0.19075912  0.57627308  0.62857998  1  0  0.115961  0  0.987265  0  0  0.117474  0  1.062153  0  0  0.121515  0  1.059375  0  0  0.102358  0.114556  0  1.064284  0
H  H10  1  0.44999340  0.27666512  0.46038241  1  0  0.127885  0  0.950486  0  0  0.134894  0  1.013472  0  0  0.138647  0  1.011456  0  0  0.113551  0.132277  0  1.014906  0
H  H11  1  0.55000686  0.72333394  0.53961683  1  0  0.127883  0  0.950451  0  0  0.134874  0  1.013459  0  0  0.138624  0  1.011449  0  0  0.113546  0.132258  0  1.014893  0
H  H12  1  0.16804091  0.98469140  0.34619772  1  0  0.113329  0  0.955957  0  0  0.116115  0  1.027921  0  0  0.119101  0  1.027357  0  0  0.109413  0.114014  0  1.028342  0
H  H13  1  0.83195830  0.01530973  0.65380214  1  0  0.113363  0  0.955968  0  0  0.116114  0  1.027964  0  0  0.119099  0  1.0274  0  0  0.109402  0.114012  0  1.028385  0
H  H14  1  0.64153443  0.15200962  0.37094102  1  0  0.077812  0  0.93523  0  0  0.084901  0  1.000212  0  0  0.086766  0  0.999734  0  0  0.116194  0.083303  0  1.001165  0
H  H15  1  0.35846378  0.84798840  0.62905662  1  0  0.077813  0  0.935182  0  0  0.084891  0  1.000186  0  0  0.086757  0  0.999702  0  0  0.116203  0.083292  0  1.001141  0
H  H16  1  0.67199818  0.45516640  0.55814815  1  0  0.098777  0  0.958772  0  0  0.105453  0  1.025869  0  0  0.109039  0  1.023284  0  0  0.098407  0.102705  0  1.027926  0
H  H17  1  0.32800205  0.54483577  0.44185154  1  0  0.098781  0  0.958779  0  0  0.105458  0  1.025871  0  0  0.109043  0  1.02331  0  0  0.098407  0.10271  0  1.027928  0
H  H18  1  0.75883677  0.37048572  0.76181484  1  0  0.086275  0  0.979306  0  0  0.096166  0  1.044031  0  0  0.098297  0  1.044188  0  0  0.096251  0.094559  0  1.044069  0
H  H19  1  0.24116450  0.62951542  0.23818498  1  0  0.08627  0  0.979306  0  0  0.096172  0  1.044013  0  0  0.098302  0  1.044183  0  0  0.096262  0.094567  0  1.044049  0
H  H20  1  0.98809490  0.24897203  0.79174907  1  0  0.124083  0  0.947718  0  0  0.138103  0  1.000761  0  0  0.141116  0  0.999023  0  0  0.109623  0.135893  0  1.002312  0
H  H21  1  0.01190640  0.75102703  0.20825015  1  0  0.124103  0  0.947745  0  0  0.138146  0  1.000762  0  0  0.141158  0  0.999031  0  0  0.109662  0.135938  0  1.002312  0
H  H22  1  0.59083126  0.12913476  0.03560148  1  0  0.126693  0  0.966107  0  0  0.127368  0  1.040787  0  0  0.131605  0  1.037234  0  0  0.106061  0.124523  0  1.04309  0
H  H23  1  0.40916793  0.87086741  0.96439913  1  0  0.126671  0  0.966196  0  0  0.127362  0  1.040861  0  0  0.131599  0  1.037309  0  0  0.106067  0.124517  0  1.043165  0
H  H24  1  0.90482448  0.52843296  0.07988240  1  0  0.113867  0  0.955391  0  0  0.120878  0  1.02129  0  0  0.12389  0  1.020074  0  0  0.10649  0.118653  0  1.022377  0
H  H25  1  0.09517267  0.47156711  0.92012393  1  0  0.113866  0  0.955455  0  0  0.12085  0  1.021381  0  0  0.123862  0  1.020152  0  0  0.106497  0.118625  0  1.022468  0
H  H26  1  0.70423068  0.56162543  0.94404825  1  0  0.096951  0  0.967223  0  0  0.106527  0  1.028571  0  0  0.109171  0  1.027648  0  0  0.101794  0.10489  0  1.028932  0
H  H27  1  0.29577058  0.43837675  0.05595321  1  0  0.096967  0  0.967192  0  0  0.106536  0  1.028555  0  0  0.109184  0  1.027627  0  0  0.101809  0.104899  0  1.028917  0
H  H28  1  0.55014797  0.36754203  0.92348691  1  0  0.098568  0  0.948627  0  0  0.106876  0  1.010854  0  0  0.109242  0  1.010811  0  0  0.102297  0.104963  0  1.011351  0
H  H29  1  0.44985433  0.63246015  0.07651273  1  0  0.098581  0  0.948653  0  0  0.106887  0  1.010876  0  0  0.109245  0  1.010843  0  0  0.10229  0.104974  0  1.011374  0
C  C30  1  0.86124414  0.30650095  0.13339557  1  0  0.103941  0  3.778385  0  0  0.087375  0  4.026441  0  0  0.092101  0  4.047222  0  0  0.108349  0.084045  0  4.012714  0
C  C31  1  0.13875196  0.69350017  0.86660794  1  0  0.103928  0  3.778406  0  0  0.0874  0  4.02641  0  0  0.092127  0  4.047178  0  0  0.108347  0.084071  0  4.012682  0
C  C32  1  0.84030355  0.44097668  0.06932213  1  0  -0.135797  0  3.752746  0  0  -0.155866  0  4.015076  0  0  -0.159064  0  4.033995  0  0  -0.091098  -0.153748  0  4.0024  0
C  C33  1  0.15969462  0.55902444  0.93068313  1  0  -0.135879  0  3.752919  0  0  -0.15594  0  4.015242  0  0  -0.159134  0  4.034114  0  0  -0.091124  -0.153821  0  4.002566  0
C  C34  1  0.72728871  0.45833505  0.99395284  1  0  -0.050359  0  3.733627  0  0  -0.07082  0  3.991211  0  0  -0.071552  0  4.012487  0  0  -0.086595  -0.070225  0  3.976622  0
C  C35  1  0.27271047  0.54166816  0.00604852  1  0  -0.050265  0  3.733616  0  0  -0.070724  0  3.991186  0  0  -0.071455  0  4.012439  0  0  -0.086556  -0.07013  0  3.976599  0
C  C36  1  0.63877723  0.34712355  0.98217555  1  0  -0.057415  0  3.740353  0  0  -0.071717  0  3.994895  0  0  -0.074928  0  4.01712  0  0  -0.086406  -0.069476  0  3.980083  0
C  C37  1  0.36122405  0.65287758  0.01782606  1  0  -0.057478  0  3.740323  0  0  -0.071775  0  3.994867  0  0  -0.074988  0  4.017109  0  0  -0.086414  -0.069535  0  3.980058  0
C  C38  1  0.66020451  0.21364429  0.04438683  1  0  -0.116962  0  3.700976  0  0  -0.139497  0  3.954297  0  0  -0.14094  0  3.973542  0  0  -0.084465  -0.138697  0  3.941252  0
C  C39  1  0.33979573  0.78635684  0.95561480  1  0  -0.116877  0  3.700954  0  0  -0.139425  0  3.954278  0  0  -0.140867  0  3.973517  0  0  -0.084441  -0.138626  0  3.941232  0
C  C40  1  0.77398820  0.19485512  0.12096622  1  0  0.122951  0  3.820438  0  0  0.121324  0  4.065148  0  0  0.121672  0  4.089519  0  0  0.096711  0.120617  0  4.049049  0
C  C41  1  0.22600896  0.80514496  0.87903742  1  0  0.122944  0  3.820414  0  0  0.121296  0  4.065144  0  0  0.121643  0  4.089511  0  0  0.09669  0.120588  0  4.049045  0
C  C42  1  0.06920221  0.31285287  0.26826335  1  0  0.098986  0  3.600146  0  0  0.019  0  3.847845  0  0  0.028599  0  3.854729  0  0  0.069708  0.012657  0  3.84336  0
C  C43  1  0.93079807  0.68714515  0.73173604  1  0  0.098763  0  3.600236  0  0  0.018747  0  3.847969  0  0  0.028343  0  3.854879  0  0  0.069658  0.01241  0  3.843498  0
C  C44  1  0.97361601  0.31514022  0.48025147  1  0  0.104002  0  3.789721  0  0  0.090321  0  4.040009  0  0  0.093854  0  4.063086  0  0  0.09052  0.08827  0  4.024427  0
C  C45  1  0.02638221  0.68485676  0.51974722  1  0  0.104003  0  3.7897  0  0  0.090283  0  4.039999  0  0  0.093817  0  4.063073  0  0  0.090551  0.088234  0  4.024416  0
C  C46  1  0.84776091  0.38549205  0.46180813  1  0  -0.149586  0  3.744485  0  0  -0.169117  0  4.004695  0  0  -0.172659  0  4.025542  0  0  -0.100904  -0.166932  0  3.990922  0
C  C47  1  0.15223831  0.61450804  0.53819277  1  0  -0.14948  0  3.744386  0  0  -0.168988  0  4.004598  0  0  -0.172528  0  4.025399  0  0  -0.100854  -0.166803  0  3.990823  0
C  C48  1  0.77301187  0.40452699  0.56610577  1  0  -0.053609  0  3.74171  0  0  -0.073707  0  4.001568  0  0  -0.075491  0  4.023179  0  0  -0.095912  -0.072407  0  3.986911  0
C  C49  1  0.22698837  0.59547414  0.43389497  1  0  -0.053731  0  3.74178  0  0  -0.073819  0  4.001633  0  0  -0.075603  0  4.023251  0  0  -0.09596  -0.072522  0  3.986983  0
C  C50  1  0.82289195  0.35560807  0.68326996  1  0  -0.08318  0  3.785229  0  0  -0.098131  0  4.040244  0  0  -0.100296  0  4.062668  0  0  -0.098978  -0.096439  0  4.025043  0
C  C51  1  0.17710934  0.64439203  0.31673001  1  0  -0.083188  0  3.785181  0  0  -0.09815  0  4.04021  0  0  -0.100316  0  4.06265  0  0  -0.09902  -0.09646  0  4.025015  0
C  C52  1  0.94967791  0.28673410  0.70111685  1  0  -0.144127  0  3.718907  0  0  -0.160361  0  3.962218  0  0  -0.163067  0  3.981792  0  0  -0.091539  -0.158885  0  3.949424  0
C  C53  1  0.05032234  0.71326600  0.29888225  1  0  -0.144164  0  3.718858  0  0  -0.160422  0  3.962179  0  0  -0.163128  0  3.981762  0  0  -0.091582  -0.158946  0  3.949387  0
C  C54  1  0.02549384  0.26684249  0.59694882  1  0  0.155176  0  3.830615  0  0  0.151232  0  4.080584  0  0  0.154587  0  4.104508  0  0  0.084498  0.148684  0  4.064706  0
C  C55  1  0.97450643  0.73315657  0.40305042  1  0  0.155222  0  3.830603  0  0  0.151291  0  4.080571  0  0  0.154646  0  4.104512  0  0  0.084517  0.148742  0  4.064693  0
C  C56  1  0.17579695  0.20606704  0.46572402  1  0  0.324942  0  3.70034  0  0  0.285794  0  3.973531  0  0  0.30503  0  3.984544  0  0  0.242467  0.273306  0  3.965301  0
C  C57  1  0.82420433  0.79393306  0.53427594  1  0  0.324926  0  3.700398  0  0  0.285776  0  3.973563  0  0  0.305012  0  3.984581  0  0  0.242464  0.273288  0  3.965333  0
C  C58  1  0.29343847  0.13922301  0.41142308  1  0  0.032561  0  3.779806  0  0  0.046715  0  4.019739  0  0  0.046771  0  4.040827  0  0  0.011126  0.046782  0  4.005303  0
C  C59  1  0.70656076  0.86077605  0.58857619  1  0  0.032467  0  3.779843  0  0  0.046625  0  4.019775  0  0  0.04668  0  4.040863  0  0  0.011094  0.046692  0  4.005338  0
C  C60  1  0.42820352  0.18691150  0.41794670  1  0  -0.117198  0  3.668476  0  0  -0.135887  0  3.912263  0  0  -0.141154  0  3.931288  0  0  -0.070151  -0.132931  0  3.899497  0
C  C61  1  0.57179466  0.81308964  0.58204960  1  0  -0.117142  0  3.668373  0  0  -0.135815  0  3.912158  0  0  -0.141083  0  3.931175  0  0  -0.070144  -0.13286  0  3.899392  0
C  C62  1  0.53540416  0.11694180  0.36820366  1  0  0.142788  0  3.695582  0  0  0.110829  0  3.951056  0  0  0.117508  0  3.970239  0  0  0.052248  0.106582  0  3.938005  0
C  C63  1  0.46459404  0.88305725  0.63179563  1  0  0.142755  0  3.695466  0  0  0.110812  0  3.950935  0  0  0.117492  0  3.970102  0  0  0.052228  0.106563  0  3.937886  0
C  C64  1  0.38527647  0.95950479  0.30867915  1  0  0.155655  0  3.66834  0  0  0.124276  0  3.917262  0  0  0.131539  0  3.93437  0  0  0.055734  0.119312  0  3.905717  0
C  C65  1  0.61472482  0.04049530  0.69132172  1  0  0.155709  0  3.66826  0  0  0.124318  0  3.917201  0  0  0.131583  0  3.93428  0  0  0.055736  0.119352  0  3.905653  0
C  C66  1  0.27157710  0.02403453  0.35452115  1  0  -0.124511  0  3.677761  0  0  -0.146604  0  3.930209  0  0  -0.151972  0  3.949792  0  0  -0.072198  -0.143004  0  3.917038  0
C  C67  1  0.72842420  0.97596453  0.64547986  1  0  -0.124517  0  3.677789  0  0  -0.146581  0  3.930253  0  0  -0.151948  0  3.949836  0  0  -0.072162  -0.142982  0  3.917081  0
N  N68  1  0.73045467  0.82924420  0.00186114  1  0  0.696879  0  4.132315  0  0  0.729679  0  4.423841  0  0  0.756566  0  4.430344  0  0  0.097666  0.71049  0  4.419174  0
N  N69  1  0.26954557  0.17075694  0.99813870  1  0  0.696641  0  4.132584  0  0  0.729615  0  4.423919  0  0  0.756501  0  4.430409  0  0  0.097607  0.710427  0  4.419252  0
N  N70  1  0.60045114  0.58556155  0.29432987  1  0  0.683662  0  4.141176  0  0  0.731257  0  4.412288  0  0  0.746197  0  4.43723  0  0  0.091235  0.711503  0  4.408193  0
N  N71  1  0.39955119  0.41443752  0.70566844  1  0  0.683879  0  4.141146  0  0  0.731427  0  4.412304  0  0  0.760415  0  4.417425  0  0  0.091378  0.711672  0  4.40821  0
N  N72  1  0.82060515  0.07958103  0.19841287  1  0  -0.268023  0  3.186318  0  0  -0.214008  0  3.48497  0  0  -0.227182  0  3.498026  0  0  -0.209977  -0.204491  0  3.475891  0
N  N73  1  0.17939303  0.92042009  0.80158790  1  0  -0.268136  0  3.186164  0  0  -0.214126  0  3.484839  0  0  -0.227303  0  3.497894  0  0  -0.21004  -0.204609  0  3.475759  0
N  N74  1  0.92845918  0.11189582  0.25602348  1  0  -0.051393  0  2.871462  0  0  -0.067376  0  3.158895  0  0  -0.058688  0  3.168059  0  0  -0.075399  -0.07299  0  3.152955  0
N  N75  1  0.07154007  0.88810220  0.74397503  1  0  -0.051322  0  2.871243  0  0  -0.067289  0  3.15866  0  0  -0.058601  0  3.16782  0  0  -0.075367  -0.072901  0  3.152718  0
N  N76  1  0.95400071  0.24794020  0.21854488  1  0  -0.014139  0  3.506262  0  0  0.065254  0  3.74261  0  0  0.053118  0  3.764296  0  0  -0.121453  0.073256  0  3.728246  0
N  N77  1  0.04599955  0.75205885  0.78145615  1  0  -0.014137  0  3.506085  0  0  0.065243  0  3.74241  0  0  0.053114  0  3.76409  0  0  -0.12148  0.073244  0  3.728042  0
N  N78  1  0.07147925  0.27564768  0.39890210  1  0  -0.170054  0  3.493138  0  0  -0.091227  0  3.724147  0  0  -0.108435  0  3.745947  0  0  -0.232802  -0.079816  0  3.709019  0
N  N79  1  0.92852100  0.72435346  0.60109684  1  0  -0.169944  0  3.493129  0  0  -0.091055  0  3.724057  0  0  -0.108258  0  3.745857  0  0  -0.232767  -0.079643  0  3.708924  0
N  N80  1  0.15223956  0.20090598  0.58417771  1  0  -0.453716  0  3.160386  0  0  -0.389761  0  3.443372  0  0  -0.412428  0  3.457164  0  0  -0.344224  -0.374427  0  3.433889  0
N  N81  1  0.84775968  0.79909203  0.41582171  1  0  -0.453743  0  3.160393  0  0  -0.389798  0  3.44338  0  0  -0.412469  0  3.457205  0  0  -0.344253  -0.374465  0  3.433899  0
N  N82  1  0.51514506  0.00425218  0.31616564  1  0  -0.334621  0  3.245863  0  0  -0.255553  0  3.509245  0  0  -0.275103  0  3.528726  0  0  -0.32281  -0.241838  0  3.495453  0
N  N83  1  0.48485521  0.99574689  0.68383270  1  0  -0.334632  0  3.24582  0  0  -0.255571  0  3.509218  0  0  -0.27512  0  3.528679  0  0  -0.322791  -0.241855  0  3.495425  0
O  O84  1  0.55094960  0.46644768  0.30744490  1  0  -0.421422  0  1.718882  0  0  -0.422822  0  1.91407  0  0  -0.43001  0  1.914966  0  0  -0.177004  -0.413954  0  1.917375  0
O  O85  1  0.44904755  0.53355240  0.69255605  1  0  -0.421489  0  1.71885  0  0  -0.422837  0  1.914052  0  0  -0.434801  0  1.9091  0  0  -0.177029  -0.413966  0  1.917351  0
O  O86  1  0.72142172  0.61152372  0.24889262  1  0  -0.482234  0  1.814939  0  0  -0.466389  0  2.038978  0  0  -0.48118  0  2.041105  0  0  -0.194043  -0.452248  0  2.041021  0
O  O87  1  0.27858169  0.38847118  0.75111073  1  0  -0.482321  0  1.814951  0  0  -0.466514  0  2.039044  0  0  -0.48601  0  2.035634  0  0  -0.194166  -0.452372  0  2.041089  0
O  O88  1  0.53059383  0.68693620  0.32687656  1  0  -0.508353  0  1.802398  0  0  -0.492906  0  2.034739  0  0  -0.508097  0  2.033728  0  0  -0.208086  -0.478309  0  2.038758  0
O  O89  1  0.46940950  0.31306704  0.67311665  1  0  -0.50845  0  1.802461  0  0  -0.492955  0  2.03474  0  0  -0.512769  0  2.028388  0  0  -0.208078  -0.478359  0  2.03876  0
O  O90  1  0.84860080  0.81637145  0.04741044  1  0  -0.4609  0  1.720705  0  0  -0.458276  0  1.929831  0  0  -0.47148  0  1.92325  0  0  -0.196546  -0.448241  0  1.933941  0
O  O91  1  0.15139944  0.18362968  0.95258940  1  0  -0.460816  0  1.72083  0  0  -0.458231  0  1.929894  0  0  -0.471437  0  1.923303  0  0  -0.1965  -0.44819  0  1.933992  0
O  O92  1  0.62747937  0.86866989  0.06513799  1  0  -0.498699  0  1.809823  0  0  -0.460307  0  2.041475  0  0  -0.481327  0  2.033277  0  0  -0.210131  -0.445278  0  2.046754  0
O  O93  1  0.37252090  0.13132917  0.93486214  1  0  -0.498568  0  1.80978  0  0  -0.46026  0  2.041414  0  0  -0.481275  0  2.033197  0  0  -0.210103  -0.445231  0  2.046693  0
O  O94  1  0.70731317  0.80526076  0.89751749  1  0  -0.437545  0  1.778321  0  0  -0.431644  0  1.987618  0  0  -0.444138  0  1.983138  0  0  -0.176551  -0.422659  0  1.990466  0
O  O95  1  0.29268913  0.19474038  0.10248230  1  0  -0.437501  0  1.778394  0  0  -0.431656  0  1.98763  0  0  -0.444153  0  1.983154  0  0  -0.176552  -0.422672  0  1.99048  0
