# generated using pymatgen
data_ZnH8C13SNO4
_symmetry_space_group_name_H-M   'P 1'
_cell_length_a   8.19400941
_cell_length_b   10.71557099
_cell_length_c   15.31600000
_cell_angle_alpha   90.00000000
_cell_angle_beta   90.00000000
_cell_angle_gamma   96.33488387
_symmetry_Int_Tables_number   1
_chemical_formula_structural   ZnH8C13SNO4
_chemical_formula_sum   'Zn4 H32 C52 S4 N4 O16'
_cell_volume   1336.58685470
_cell_formula_units_Z   4
loop_
 _symmetry_equiv_pos_site_id
 _symmetry_equiv_pos_as_xyz
  1  'x, y, z'
loop_
 _atom_site_type_symbol
 _atom_site_label
 _atom_site_symmetry_multiplicity
 _atom_site_fract_x
 _atom_site_fract_y
 _atom_site_fract_z
 _atom_site_occupancy
 _atom_site_hle17_bader_spin_density
 _atom_site_hle17_ddec_charge
 _atom_site_hle17_ddec_spin_density
 _atom_site_hle17_ddec_sum_bond_order
 _atom_site_hle17_magmom
 _atom_site_hse06_10hf_bader_spin_density
 _atom_site_hse06_10hf_ddec_charge
 _atom_site_hse06_10hf_ddec_spin_density
 _atom_site_hse06_10hf_ddec_sum_bond_order
 _atom_site_hse06_10hf_magmom
 _atom_site_hse06_bader_spin_density
 _atom_site_hse06_ddec_charge
 _atom_site_hse06_ddec_spin_density
 _atom_site_hse06_ddec_sum_bond_order
 _atom_site_hse06_magmom
 _atom_site_pbe_bader_charge
 _atom_site_pbe_bader_spin_density
 _atom_site_pbe_cm5_charge
 _atom_site_pbe_ddec_charge
 _atom_site_pbe_ddec_spin_density
 _atom_site_pbe_ddec_sum_bond_order
 _atom_site_pbe_magmom
Zn  Zn0  1  0.85570714  0.40701338  0.52737791  1  0  1.05999  0  1.853301  0  0  0.888938  0  2.324148  0  0  0.940416  0  2.258875  0  1.313767  0  0.680467  0.853045  0  2.368898  0
Zn  Zn1  1  0.64429636  0.09298468  0.02737334  1  0  1.059983  0  1.853219  0  0  0.888988  0  2.323985  0  0  0.940463  0  2.25872  0  1.313635  0  0.680507  0.853091  0  2.368741  0
Zn  Zn2  1  0.14429755  0.59298462  0.47262340  1  0  1.060034  0  1.853188  0  0  0.888996  0  2.324035  0  0  0.940473  0  2.258768  0  1.313668  0  0.680527  0.853108  0  2.368776  0
Zn  Zn3  1  0.35570453  0.90701238  0.97262275  1  0  1.059989  0  1.853307  0  0  0.888955  0  2.324141  0  0  0.940434  0  2.258864  0  1.313698  0  0.680481  0.853064  0  2.368888  0
H  H4  1  0.55234790  0.36541957  0.43158396  1  0  0.088705  0  0.951487  0  0  0.097493  0  1.014737  0  0  0.1006  0  1.011269  0  0.115787  0  0.118132  0.095162  0  1.017278  0
H  H5  1  0.94765587  0.13458037  0.93158527  1  0  0.088723  0  0.951475  0  0  0.097515  0  1.014718  0  0  0.100622  0  1.01125  0  0.115835  0  0.118156  0.095186  0  1.017257  0
H  H6  1  0.44765435  0.63457844  0.56841342  1  0  0.088733  0  0.951499  0  0  0.097501  0  1.014751  0  0  0.100627  0  1.011263  0  0.115428  0  0.118138  0.095162  0  1.017302  0
H  H7  1  0.05234475  0.86542326  0.06841147  1  0  0.088685  0  0.951509  0  0  0.097478  0  1.014746  0  0  0.100586  0  1.011278  0  0.115648  0  0.118149  0.09514  0  1.017294  0
H  H8  1  0.29667995  0.21859710  0.42743993  1  0  0.095288  0  0.997975  0  0  0.103276  0  1.06444  0  0  0.105355  0  1.065303  0  0.097906  0  0.100071  0.10175  0  1.064128  0
H  H9  1  0.20332171  0.28140566  0.92744189  1  0  0.09527  0  0.997988  0  0  0.103236  0  1.064485  0  0  0.105313  0  1.065354  0  0.097714  0  0.100064  0.101717  0  1.064155  0
H  H10  1  0.70331687  0.78140560  0.57255876  1  0  0.095263  0  0.998033  0  0  0.103241  0  1.064507  0  0  0.105319  0  1.065373  0  0.09768  0  0.100066  0.101719  0  1.064188  0
H  H11  1  0.79668149  0.71859892  0.07256137  1  0  0.095366  0  0.997971  0  0  0.103359  0  1.064407  0  0  0.105437  0  1.065274  0  0.097883  0  0.100101  0.101835  0  1.064093  0
H  H12  1  0.48338972  0.02451892  0.64730804  1  0  0.112575  0  0.927808  0  0  0.125541  0  0.980654  0  0  0.128637  0  0.980421  0  0.103324  0  0.110971  0.123358  0  0.980919  0
H  H13  1  0.01660218  0.47548383  0.14730804  1  0  0.112567  0  0.927799  0  0  0.125555  0  0.980617  0  0  0.128642  0  0.980398  0  0.103273  0  0.110996  0.123372  0  0.980881  0
H  H14  1  0.51660683  0.97548189  0.35269130  1  0  0.112591  0  0.927808  0  0  0.125579  0  0.980623  0  0  0.128679  0  0.980388  0  0.103295  0  0.110992  0.123397  0  0.980888  0
H  H15  1  0.98338583  0.52451699  0.85269196  1  0  0.11261  0  0.927788  0  0  0.125594  0  0.980608  0  0  0.128702  0  0.980363  0  0.103302  0  0.111004  0.123412  0  0.980872  0
H  H16  1  0.73488225  0.17817228  0.64036890  1  0  0.089331  0  0.915552  0  0  0.101742  0  0.969147  0  0  0.104208  0  0.96724  0  0.104955  0  0.12393  0.099893  0  0.970601  0
H  H17  1  0.76510946  0.32182859  0.14036628  1  0  0.089309  0  0.91554  0  0  0.101761  0  0.969097  0  0  0.104228  0  0.967189  0  0.104937  0  0.123903  0.099909  0  0.970555  0
H  H18  1  0.26511296  0.82182759  0.35963045  1  0  0.089326  0  0.915477  0  0  0.101758  0  0.969054  0  0  0.104224  0  0.967146  0  0.104926  0  0.123944  0.099908  0  0.970509  0
H  H19  1  0.23487598  0.67817128  0.85962784  1  0  0.08928  0  0.915516  0  0  0.101716  0  0.969095  0  0  0.104183  0  0.967186  0  0.104797  0  0.123949  0.099866  0  0.970551  0
H  H20  1  0.21715879  0.93658476  0.57819535  1  0  0.097993  0  0.949733  0  0  0.109107  0  1.012287  0  0  0.112081  0  1.011249  0  0.0814  0  0.103408  0.106981  0  1.013097  0
H  H21  1  0.28284112  0.56341412  0.07820057  1  0  0.098085  0  0.94967  0  0  0.109159  0  1.012269  0  0  0.112135  0  1.011233  0  0.081471  0  0.103434  0.107032  0  1.013082  0
H  H22  1  0.78283790  0.06341700  0.42180465  1  0  0.09806  0  0.949683  0  0  0.109151  0  1.012262  0  0  0.112128  0  1.011223  0  0.081373  0  0.103406  0.107024  0  1.013075  0
H  H23  1  0.71715489  0.43658294  0.92180791  1  0  0.098076  0  0.949712  0  0  0.109175  0  1.012276  0  0  0.112148  0  1.011244  0  0.081467  0  0.103414  0.107049  0  1.013089  0
H  H24  1  0.06424295  0.13170999  0.46421063  1  0  0.095049  0  0.968393  0  0  0.107132  0  1.028601  0  0  0.109274  0  1.028265  0  0.100859  0  0.10239  0.105533  0  1.028954  0
H  H25  1  0.43575370  0.36829183  0.96421259  1  0  0.095066  0  0.968388  0  0  0.107161  0  1.028583  0  0  0.109303  0  1.028243  0  0.100595  0  0.10239  0.105562  0  1.028937  0
H  H26  1  0.93575401  0.86829365  0.53578937  1  0  0.095057  0  0.96842  0  0  0.107147  0  1.02861  0  0  0.109286  0  1.02828  0  0.100882  0  0.102401  0.105549  0  1.028963  0
H  H27  1  0.56424326  0.63170336  0.03579655  1  0  0.095076  0  0.968426  0  0  0.107132  0  1.028661  0  0  0.109279  0  1.028319  0  0.100673  0  0.102428  0.105535  0  1.029016  0
H  H28  1  0.11963468  0.84884132  0.70213372  1  0  0.115594  0  0.939234  0  0  0.127385  0  0.996447  0  0  0.130965  0  0.993621  0  0.078952  0  0.109245  0.124754  0  0.998609  0
H  H29  1  0.38035845  0.65115286  0.20214612  1  0  0.115636  0  0.939153  0  0  0.127365  0  0.996444  0  0  0.130937  0  0.993616  0  0.078863  0  0.109248  0.124748  0  0.998591  0
H  H30  1  0.88036065  0.15115105  0.29785714  1  0  0.115593  0  0.939163  0  0  0.127313  0  0.996482  0  0  0.130887  0  0.993648  0  0.078862  0  0.109216  0.124693  0  0.998632  0
H  H31  1  0.61963634  0.34884420  0.79786498  1  0  0.115591  0  0.939224  0  0  0.127366  0  0.996458  0  0  0.130947  0  0.993631  0  0.078914  0  0.109231  0.124746  0  0.998607  0
H  H32  1  0.99799918  0.97200870  0.83245625  1  0  0.121084  0  0.945871  0  0  0.127736  0  1.013442  0  0  0.131425  0  1.010217  0  0.138306  0  0.107023  0.125074  0  1.015859  0
H  H33  1  0.50200297  0.52799675  0.33246540  1  0  0.121076  0  0.945849  0  0  0.127727  0  1.013442  0  0  0.131412  0  1.010218  0  0.138789  0  0.106985  0.125065  0  1.015857  0
H  H34  1  0.00200334  0.02799118  0.16753917  1  0  0.121051  0  0.945859  0  0  0.127714  0  1.013436  0  0  0.131398  0  1.010214  0  0.13874  0  0.107  0.125053  0  1.015851  0
H  H35  1  0.49800525  0.47200876  0.66754375  1  0  0.12112  0  0.945784  0  0  0.12776  0  1.013386  0  0  0.131446  0  1.010161  0  0.138708  0  0.107024  0.125097  0  1.015802  0
C  C36  1  0.53120946  0.28838772  0.47804257  1  0  0.13727  0  3.689948  0  0  0.104776  0  3.940062  0  0  0.112864  0  3.957413  0  0.439242  0  0.046629  0.099658  0  3.928159  0
C  C37  1  0.96879079  0.21161316  0.97804322  1  0  0.137334  0  3.690026  0  0  0.104835  0  3.940144  0  0  0.112924  0  3.957498  0  0.439214  0  0.046671  0.099712  0  3.928244  0
C  C38  1  0.46879076  0.71161309  0.52195612  1  0  0.137197  0  3.690022  0  0  0.104742  0  3.940139  0  0  0.112815  0  3.957487  0  0.439647  0  0.046628  0.099628  0  3.928241  0
C  C39  1  0.03120482  0.78838954  0.02195351  1  0  0.137339  0  3.689873  0  0  0.104853  0  3.939982  0  0  0.11294  0  3.957334  0  0.439345  0  0.046635  0.09974  0  3.928083  0
C  C40  1  0.38831946  0.20697190  0.47718399  1  0  -0.154954  0  3.693714  0  0  -0.172474  0  3.94045  0  0  -0.181459  0  3.962876  0  -0.00245  0  -0.083736  -0.167006  0  3.92566  0
C  C41  1  0.11167977  0.29303085  0.97718464  1  0  -0.154999  0  3.69373  0  0  -0.172499  0  3.940465  0  0  -0.18149  0  3.962893  0  -0.002204  0  -0.083767  -0.167031  0  3.92568  0
C  C42  1  0.61168212  0.79302985  0.52281470  1  0  -0.154903  0  3.693672  0  0  -0.172394  0  3.940363  0  0  -0.181381  0  3.962794  0  -0.00232  0  -0.083741  -0.166926  0  3.925572  0
C  C43  1  0.88831692  0.70697090  0.02281666  1  0  -0.155108  0  3.693703  0  0  -0.172602  0  3.940396  0  0  -0.181591  0  3.962821  0  -0.002309  0  -0.083782  -0.167133  0  3.925605  0
C  C44  1  0.36386171  0.10938916  0.53888940  1  0  0.137322  0  3.814597  0  0  0.149725  0  4.050795  0  0  0.157174  0  4.072694  0  0.002273  0  0.007982  0.145048  0  4.035752  0
C  C45  1  0.13613345  0.39061078  0.03889136  1  0  0.137316  0  3.814733  0  0  0.149726  0  4.0509  0  0  0.1572  0  4.072729  0  0.002208  0  0.007997  0.145048  0  4.035857  0
C  C46  1  0.63613552  0.89061635  0.46111191  1  0  0.13732  0  3.814668  0  0  0.149716  0  4.050871  0  0  0.157174  0  4.072744  0  0.001935  0  0.008013  0.145041  0  4.035822  0
C  C47  1  0.86386162  0.60938816  0.96111191  1  0  0.137313  0  3.814642  0  0  0.149704  0  4.050861  0  0  0.157169  0  4.072721  0  0.00225  0  0.007935  0.145027  0  4.035817  0
C  C48  1  0.49302635  0.09870385  0.59824236  1  0  -0.166621  0  3.706221  0  0  -0.184859  0  3.957481  0  0  -0.194216  0  3.97997  0  -0.039971  0  -0.080536  -0.178773  0  3.942236  0
C  C49  1  0.00696813  0.40129984  0.09824171  1  0  -0.166539  0  3.706234  0  0  -0.1848  0  3.957496  0  0  -0.194157  0  3.97999  0  -0.040607  0  -0.080555  -0.178714  0  3.94225  0
C  C50  1  0.50697536  0.90129884  0.40175699  1  0  -0.166644  0  3.706168  0  0  -0.184899  0  3.95745  0  0  -0.194263  0  3.97994  0  -0.039849  0  -0.080575  -0.178813  0  3.942206  0
C  C51  1  0.99302218  0.59870004  0.90175829  1  0  -0.166681  0  3.706204  0  0  -0.184931  0  3.957482  0  0  -0.194304  0  3.979971  0  -0.03998  0  -0.08056  -0.178845  0  3.942239  0
C  C52  1  0.63332237  0.18411587  0.59513646  1  0  0.136499  0  3.69962  0  0  0.106687  0  3.951084  0  0  0.114344  0  3.970314  0  0.469698  0  0.05157  0.101807  0  3.937853  0
C  C53  1  0.86667191  0.31588595  0.09513450  1  0  0.136403  0  3.699607  0  0  0.106563  0  3.951085  0  0  0.11422  0  3.97032  0  0.470281  0  0.051564  0.101686  0  3.937848  0
C  C54  1  0.36667541  0.81588495  0.40486354  1  0  0.136528  0  3.6995  0  0  0.10671  0  3.950993  0  0  0.114369  0  3.970229  0  0.469516  0  0.051606  0.101831  0  3.937761  0
C  C55  1  0.13331651  0.68411768  0.90486224  1  0  0.136657  0  3.699529  0  0  0.106826  0  3.951034  0  0  0.114486  0  3.970267  0  0.469852  0  0.051613  0.101945  0  3.937804  0
C  C56  1  0.21417507  0.02304101  0.54057913  1  0  -0.125536  0  3.704063  0  0  -0.148555  0  3.962589  0  0  -0.1553  0  3.985376  0  -0.102825  0  -0.085254  -0.143918  0  3.946904  0
C  C57  1  0.28581900  0.47695987  0.04058174  1  0  -0.125611  0  3.704275  0  0  -0.148596  0  3.962805  0  0  -0.155348  0  3.985597  0  -0.102478  0  -0.085255  -0.14396  0  3.947123  0
C  C58  1  0.78582149  0.97695981  0.45941956  1  0  -0.125697  0  3.704287  0  0  -0.148705  0  3.962827  0  0  -0.155454  0  3.985616  0  -0.102619  0  -0.085319  -0.144067  0  3.947145  0
C  C59  1  0.71417579  0.52303719  0.95942348  1  0  -0.12566  0  3.704155  0  0  -0.148669  0  3.962677  0  0  -0.155419  0  3.985465  0  -0.102867  0  -0.085228  -0.144032  0  3.946996  0
C  C60  1  0.07259486  0.04377125  0.49922630  1  0  -0.031182  0  3.729632  0  0  -0.045766  0  3.976551  0  0  -0.045814  0  3.99798  0  -0.016214  0  -0.076233  -0.045571  0  3.961816  0
C  C61  1  0.42739881  0.45622681  0.99923152  1  0  -0.031212  0  3.729667  0  0  -0.045809  0  3.976586  0  0  -0.045858  0  3.998022  0  -0.016239  0  -0.076269  -0.045614  0  3.961854  0
C  C62  1  0.92739966  0.95623238  0.50077305  1  0  -0.031198  0  3.729749  0  0  -0.045766  0  3.976639  0  0  -0.045816  0  3.998082  0  0.03571  0  -0.076273  -0.045572  0  3.961906  0
C  C63  1  0.57260182  0.54376837  0.00077892  1  0  -0.031261  0  3.729595  0  0  -0.045814  0  3.976497  0  0  -0.045869  0  3.997931  0  0.035727  0  -0.076355  -0.045623  0  3.961768  0
C  C64  1  0.91930841  0.63788356  0.62999151  1  0  0.660785  0  3.952215  0  0  0.610881  0  4.243997  0  0  0.646568  0  4.235232  0  1.568143  0  0.201927  0.586761  0  4.249095  0
C  C65  1  0.58069253  0.86211345  0.12999021  1  0  0.660985  0  3.952399  0  0  0.611114  0  4.244155  0  0  0.646806  0  4.235381  0  1.568436  0  0.202014  0.586994  0  4.249257  0
C  C66  1  0.08069384  0.36211444  0.37001045  1  0  0.660975  0  3.952291  0  0  0.611102  0  4.244044  0  0  0.646791  0  4.235272  0  1.568701  0  0.202009  0.58698  0  4.249147  0
C  C67  1  0.41930457  0.13788268  0.87000914  1  0  0.660753  0  3.952327  0  0  0.610847  0  4.244128  0  0  0.646545  0  4.235362  0  1.568317  0  0.201911  0.586727  0  4.249227  0
C  C68  1  0.89009218  0.72602323  0.70108906  1  0  -0.163766  0  3.750675  0  0  -0.14646  0  4.021471  0  0  -0.152876  0  4.040172  0  -0.193245  0  -0.030216  -0.142323  0  4.008872  0
C  C69  1  0.60990008  0.77397283  0.20109102  1  0  -0.16364  0  3.750626  0  0  -0.146401  0  4.021478  0  0  -0.15283  0  4.040191  0  -0.193151  0  -0.030175  -0.14227  0  4.00889  0
C  C70  1  0.10990030  0.27397477  0.29890703  1  0  -0.163768  0  3.750543  0  0  -0.14649  0  4.021347  0  0  -0.152908  0  4.040046  0  -0.19338  0  -0.030193  -0.14235  0  4.008746  0
C  C71  1  0.39009458  0.22602329  0.79890964  1  0  -0.163743  0  3.750557  0  0  -0.146446  0  4.021355  0  0  -0.152899  0  4.040102  0  -0.193385  0  -0.030182  -0.142315  0  4.008767  0
C  C72  1  0.99777255  0.82663129  0.72978193  1  0  -0.077213  0  3.755252  0  0  -0.108853  0  4.021239  0  0  -0.107992  0  4.0385  0  0.00247  0  -0.095364  -0.109078  0  4.009245  0
C  C73  1  0.50222242  0.67336665  0.22978911  1  0  -0.077347  0  3.75515  0  0  -0.108903  0  4.021179  0  0  -0.108029  0  4.038436  0  0.002605  0  -0.095402  -0.109139  0  4.009182  0
C  C74  1  0.00222455  0.17336484  0.27021154  1  0  -0.077244  0  3.755168  0  0  -0.108808  0  4.021188  0  0  -0.107938  0  4.038448  0  0.002551  0  -0.095373  -0.10905  0  4.009199  0
C  C75  1  0.49777766  0.32663323  0.77021611  1  0  -0.077285  0  3.755138  0  0  -0.108893  0  4.021126  0  0  -0.108027  0  4.038404  0  0.002427  0  -0.095416  -0.109129  0  4.009131  0
C  C76  1  0.93265276  0.89226140  0.79878428  1  0  -0.071988  0  3.744224  0  0  -0.104108  0  4.009089  0  0  -0.103096  0  4.026779  0  -0.077263  0  -0.096079  -0.10467  0  3.996962  0
C  C77  1  0.56735021  0.60774123  0.29879211  1  0  -0.071976  0  3.744037  0  0  -0.104098  0  4.00893  0  0  -0.10308  0  4.026611  0  -0.077859  0  -0.096028  -0.10466  0  3.996806  0
C  C78  1  0.06734746  0.10773942  0.20120985  1  0  -0.072  0  3.744033  0  0  -0.104108  0  4.008942  0  0  -0.103093  0  4.026625  0  -0.077775  0  -0.096051  -0.104673  0  3.996816  0
C  C79  1  0.43266221  0.39225958  0.70121246  1  0  -0.071928  0  3.744066  0  0  -0.104038  0  4.008992  0  0  -0.103025  0  4.026677  0  -0.077757  0  -0.096022  -0.104599  0  3.996867  0
C  C80  1  0.77511902  0.84177475  0.82093040  1  0  -0.149358  0  3.735596  0  0  -0.129888  0  3.998589  0  0  -0.136547  0  4.018391  0  -0.156328  0  -0.026201  -0.125562  0  3.985287  0
C  C81  1  0.72488286  0.65822883  0.32093432  1  0  -0.149268  0  3.735319  0  0  -0.12981  0  3.998354  0  0  -0.136469  0  4.018156  0  -0.156881  0  -0.026198  -0.125477  0  3.985049  0
C  C82  1  0.22488621  0.15822701  0.17906503  1  0  -0.149209  0  3.73508  0  0  -0.129809  0  3.998172  0  0  -0.136468  0  4.017976  0  -0.156782  0  -0.026205  -0.12548  0  3.98486  0
C  C83  1  0.27512739  0.34177387  0.67906568  1  0  -0.149431  0  3.735371  0  0  -0.130007  0  3.998459  0  0  -0.136666  0  4.018249  0  -0.156352  0  -0.026233  -0.125676  0  3.985164  0
C  C84  1  0.66933122  0.88697603  0.88921912  1  0  0.673927  0  3.936606  0  0  0.623016  0  4.225777  0  0  0.658912  0  4.217369  0  1.611098  0  0.206652  0.598717  0  4.230622  0
C  C85  1  0.83068341  0.61303130  0.38921846  1  0  0.67399  0  3.936356  0  0  0.623044  0  4.225588  0  0  0.658938  0  4.217182  0  1.61155  0  0.206702  0.598733  0  4.230448  0
C  C86  1  0.33068514  0.11302667  0.11077958  1  0  0.67392  0  3.93641  0  0  0.623037  0  4.22561  0  0  0.658931  0  4.217206  0  1.610531  0  0.206678  0.598742  0  4.230445  0
C  C87  1  0.16933714  0.38698360  0.61078023  1  0  0.674207  0  3.936486  0  0  0.623284  0  4.225691  0  0  0.659196  0  4.217256  0  1.610869  0  0.206778  0.598965  0  4.230568  0
S  S88  1  0.70843954  0.71283467  0.75837360  1  0  0.172686  0  2.618225  0  0  0.169791  0  2.928777  0  0  0.169662  0  2.936863  0  0.27334  0  0.106882  0.169537  0  2.923675  0
S  S89  1  0.79155638  0.78716139  0.25837294  1  0  0.172614  0  2.618262  0  0  0.169767  0  2.928847  0  0  0.169641  0  2.936939  0  0.273559  0  0.106878  0.169514  0  2.923743  0
S  S90  1  0.29155810  0.28716520  0.24162445  1  0  0.172611  0  2.618158  0  0  0.169779  0  2.928735  0  0  0.169649  0  2.936825  0  0.273571  0  0.106874  0.169524  0  2.923626  0
S  S91  1  0.20844207  0.21283567  0.74162249  1  0  0.172677  0  2.618118  0  0  0.169817  0  2.928691  0  0  0.169698  0  2.936788  0  0.273551  0  0.106875  0.169564  0  2.923589  0
N  N92  1  0.65280030  0.27853152  0.53637634  1  0  -0.328629  0  3.266391  0  0  -0.245462  0  3.540733  0  0  -0.266198  0  3.555687  0  -1.247969  0  -0.3318  -0.23142  0  3.530298  0
N  N93  1  0.84719873  0.22146936  0.03637438  1  0  -0.328616  0  3.266505  0  0  -0.245457  0  3.54087  0  0  -0.266192  0  3.555819  0  -1.247958  0  -0.331812  -0.231415  0  3.530435  0
N  N94  1  0.34720249  0.72147024  0.46362301  1  0  -0.328605  0  3.266544  0  0  -0.24549  0  3.540959  0  0  -0.266222  0  3.555902  0  -1.247759  0  -0.33182  -0.231448  0  3.530521  0
N  N95  1  0.15279810  0.77853333  0.96362170  1  0  -0.32867  0  3.266424  0  0  -0.245535  0  3.54082  0  0  -0.26627  0  3.55577  0  -1.247949  0  -0.331836  -0.231492  0  3.530383  0
O  O96  1  0.82060327  0.53748958  0.62367589  1  0  -0.624494  0  2.028718  0  0  -0.561027  0  2.284861  0  0  -0.588747  0  2.271006  0  -1.163839  0  -0.32116  -0.541767  0  2.293662  0
O  O97  1  0.67939238  0.96250460  0.12367394  1  0  -0.624604  0  2.028973  0  0  -0.561155  0  2.285114  0  0  -0.588872  0  2.271247  0  -1.164108  0  -0.321208  -0.541895  0  2.293918  0
O  O98  1  0.17939695  0.46250278  0.37632672  1  0  -0.624563  0  2.028928  0  0  -0.561105  0  2.285076  0  0  -0.588823  0  2.27121  0  -1.164172  0  -0.32121  -0.541847  0  2.293883  0
O  O99  1  0.32059835  0.03748964  0.87632280  1  0  -0.624482  0  2.028762  0  0  -0.561015  0  2.284908  0  0  -0.588734  0  2.271049  0  -1.163902  0  -0.32117  -0.541755  0  2.293706  0
O  O100  1  0.04090106  0.67270563  0.58071559  1  0  -0.634523  0  2.074183  0  0  -0.570957  0  2.337703  0  0  -0.598915  0  2.323958  0  -1.178636  0  -0.315782  -0.551543  0  2.346361  0
O  O101  1  0.45909750  0.82728386  0.08071363  1  0  -0.634625  0  2.074253  0  0  -0.57106  0  2.337757  0  0  -0.599019  0  2.324005  0  -1.178737  0  -0.315768  -0.55164  0  2.346406  0
O  O102  1  0.95909374  0.32728298  0.41928441  1  0  -0.634588  0  2.074152  0  0  -0.571038  0  2.337667  0  0  -0.599  0  2.323923  0  -1.178839  0  -0.31575  -0.551616  0  2.346313  0
O  O103  1  0.54090339  0.17270475  0.91928310  1  0  -0.634513  0  2.074245  0  0  -0.570946  0  2.33777  0  0  -0.598904  0  2.324021  0  -1.178672  0  -0.315753  -0.551522  0  2.346412  0
O  O104  1  0.52152944  0.83497014  0.89312353  1  0  -0.631633  0  2.047074  0  0  -0.567659  0  2.307839  0  0  -0.595009  0  2.292626  0  -1.170284  0  -0.322637  -0.548659  0  2.317645  0
O  O105  1  0.97847923  0.66503813  0.39312418  1  0  -0.631638  0  2.047054  0  0  -0.56769  0  2.307896  0  0  -0.59504  0  2.292691  0  -1.169635  0  -0.322625  -0.548686  0  2.317706  0
O  O106  1  0.47847701  0.16504006  0.10687582  1  0  -0.631586  0  2.047017  0  0  -0.567687  0  2.307858  0  0  -0.595036  0  2.292653  0  -1.169699  0  -0.322621  -0.548688  0  2.317659  0
O  O107  1  0.02153604  0.33497396  0.60687582  1  0  -0.631813  0  2.047125  0  0  -0.567834  0  2.307921  0  0  -0.59519  0  2.292695  0  -1.1702  0  -0.32272  -0.548826  0  2.317741  0
O  O108  1  0.73567068  0.97421431  0.93796618  1  0  -0.634154  0  2.097818  0  0  -0.567121  0  2.360402  0  0  -0.596283  0  2.347835  0  -1.178289  0  -0.312297  -0.546757  0  2.368158  0
O  O109  1  0.76434680  0.52578739  0.43796748  1  0  -0.634278  0  2.097651  0  0  -0.567205  0  2.360278  0  0  -0.596363  0  2.347703  0  -1.17905  0  -0.312378  -0.546837  0  2.36804  0
O  O110  1  0.26434391  0.02578463  0.06203317  1  0  -0.634207  0  2.097686  0  0  -0.567189  0  2.360344  0  0  -0.596346  0  2.347765  0  -1.17801  0  -0.312352  -0.546825  0  2.368097  0
O  O111  1  0.23567485  0.47421812  0.56203447  1  0  -0.634263  0  2.097893  0  0  -0.567206  0  2.360481  0  0  -0.596367  0  2.347894  0  -1.178141  0  -0.312339  -0.546834  0  2.368243  0
