# generated using pymatgen
data_Zn3H26C42(N2O7)2
_symmetry_space_group_name_H-M   'P 1'
_cell_length_a   7.80940979
_cell_length_b   10.66133604
_cell_length_c   12.01226480
_cell_angle_alpha   88.91076477
_cell_angle_beta   78.46339470
_cell_angle_gamma   68.71130205
_symmetry_Int_Tables_number   1
_chemical_formula_structural   Zn3H26C42(N2O7)2
_chemical_formula_sum   'Zn3 H26 C42 N4 O14'
_cell_volume   911.47853786
_cell_formula_units_Z   1
loop_
 _symmetry_equiv_pos_site_id
 _symmetry_equiv_pos_as_xyz
  1  'x, y, z'
loop_
 _atom_site_type_symbol
 _atom_site_label
 _atom_site_symmetry_multiplicity
 _atom_site_fract_x
 _atom_site_fract_y
 _atom_site_fract_z
 _atom_site_occupancy
 _atom_site_hle17_bader_spin_density
 _atom_site_hle17_ddec_charge
 _atom_site_hle17_ddec_spin_density
 _atom_site_hle17_ddec_sum_bond_order
 _atom_site_hle17_magmom
 _atom_site_hse06_10hf_bader_spin_density
 _atom_site_hse06_10hf_ddec_charge
 _atom_site_hse06_10hf_ddec_spin_density
 _atom_site_hse06_10hf_ddec_sum_bond_order
 _atom_site_hse06_10hf_magmom
 _atom_site_hse06_bader_spin_density
 _atom_site_hse06_ddec_charge
 _atom_site_hse06_ddec_spin_density
 _atom_site_hse06_ddec_sum_bond_order
 _atom_site_hse06_magmom
 _atom_site_pbe_bader_spin_density
 _atom_site_pbe_cm5_charge
 _atom_site_pbe_ddec_charge
 _atom_site_pbe_ddec_spin_density
 _atom_site_pbe_ddec_sum_bond_order
 _atom_site_pbe_magmom
Zn  Zn0  1  0.49999989  0.50000106  0.50000016  1  0  1.195455  0  1.655821  0  0  1.037552  0  2.099341  0  0  1.086882  0  2.03662  0  0  0.668959  1.002559  0  2.14274  0
Zn  Zn1  1  0.81172393  0.73410070  0.71744866  1  0  1.032516  0  1.844396  0  0  0.841132  0  2.313315  0  0  0.891163  0  2.25686  0  0  0.687645  0.806323  0  2.352021  0
Zn  Zn2  1  0.18827425  0.26589940  0.28255108  1  0  1.032453  0  1.844411  0  0  0.841047  0  2.313363  0  0  0.891077  0  2.256907  0  0  0.687609  0.80623  0  2.352066  0
H  H3  1  0.48797852  0.64980361  0.65570468  1  0  0.410524  0  0.902728  0  0  0.37739  0  0.970408  0  0  0.388913  0  0.953719  0  0  0.288926  0.369288  0  0.982118  0
H  H4  1  0.51202148  0.35019549  0.34429568  1  0  0.410509  0  0.902749  0  0  0.377372  0  0.970431  0  0  0.388897  0  0.953742  0  0  0.28892  0.369269  0  0.982144  0
H  H5  1  0.27227284  0.66864709  0.68169960  1  0  0.425168  0  0.867561  0  0  0.396265  0  0.934943  0  0  0.405667  0  0.921291  0  0  0.295417  0.389544  0  0.944711  0
H  H6  1  0.72772745  0.33135401  0.31830067  1  0  0.425206  0  0.867509  0  0  0.396303  0  0.934891  0  0  0.405707  0  0.921236  0  0  0.295431  0.389585  0  0.944652  0
H  H7  1  0.70142728  0.39340970  0.14806907  1  0  0.119237  0  0.964511  0  0  0.129546  0  1.023697  0  0  0.132685  0  1.022004  0  0  0.109399  0.127196  0  1.02505  0
H  H8  1  0.29857584  0.60658837  0.85193007  1  0  0.119197  0  0.964565  0  0  0.129512  0  1.023751  0  0  0.13265  0  1.022058  0  0  0.109394  0.127161  0  1.025103  0
H  H9  1  0.43306637  0.98696597  0.84156177  1  0  0.078156  0  0.933546  0  0  0.089464  0  0.993713  0  0  0.091302  0  0.992303  0  0  0.119504  0.087682  0  0.995519  0
H  H10  1  0.56693131  0.01303516  0.15844051  1  0  0.078164  0  0.933541  0  0  0.089474  0  0.993692  0  0  0.091308  0  0.992289  0  0  0.119503  0.087691  0  0.995498  0
H  H11  1  0.24301166  0.84397536  0.16459820  1  0  0.102736  0  0.956579  0  0  0.112589  0  1.019951  0  0  0.114539  0  1.019276  0  0  0.110049  0.111278  0  1.020107  0
H  H12  1  0.75698965  0.15602375  0.83540365  1  0  0.102753  0  0.956611  0  0  0.112604  0  1.019988  0  0  0.114565  0  1.019276  0  0  0.110035  0.111291  0  1.020146  0
H  H13  1  0.19906116  0.02720834  0.02752483  1  0  0.10863  0  0.945148  0  0  0.121145  0  0.999508  0  0  0.124001  0  0.999367  0  0  0.109688  0.119022  0  0.99977  0
H  H14  1  0.80093673  0.97278977  0.97247666  1  0  0.108604  0  0.945175  0  0  0.12109  0  0.999586  0  0  0.123944  0  0.999447  0  0  0.109691  0.118971  0  0.999842  0
H  H15  1  0.43760154  0.60705006  0.21123928  1  0  0.128319  0  0.92686  0  0  0.137838  0  0.985344  0  0  0.141331  0  0.983648  0  0  0.113515  0.13524  0  0.986731  0
H  H16  1  0.56240501  0.39294901  0.78876104  1  0  0.128308  0  0.926844  0  0  0.137836  0  0.985318  0  0  0.141329  0  0.983623  0  0  0.113504  0.135235  0  0.986707  0
H  H17  1  0.19243174  0.24226714  0.80851074  1  0  0.101968  0  0.956921  0  0  0.113281  0  1.014904  0  0  0.115362  0  1.015991  0  0  0.106168  0.111765  0  1.014435  0
H  H18  1  0.80757036  0.75773294  0.19148848  1  0  0.10193  0  0.956886  0  0  0.113245  0  1.014877  0  0  0.115327  0  1.015964  0  0  0.106158  0.11173  0  1.014407  0
H  H19  1  0.98115791  0.25542958  0.00196602  1  0  0.105766  0  0.934686  0  0  0.116405  0  0.995964  0  0  0.119421  0  0.993537  0  0  0.109964  0.114177  0  0.997733  0
H  H20  1  0.01884288  0.74457050  0.99803171  1  0  0.105781  0  0.934654  0  0  0.116475  0  0.995867  0  0  0.11949  0  0.993442  0  0  0.109982  0.114242  0  0.997651  0
H  H21  1  0.12545703  0.44497937  0.69326585  1  0  0.105668  0  0.97004  0  0  0.109547  0  1.036463  0  0  0.112475  0  1.033802  0  0  0.122641  0.107168  0  1.038689  0
H  H22  1  0.87454588  0.55502172  0.30673407  1  0  0.105646  0  0.97008  0  0  0.10956  0  1.036472  0  0  0.112462  0  1.033844  0  0  0.122646  0.107182  0  1.038694  0
H  H23  1  0.34116480  0.90349825  0.69717381  1  0  0.09927  0  0.979766  0  0  0.104652  0  1.050149  0  0  0.108559  0  1.047268  0  0  0.100587  0.101795  0  1.052385  0
H  H24  1  0.65883389  0.09650086  0.30282755  1  0  0.099288  0  0.979785  0  0  0.104655  0  1.050177  0  0  0.108562  0  1.047299  0  0  0.100582  0.101797  0  1.052415  0
H  H25  1  0.80816601  0.14285641  0.61990692  1  0  0.114318  0  0.935969  0  0  0.122786  0  0.998692  0  0  0.127183  0  0.994973  0  0  0.109388  0.119549  0  1.001487  0
H  H26  1  0.19183166  0.85714470  0.38009287  1  0  0.114341  0  0.935945  0  0  0.122806  0  0.998663  0  0  0.127203  0  0.994942  0  0  0.109399  0.119571  0  1.001458  0
H  H27  1  0.47762028  0.06713488  0.60629898  1  0  0.108236  0  0.939405  0  0  0.119083  0  0.997757  0  0  0.12249  0  0.996297  0  0  0.106075  0.116572  0  0.999012  0
H  H28  1  0.52237790  0.93286525  0.39370409  1  0  0.1083  0  0.939336  0  0  0.119125  0  0.997715  0  0  0.12254  0  0.996254  0  0  0.106081  0.116613  0  0.998971  0
C  C29  1  0.61469834  0.69251777  0.94620255  1  0  0.126487  0  3.767657  0  0  0.123347  0  3.999286  0  0  0.127135  0  4.021753  0  0  0.117075  0.12  0  3.985346  0
C  C30  1  0.38530457  0.30748332  0.05379654  1  0  0.126539  0  3.76762  0  0  0.123376  0  3.999261  0  0  0.127164  0  4.021729  0  0  0.117101  0.120028  0  3.985321  0
C  C31  1  0.67548858  0.47688808  0.09234014  1  0  -0.090922  0  3.718605  0  0  -0.117119  0  3.976235  0  0  -0.120047  0  3.999252  0  0  -0.081926  -0.114525  0  3.960075  0
C  C32  1  0.32451302  0.52311302  0.90765996  1  0  -0.090847  0  3.718569  0  0  -0.117062  0  3.976246  0  0  -0.119988  0  3.999266  0  0  -0.081932  -0.114466  0  3.960076  0
C  C33  1  0.44519778  0.90863212  0.90246941  1  0  0.152838  0  3.702845  0  0  0.11967  0  3.961709  0  0  0.127929  0  3.97856  0  0  0.060005  0.113755  0  3.950479  0
C  C34  1  0.55479879  0.09136599  0.09753143  1  0  0.152771  0  3.702913  0  0  0.119632  0  3.96175  0  0  0.12789  0  3.9786  0  0  0.059981  0.113717  0  3.950522  0
C  C35  1  0.33983954  0.82970735  0.08266781  1  0  -0.036746  0  3.672284  0  0  -0.061546  0  3.918578  0  0  -0.05867  0  3.936712  0  0  -0.058157  -0.062048  0  3.90508  0
C  C36  1  0.66016308  0.17029174  0.91733303  1  0  -0.036748  0  3.672327  0  0  -0.061574  0  3.918579  0  0  -0.058695  0  3.936723  0  0  -0.058137  -0.062076  0  3.905081  0
C  C37  1  0.31544903  0.93074878  0.00666964  1  0  -0.121693  0  3.733931  0  0  -0.135524  0  3.988884  0  0  -0.142728  0  4.010256  0  0  -0.08286  -0.130475  0  3.973558  0
C  C38  1  0.68454995  0.06925234  0.99333163  1  0  -0.121612  0  3.733995  0  0  -0.135434  0  3.988972  0  0  -0.142639  0  4.010349  0  0  -0.082837  -0.130389  0  3.973648  0
C  C39  1  0.52830796  0.59567612  0.12712933  1  0  -0.090708  0  3.694779  0  0  -0.113056  0  3.949513  0  0  -0.116825  0  3.971695  0  0  -0.076966  -0.11022  0  3.933869  0
C  C40  1  0.47169495  0.40432499  0.87287142  1  0  -0.090659  0  3.694755  0  0  -0.113042  0  3.949473  0  0  -0.116813  0  3.971658  0  0  -0.07694  -0.110205  0  3.933828  0
C  C41  1  0.07132006  0.33276434  0.84154195  1  0  -0.112394  0  3.726882  0  0  -0.126918  0  3.984185  0  0  -0.134831  0  4.007522  0  0  -0.079737  -0.122225  0  3.968762  0
C  C42  1  0.92868336  0.66723574  0.15845709  1  0  -0.112352  0  3.72676  0  0  -0.126884  0  3.984103  0  0  -0.134795  0  4.007432  0  0  -0.079748  -0.12219  0  3.968679  0
C  C43  1  0.49302738  0.70596554  0.05416038  1  0  0.022376  0  3.798542  0  0  0.039524  0  4.027008  0  0  0.037228  0  4.051779  0  0  3.7e-05  0.040915  0  4.010392  0
C  C44  1  0.50697814  0.29403552  0.94583670  1  0  0.022223  0  3.798638  0  0  0.039472  0  4.027004  0  0  0.037174  0  4.051781  0  0  3e-06  0.040862  0  4.010387  0
C  C45  1  0.95592152  0.33967585  0.94645037  1  0  -0.047404  0  3.682439  0  0  -0.073977  0  3.935354  0  0  -0.071117  0  3.953069  0  0  -0.061556  -0.075416  0  3.923154  0
C  C46  1  0.04407928  0.66032424  0.05354819  1  0  -0.047463  0  3.682461  0  0  -0.074067  0  3.935376  0  0  -0.071207  0  3.953089  0  0  -0.061575  -0.075508  0  3.923171  0
C  C47  1  0.03402782  0.44603186  0.77496682  1  0  0.169219  0  3.623009  0  0  0.134288  0  3.876892  0  0  0.143726  0  3.892105  0  0  0.066812  0.128331  0  3.866755  0
C  C48  1  0.96597429  0.55396823  0.22503323  1  0  0.169269  0  3.62295  0  0  0.134289  0  3.876855  0  0  0.143744  0  3.89208  0  0  0.066825  0.128333  0  3.866717  0
C  C49  1  0.80063451  0.46019300  0.98454051  1  0  0.022788  0  3.81166  0  0  0.040036  0  4.042919  0  0  0.037248  0  4.067989  0  0  -0.001855  0.041655  0  4.025979  0
C  C50  1  0.19936941  0.53980607  0.01545766  1  0  0.022787  0  3.811743  0  0  0.040023  0  4.043035  0  0  0.037234  0  4.068104  0  0  -0.001878  0.041647  0  4.02609  0
C  C51  1  0.77191020  0.56839948  0.91151484  1  0  0.125243  0  3.778558  0  0  0.117026  0  4.012545  0  0  0.120991  0  4.03535  0  0  0.117188  0.114406  0  3.997496  0
C  C52  1  0.22809009  0.43160162  0.08848459  1  0  0.125177  0  3.778612  0  0  0.116939  0  4.01264  0  0  0.120902  0  4.035448  0  0  0.11716  0.114316  0  3.997592  0
C  C53  1  0.90067141  0.33188460  0.50954458  1  0  0.667602  0  3.885262  0  0  0.614604  0  4.179487  0  0  0.649346  0  4.171807  0  0  0.214138  0.590909  0  4.184285  0
C  C54  1  0.09932728  0.66811450  0.49045595  1  0  0.667484  0  3.885436  0  0  0.614488  0  4.179657  0  0  0.649232  0  4.171978  0  0  0.214044  0.590794  0  4.184455  0
C  C55  1  0.22277984  0.19279922  0.55459044  1  0  -0.051429  0  3.693525  0  0  -0.040048  0  3.931846  0  0  -0.041464  0  3.949849  0  0  -0.002444  -0.039049  0  3.91975  0
C  C56  1  0.77721753  0.80719989  0.44541027  1  0  -0.051428  0  3.693536  0  0  -0.040026  0  3.931848  0  0  -0.041445  0  3.949859  0  0  -0.002429  -0.039027  0  3.91975  0
C  C57  1  0.98920468  0.90831963  0.71462904  1  0  0.627536  0  3.935999  0  0  0.580585  0  4.224431  0  0  0.61401  0  4.218109  0  0  0.19554  0.557758  0  4.228245  0
C  C58  1  0.01079088  0.09168049  0.28537188  1  0  0.627544  0  3.935926  0  0  0.5806  0  4.224349  0  0  0.614026  0  4.218024  0  0  0.195565  0.557772  0  4.22816  0
C  C59  1  0.25436283  0.99228394  0.66097131  1  0  -0.065688  0  3.735736  0  0  -0.09348  0  3.990563  0  0  -0.091551  0  4.008477  0  0  -0.08753  -0.094502  0  3.978418  0
C  C60  1  0.74563716  0.00771516  0.33902905  1  0  -0.065692  0  3.735809  0  0  -0.093465  0  3.990626  0  0  -0.091539  0  4.00854  0  0  -0.087519  -0.094487  0  3.978482  0
C  C61  1  0.95546206  0.12527505  0.61682552  1  0  -0.066618  0  3.69979  0  0  -0.103391  0  3.953167  0  0  -0.100856  0  3.970651  0  0  -0.076466  -0.104807  0  3.941441  0
C  C62  1  0.04453612  0.87472506  0.38317505  1  0  -0.066586  0  3.699788  0  0  -0.10335  0  3.95316  0  0  -0.100812  0  3.970636  0  0  -0.076453  -0.104767  0  3.941436  0
C  C63  1  0.33087208  0.08290026  0.60837273  1  0  -0.097315  0  3.741661  0  0  -0.118181  0  3.997601  0  0  -0.121302  0  4.016497  0  0  -0.088525  -0.116152  0  3.984804  0
C  C64  1  0.66912479  0.91709986  0.39162885  1  0  -0.097378  0  3.741645  0  0  -0.118235  0  3.997562  0  0  -0.121365  0  4.016469  0  0  -0.088538  -0.116204  0  3.984764  0
C  C65  1  0.32360751  0.28037605  0.49599442  1  0  0.685197  0  3.827116  0  0  0.625775  0  4.127874  0  0  0.660268  0  4.119381  0  0  0.230344  0.602237  0  4.133001  0
C  C66  1  0.67639219  0.71962103  0.50400602  1  0  0.685235  0  3.827134  0  0  0.625778  0  4.127936  0  0  0.660274  0  4.119441  0  0  0.230323  0.602242  0  4.133061  0
C  C67  1  0.03162755  0.21550106  0.56092130  1  0  -0.080644  0  3.726279  0  0  -0.065437  0  3.963595  0  0  -0.072237  0  3.98444  0  0  -0.014233  -0.061181  0  3.949788  0
C  C68  1  0.96837325  0.78449904  0.43907893  1  0  -0.080659  0  3.726293  0  0  -0.065463  0  3.963612  0  0  -0.072263  0  3.984455  0  0  -0.014229  -0.061207  0  3.949805  0
C  C69  1  0.06578229  0.01197974  0.66483662  1  0  -0.07233  0  3.773514  0  0  -0.047768  0  4.007825  0  0  -0.056249  0  4.030856  0  0  -0.02421  -0.042497  0  3.992582  0
C  C70  1  0.93421407  0.98802139  0.33516501  1  0  -0.072382  0  3.773661  0  0  -0.047825  0  4.007968  0  0  -0.056304  0  4.030994  0  0  -0.024219  -0.042553  0  3.992727  0
N  N71  1  0.58996969  0.79286644  0.87289196  1  0  -0.347113  0  3.243273  0  0  -0.280973  0  3.514124  0  0  -0.297939  0  3.528179  0  0  -0.31429  -0.269757  0  3.505206  0
N  N72  1  0.41003140  0.20713564  0.12710485  1  0  -0.347031  0  3.243273  0  0  -0.280914  0  3.514139  0  0  -0.29788  0  3.528198  0  0  -0.314263  -0.269697  0  3.505219  0
N  N73  1  0.88805027  0.56033652  0.80922057  1  0  -0.340552  0  3.259996  0  0  -0.265067  0  3.53233  0  0  -0.283808  0  3.545442  0  0  -0.316834  -0.252719  0  3.523599  0
N  N74  1  0.11195133  0.43966457  0.19077870  1  0  -0.340508  0  3.260002  0  0  -0.264994  0  3.532337  0  0  -0.283733  0  3.545445  0  0  -0.316803  -0.252644  0  3.523604  0
O  O75  1  0.82642499  0.91904093  0.69785373  1  0  -0.639686  0  2.020971  0  0  -0.573516  0  2.285022  0  0  -0.602841  0  2.27366  0  0  -0.329426  -0.553012  0  2.292158  0
O  O76  1  0.17357581  0.08095917  0.30214733  1  0  -0.639671  0  2.020846  0  0  -0.573496  0  2.284886  0  0  -0.60282  0  2.273523  0  0  -0.329441  -0.552996  0  2.29203  0
O  O77  1  0.08651595  0.81330470  0.76667682  1  0  -0.651567  0  1.941885  0  0  -0.603046  0  2.173428  0  0  -0.624728  0  2.16162  0  0  -0.333635  -0.587773  0  2.181312  0
O  O78  1  0.91348092  0.18669539  0.23332143  1  0  -0.651585  0  1.941861  0  0  -0.603074  0  2.173419  0  0  -0.624758  0  2.161616  0  0  -0.333659  -0.587796  0  2.181292  0
O  O79  1  0.73372556  0.38399670  0.56687834  1  0  -0.623438  0  2.023694  0  0  -0.562906  0  2.282379  0  0  -0.590343  0  2.269551  0  0  -0.310352  -0.543783  0  2.290779  0
O  O80  1  0.26627393  0.61600340  0.43312206  1  0  -0.623395  0  2.02371  0  0  -0.56286  0  2.282389  0  0  -0.590295  0  2.269562  0  0  -0.310335  -0.543735  0  2.29079  0
O  O81  1  0.95917986  0.36886491  0.41260690  1  0  -0.641066  0  2.089336  0  0  -0.569965  0  2.349051  0  0  -0.598302  0  2.337683  0  0  -0.316564  -0.550079  0  2.356405  0
O  O82  1  0.04081912  0.63113620  0.58739355  1  0  -0.640975  0  2.08946  0  0  -0.569884  0  2.349166  0  0  -0.598233  0  2.337822  0  0  -0.316481  -0.549999  0  2.356522  0
O  O83  1  0.35989751  0.27712615  0.38598317  1  0  -0.652805  0  2.124609  0  0  -0.568669  0  2.383505  0  0  -0.599058  0  2.368569  0  0  -0.312709  -0.547302  0  2.393227  0
O  O84  1  0.64009906  0.72287194  0.61401600  1  0  -0.652837  0  2.124654  0  0  -0.568695  0  2.383563  0  0  -0.599081  0  2.368624  0  0  -0.312738  -0.547337  0  2.393292  0
O  O85  1  0.38012128  0.34429587  0.55756680  1  0  -0.588893  0  2.0042  0  0  -0.529483  0  2.250828  0  0  -0.555088  0  2.238802  0  0  -0.283936  -0.511254  0  2.258409  0
O  O86  1  0.61988104  0.65570118  0.44243163  1  0  -0.588924  0  2.004244  0  0  -0.529483  0  2.250857  0  0  -0.555085  0  2.238827  0  0  -0.283898  -0.511252  0  2.258436  0
O  O87  1  0.40026475  0.59968275  0.66116298  1  0  -0.818501  0  1.947637  0  0  -0.754659  0  2.155616  0  0  -0.776401  0  2.121586  0  0  -0.570368  -0.739036  0  2.179121  0
O  O88  1  0.59973292  0.40031837  0.33883764  1  0  -0.818522  0  1.947594  0  0  -0.754675  0  2.155575  0  0  -0.776419  0  2.121542  0  0  -0.57037  -0.739059  0  2.179105  0
