# generated using pymatgen
data_CdH24C22(N3O2)2
_symmetry_space_group_name_H-M   'P 1'
_cell_length_a   8.80735777
_cell_length_b   9.79297383
_cell_length_c   13.33140000
_cell_angle_alpha   104.35071179
_cell_angle_beta   90.00000000
_cell_angle_gamma   90.00000000
_symmetry_Int_Tables_number   1
_chemical_formula_structural   CdH24C22(N3O2)2
_chemical_formula_sum   'Cd2 H48 C44 N12 O8'
_cell_volume   1113.95759490
_cell_formula_units_Z   2
loop_
 _symmetry_equiv_pos_site_id
 _symmetry_equiv_pos_as_xyz
  1  'x, y, z'
loop_
 _atom_site_type_symbol
 _atom_site_label
 _atom_site_symmetry_multiplicity
 _atom_site_fract_x
 _atom_site_fract_y
 _atom_site_fract_z
 _atom_site_occupancy
 _atom_site_hle17_bader_spin_density
 _atom_site_hle17_ddec_charge
 _atom_site_hle17_ddec_spin_density
 _atom_site_hle17_ddec_sum_bond_order
 _atom_site_hle17_magmom
 _atom_site_hse06_10hf_bader_spin_density
 _atom_site_hse06_10hf_ddec_charge
 _atom_site_hse06_10hf_ddec_spin_density
 _atom_site_hse06_10hf_ddec_sum_bond_order
 _atom_site_hse06_10hf_magmom
 _atom_site_hse06_bader_spin_density
 _atom_site_hse06_ddec_charge
 _atom_site_hse06_ddec_spin_density
 _atom_site_hse06_ddec_sum_bond_order
 _atom_site_hse06_magmom
 _atom_site_pbe_bader_charge
 _atom_site_pbe_bader_spin_density
 _atom_site_pbe_cm5_charge
 _atom_site_pbe_ddec_charge
 _atom_site_pbe_ddec_spin_density
 _atom_site_pbe_ddec_sum_bond_order
 _atom_site_pbe_magmom
Cd  Cd0  1  0.99999912  0.00000105  0.00000019  1  0  1.044857  0  1.72302  0  0  0.827095  0  2.180765  0  0  0.883779  0  2.135022  0  1.256448  0  0.777801  0.787352  0  2.210795  0
Cd  Cd1  1  0.49999899  0.00000000  0.50000000  1  0  1.044924  0  1.722943  0  0  0.827137  0  2.180706  0  0  0.883823  0  2.134964  0  1.256485  0  0.777814  0.787392  0  2.210739  0
H  H2  1  0.85905333  0.73877661  0.06118920  1  0  0.289619  0  0.974663  0  0  0.266326  0  1.043511  0  0  0.276148  0  1.035578  0  0.54868  0  0.305193  0.259402  0  1.049141  0
H  H3  1  0.35905661  0.26122538  0.43881139  1  0  0.289581  0  0.97477  0  0  0.26629  0  1.04362  0  0  0.276111  0  1.035686  0  0.548678  0  0.305166  0.259365  0  1.049251  0
H  H4  1  0.14094579  0.26122433  0.93881119  1  0  0.289601  0  0.974718  0  0  0.26631  0  1.043568  0  0  0.276131  0  1.035635  0  0.548676  0  0.305173  0.259385  0  1.049197  0
H  H5  1  0.64094478  0.73877661  0.56118995  1  0  0.289611  0  0.974665  0  0  0.266319  0  1.043515  0  0  0.276139  0  1.035584  0  0.54868  0  0.305186  0.259394  0  1.049145  0
H  H6  1  0.75429546  0.02019837  0.19785518  1  0  0.084787  0  0.971846  0  0  0.088537  0  1.04535  0  0  0.09191  0  1.041473  0  0.125982  0  0.114676  0.08599  0  1.048115  0
H  H7  1  0.25429874  0.97980152  0.30214202  1  0  0.084807  0  0.971774  0  0  0.088543  0  1.045292  0  0  0.091917  0  1.041415  0  0.12594  0  0.114667  0.085996  0  1.048057  0
H  H8  1  0.24569911  0.97979941  0.80214164  1  0  0.084772  0  0.971775  0  0  0.088532  0  1.04527  0  0  0.091907  0  1.041389  0  0.125956  0  0.114665  0.085985  0  1.048034  0
H  H9  1  0.74569924  0.02019837  0.69785818  1  0  0.084787  0  0.971751  0  0  0.088524  0  1.045276  0  0  0.091896  0  1.041401  0  0.125939  0  0.114663  0.085978  0  1.04804  0
H  H10  1  0.35939496  0.25183398  0.14767052  1  0  0.105797  0  0.973884  0  0  0.110046  0  1.044785  0  0  0.112999  0  1.042896  0  0.135402  0  0.109617  0.108348  0  1.045358  0
H  H11  1  0.85939849  0.74816485  0.35232874  1  0  0.105729  0  0.973817  0  0  0.109959  0  1.044754  0  0  0.112921  0  1.042855  0  0.135457  0  0.109611  0.108254  0  1.045335  0
H  H12  1  0.64059962  0.74816590  0.85232893  1  0  0.105697  0  0.973762  0  0  0.109933  0  1.044702  0  0  0.112894  0  1.042803  0  0.135491  0  0.109593  0.108228  0  1.045281  0
H  H13  1  0.14060176  0.25183504  0.64766921  1  0  0.105719  0  0.973794  0  0  0.109928  0  1.044752  0  0  0.1129  0  1.042843  0  0.135475  0  0.109584  0.108223  0  1.045332  0
H  H14  1  0.45752314  0.23748970  0.96675500  1  0  0.101418  0  0.964419  0  0  0.111085  0  1.026642  0  0  0.113677  0  1.027115  0  0.078796  0  0.107353  0.10947  0  1.025879  0
H  H15  1  0.95752554  0.76251124  0.53324240  1  0  0.101417  0  0.964451  0  0  0.111104  0  1.026653  0  0  0.113696  0  1.027127  0  0.078761  0  0.107348  0.109489  0  1.025889  0
H  H16  1  0.54247257  0.76251124  0.03324240  1  0  0.10142  0  0.964443  0  0  0.111067  0  1.026686  0  0  0.113658  0  1.02716  0  0.078778  0  0.107341  0.109452  0  1.025923  0
H  H17  1  0.04247244  0.23748759  0.46675836  1  0  0.101425  0  0.964447  0  0  0.111099  0  1.026664  0  0  0.11369  0  1.027138  0  0.078786  0  0.107364  0.109484  0  1.025901  0
H  H18  1  0.70759928  0.11724180  0.91440475  1  0  0.08348  0  0.966091  0  0  0.091382  0  1.030798  0  0  0.094322  0  1.027898  0  0.110617  0  0.114528  0.089109  0  1.033028  0
H  H19  1  0.20760029  0.88275914  0.58559489  1  0  0.083479  0  0.965982  0  0  0.091337  0  1.030745  0  0  0.094276  0  1.027846  0  0.110649  0  0.114501  0.089049  0  1.032993  0
H  H20  1  0.29239870  0.88275808  0.08559470  1  0  0.083518  0  0.966037  0  0  0.091376  0  1.030778  0  0  0.094316  0  1.027882  0  0.11052  0  0.11453  0.089087  0  1.033031  0
H  H21  1  0.79239656  0.11724075  0.41440606  1  0  0.083535  0  0.965967  0  0  0.091382  0  1.030716  0  0  0.094323  0  1.027817  0  0.110538  0  0.114529  0.08908  0  1.032983  0
H  H22  1  0.91944829  0.81237421  0.71685628  1  0  0.130514  0  0.957407  0  0  0.146192  0  1.024859  0  0  0.148452  0  1.023825  0  0.078003  0  0.094781  0.144577  0  1.025549  0
H  H23  1  0.41944816  0.18762251  0.78314485  1  0  0.130514  0  0.957372  0  0  0.146193  0  1.024823  0  0  0.148466  0  1.02378  0  0.077994  0  0.094772  0.144578  0  1.025514  0
H  H24  1  0.08055083  0.18762567  0.28314393  1  0  0.130508  0  0.957365  0  0  0.146173  0  1.024836  0  0  0.148432  0  1.023805  0  0.078057  0  0.094761  0.14456  0  1.025525  0
H  H25  1  0.58055437  0.81237527  0.21685497  1  0  0.130513  0  0.957395  0  0  0.146194  0  1.02484  0  0  0.148455  0  1.023807  0  0.077984  0  0.094773  0.144578  0  1.025532  0
H  H26  1  0.98438717  0.63712706  0.66184111  1  0  0.105676  0  0.951636  0  0  0.129343  0  1.008378  0  0  0.130568  0  1.008189  0  0.022168  0  0.090468  0.128517  0  1.008406  0
H  H27  1  0.48438818  0.36287071  0.83815871  1  0  0.105689  0  0.951648  0  0  0.12935  0  1.008395  0  0  0.130575  0  1.008208  0  0.022188  0  0.090467  0.128526  0  1.008424  0
H  H28  1  0.01561081  0.36287282  0.33815759  1  0  0.10567  0  0.951657  0  0  0.129338  0  1.008395  0  0  0.130562  0  1.008207  0  0.022183  0  0.090462  0.128512  0  1.008425  0
H  H29  1  0.51561434  0.63712812  0.16184130  1  0  0.105677  0  0.951655  0  0  0.129343  0  1.008393  0  0  0.130568  0  1.008204  0  0.022171  0  0.090465  0.128518  0  1.008422  0
H  H30  1  0.10749535  0.76250070  0.74120063  1  0  0.105872  0  0.964329  0  0  0.124179  0  1.031224  0  0  0.125162  0  1.031903  0  0.018488  0  0.08815  0.12368  0  1.030429  0
H  H31  1  0.60749434  0.23749602  0.75879825  1  0  0.105852  0  0.964343  0  0  0.124173  0  1.031229  0  0  0.125156  0  1.031908  0  0.018257  0  0.088153  0.123675  0  1.030432  0
H  H32  1  0.89250263  0.23749813  0.25879788  1  0  0.105859  0  0.964334  0  0  0.124195  0  1.031201  0  0  0.125178  0  1.031878  0  0.018455  0  0.088163  0.123692  0  1.030409  0
H  H33  1  0.39250705  0.76250281  0.24120027  1  0  0.105881  0  0.964331  0  0  0.124186  0  1.031231  0  0  0.125171  0  1.031907  0  0.018503  0  0.088157  0.123687  0  1.030436  0
H  H34  1  0.86810258  0.45362476  0.76214742  1  0  0.133133  0  0.96679  0  0  0.144527  0  1.023103  0  0  0.147613  0  1.023292  0  0.09295  0  0.101466  0.142195  0  1.023343  0
H  H35  1  0.36809337  0.54637302  0.73785391  1  0  0.133134  0  0.966777  0  0  0.144541  0  1.023084  0  0  0.147623  0  1.023278  0  0.092969  0  0.101459  0.14221  0  1.023324  0
H  H36  1  0.13190108  0.54637408  0.23785260  1  0  0.133137  0  0.966811  0  0  0.144556  0  1.023095  0  0  0.147629  0  1.023299  0  0.092937  0  0.101471  0.142224  0  1.023335  0
H  H37  1  0.63190234  0.45362581  0.26214761  1  0  0.133115  0  0.966777  0  0  0.144518  0  1.023092  0  0  0.147606  0  1.023279  0  0.092961  0  0.101444  0.142186  0  1.023332  0
H  H38  1  0.82396448  0.46666415  0.05941101  1  0  0.128311  0  0.935724  0  0  0.148165  0  0.994284  0  0  0.150249  0  0.994036  0  0.072341  0  0.099185  0.146611  0  0.994679  0
H  H39  1  0.32396436  0.53333468  0.44058975  1  0  0.128327  0  0.93573  0  0  0.14818  0  0.994289  0  0  0.150263  0  0.994041  0  0.072356  0  0.099194  0.146626  0  0.994684  0
H  H40  1  0.17603804  0.53333573  0.94058919  1  0  0.128325  0  0.935719  0  0  0.148181  0  0.994275  0  0  0.150265  0  0.994027  0  0.072352  0  0.099192  0.146627  0  0.99467  0
H  H41  1  0.67603703  0.46666626  0.55941215  1  0  0.128287  0  0.935745  0  0  0.14814  0  0.99431  0  0  0.150223  0  0.994064  0  0.072325  0  0.099174  0.146586  0  0.994706  0
H  H42  1  0.79234433  0.34755250  0.93697495  1  0  0.120499  0  0.958014  0  0  0.140287  0  1.019034  0  0  0.141571  0  1.019404  0  0.069566  0  0.095939  0.13931  0  1.018869  0
H  H43  1  0.29234420  0.65244633  0.56302506  1  0  0.120506  0  0.957986  0  0  0.140304  0  1.018987  0  0  0.141589  0  1.019356  0  0.069585  0  0.095937  0.139329  0  1.01882  0
H  H44  1  0.20765592  0.65244738  0.06302450  1  0  0.120486  0  0.957989  0  0  0.140278  0  1.019006  0  0  0.141562  0  1.019375  0  0.069567  0  0.095928  0.139302  0  1.018841  0
H  H45  1  0.70765832  0.34755461  0.43697683  1  0  0.120481  0  0.958034  0  0  0.140293  0  1.019021  0  0  0.141577  0  1.019391  0  0.069609  0  0.095947  0.139316  0  1.018856  0
H  H46  1  0.64854865  0.46874797  0.99424366  1  0  0.099649  0  0.959364  0  0  0.117689  0  1.027269  0  0  0.119338  0  1.026739  0  7.9e-05  0  0.087933  0.117264  0  1.026399  0
H  H47  1  0.14854739  0.53125297  0.50575599  1  0  0.09966  0  0.959344  0  0  0.11769  0  1.027263  0  0  0.119339  0  1.026734  0  6.9e-05  0  0.087924  0.117265  0  1.026393  0
H  H48  1  0.35145387  0.53125297  0.00575749  1  0  0.099675  0  0.959304  0  0  0.117704  0  1.02723  0  0  0.119352  0  1.026701  0  2e-06  0  0.087931  0.117279  0  1.02636  0
H  H49  1  0.85145286  0.46875219  0.49424593  1  0  0.099672  0  0.95929  0  0  0.1177  0  1.027217  0  0  0.119348  0  1.026688  0  -0.000252  0  0.087929  0.117275  0  1.026348  0
C  C50  1  0.49006979  0.13647995  0.29096129  1  0  0.636984  0  3.942903  0  0  0.584049  0  4.242395  0  0  0.618635  0  4.235277  0  1.592177  0  0.202678  0.560758  0  4.246485  0
C  C51  1  0.99006651  0.86351783  0.20903778  1  0  0.637039  0  3.943037  0  0  0.584093  0  4.242535  0  0  0.618683  0  4.235413  0  1.592276  0  0.202677  0.560801  0  4.246626  0
C  C52  1  0.50993273  0.86351678  0.70903909  1  0  0.637084  0  3.943011  0  0  0.584142  0  4.242514  0  0  0.618727  0  4.235399  0  1.592295  0  0.202717  0.560848  0  4.246602  0
C  C53  1  0.00993033  0.13648311  0.79096337  1  0  0.637092  0  3.942974  0  0  0.584159  0  4.242473  0  0  0.618744  0  4.235358  0  1.592302  0  0.202698  0.560866  0  4.246563  0
C  C54  1  0.68795775  0.07238231  0.14930691  1  0  0.114043  0  3.699857  0  0  0.073659  0  3.952658  0  0  0.082946  0  3.969361  0  0.481988  0  0.048127  0.068068  0  3.940563  0
C  C55  1  0.18795875  0.92761652  0.35069160  1  0  0.113926  0  3.699954  0  0  0.073551  0  3.952753  0  0  0.082836  0  3.969456  0  0.482273  0  0.048111  0.067961  0  3.940656  0
C  C56  1  0.31203910  0.92761547  0.85069141  1  0  0.113993  0  3.700007  0  0  0.073617  0  3.95279  0  0  0.082905  0  3.969494  0  0.482076  0  0.048138  0.068027  0  3.940691  0
C  C57  1  0.81203923  0.07238336  0.64930860  1  0  0.113949  0  3.69993  0  0  0.073582  0  3.952725  0  0  0.082867  0  3.969428  0  0.482014  0  0.048143  0.067993  0  3.940626  0
C  C58  1  0.55000604  0.13666546  0.18521248  1  0  -0.126769  0  3.757474  0  0  -0.098259  0  3.991199  0  0  -0.111897  0  4.015034  0  0.032085  0  -0.017256  -0.089782  0  3.975129  0
C  C59  1  0.05000932  0.86333548  0.31478567  1  0  -0.126801  0  3.757514  0  0  -0.098283  0  3.991214  0  0  -0.111922  0  4.015051  0  0.031951  0  -0.017267  -0.089805  0  3.975141  0
C  C60  1  0.44998626  0.86333443  0.81478623  1  0  -0.126841  0  3.757649  0  0  -0.098349  0  3.991394  0  0  -0.111987  0  4.01523  0  0.032187  0  -0.017361  -0.08987  0  3.97532  0
C  C61  1  0.94998866  0.13666440  0.68521454  1  0  -0.126836  0  3.75759  0  0  -0.098335  0  3.991306  0  0  -0.111973  0  4.015144  0  0.032157  0  -0.017379  -0.089857  0  3.975233  0
C  C62  1  0.46635212  0.20027508  0.11994751  1  0  -0.00517  0  3.689495  0  0  -0.035104  0  3.937528  0  0  -0.028365  0  3.953741  0  -0.126799  0  -0.059071  -0.038751  0  3.925374  0
C  C63  1  0.96635566  0.79972481  0.38005044  1  0  -0.004969  0  3.689291  0  0  -0.034883  0  3.937329  0  0  -0.02815  0  3.953538  0  -0.126938  0  -0.059029  -0.038524  0  3.925178  0
C  C64  1  0.53364245  0.79972375  0.88005100  1  0  -0.004937  0  3.689241  0  0  -0.034861  0  3.937283  0  0  -0.028126  0  3.953492  0  -0.126945  0  -0.058973  -0.038501  0  3.925131  0
C  C65  1  0.03364346  0.20027297  0.61994938  1  0  -0.005009  0  3.689312  0  0  -0.034902  0  3.937357  0  0  -0.028178  0  3.95356  0  -0.126916  0  -0.058955  -0.038542  0  3.925207  0
C  C66  1  0.52133343  0.19315511  0.02102227  1  0  -0.126566  0  3.745377  0  0  -0.137302  0  3.998265  0  0  -0.146116  0  4.020851  0  0.011684  0  -0.086771  -0.131426  0  3.982307  0
C  C67  1  0.02133671  0.80684478  0.47897643  1  0  -0.126635  0  3.745436  0  0  -0.137388  0  3.998315  0  0  -0.146205  0  4.020904  0  0.012083  0  -0.086755  -0.131511  0  3.982351  0
C  C68  1  0.47866001  0.80684372  0.97897624  1  0  -0.12659  0  3.745402  0  0  -0.137305  0  3.998273  0  0  -0.14612  0  4.020861  0  0.01197  0  -0.086736  -0.131428  0  3.982309  0
C  C69  1  0.97866128  0.19315406  0.52102283  1  0  -0.126539  0  3.745293  0  0  -0.137299  0  3.998153  0  0  -0.146114  0  4.020745  0  0.011982  0  -0.086774  -0.131421  0  3.982187  0
C  C70  1  0.65949632  0.12616416  0.99115714  1  0  0.127412  0  3.70167  0  0  0.097058  0  3.950922  0  0  0.10505  0  3.969238  0  0.470335  0  0.046813  0.092023  0  3.938298  0
C  C71  1  0.15949732  0.87383783  0.50884044  1  0  0.127421  0  3.701623  0  0  0.097091  0  3.950891  0  0  0.105084  0  3.969207  0  0.470141  0  0.046841  0.092065  0  3.938271  0
C  C72  1  0.34050053  0.87383572  0.00884231  1  0  0.127317  0  3.701652  0  0  0.097003  0  3.950889  0  0  0.104997  0  3.969202  0  0.47041  0  0.04677  0.091977  0  3.93827  0
C  C73  1  0.84049952  0.12616311  0.49115920  1  0  0.127329  0  3.701501  0  0  0.097044  0  3.950727  0  0  0.105037  0  3.969039  0  0.470271  0  0.046856  0.092027  0  3.938114  0
C  C74  1  0.98930919  0.72596910  0.73047247  1  0  -0.3482  0  3.713562  0  0  -0.425694  0  3.949494  0  0  -0.428375  0  3.956025  0  -0.025863  0  -0.238285  -0.424042  0  3.945191  0
C  C75  1  0.48930907  0.27402868  0.76952810  1  0  -0.348179  0  3.71346  0  0  -0.425684  0  3.949384  0  0  -0.428375  0  3.955906  0  -0.025431  0  -0.238273  -0.424035  0  3.945084  0
C  C76  1  0.01068879  0.27403079  0.26952849  1  0  -0.348179  0  3.713476  0  0  -0.425674  0  3.949411  0  0  -0.42836  0  3.955932  0  -0.025703  0  -0.238285  -0.424022  0  3.945113  0
C  C77  1  0.51069119  0.72596910  0.23047097  1  0  -0.348177  0  3.713453  0  0  -0.425659  0  3.94938  0  0  -0.428344  0  3.955903  0  -0.025863  0  -0.238259  -0.424007  0  3.945082  0
C  C78  1  0.93237157  0.68021790  0.82214778  1  0  0.271702  0  3.779867  0  0  0.270672  0  4.04467  0  0  0.281445  0  4.062532  0  0.462746  0  0.092554  0.26333  0  4.03272  0
C  C79  1  0.43236804  0.31978199  0.67785392  1  0  0.271729  0  3.779688  0  0  0.270721  0  4.044472  0  0  0.281481  0  4.062354  0  0.462515  0  0.09257  0.263376  0  4.032528  0
C  C80  1  0.06762755  0.31978094  0.17785148  1  0  0.271673  0  3.779808  0  0  0.270611  0  4.044672  0  0  0.281409  0  4.062494  0  0.462587  0  0.092544  0.263272  0  4.032719  0
C  C81  1  0.56763108  0.68021790  0.32214778  1  0  0.271685  0  3.779756  0  0  0.270641  0  4.044586  0  0  0.281425  0  4.062428  0  0.462794  0  0.092528  0.263292  0  4.032645  0
C  C82  1  0.87670334  0.54666393  0.82603940  1  0  -0.348238  0  3.713998  0  0  -0.36961  0  3.961573  0  0  -0.380577  0  3.979808  0  -0.023895  0  -0.127201  -0.362925  0  3.950131  0
C  C83  1  0.37669527  0.45333279  0.67396173  1  0  -0.348311  0  3.713942  0  0  -0.369718  0  3.961529  0  0  -0.380677  0  3.979771  0  -0.023919  0  -0.127245  -0.36303  0  3.950089  0
C  C84  1  0.12329805  0.45333806  0.17396119  1  0  -0.34821  0  3.713999  0  0  -0.369611  0  3.961565  0  0  -0.380573  0  3.979801  0  -0.023917  0  -0.127207  -0.362926  0  3.950122  0
C  C85  1  0.62329931  0.54666499  0.32604034  1  0  -0.348247  0  3.714075  0  0  -0.369629  0  3.961643  0  0  -0.380601  0  3.979877  0  -0.02392  0  -0.127189  -0.36294  0  3.950202  0
C  C86  1  0.83615429  0.55840055  0.92907642  1  0  0.265308  0  3.768572  0  0  0.25917  0  4.031152  0  0  0.269375  0  4.050229  0  0.387262  0  0.094503  0.252222  0  4.018378  0
C  C87  1  0.33615076  0.44159933  0.57092453  1  0  0.265351  0  3.76854  0  0  0.259224  0  4.031111  0  0  0.26943  0  4.050187  0  0.387256  0  0.094525  0.252275  0  4.018336  0
C  C88  1  0.16384710  0.44159933  0.07092528  1  0  0.265209  0  3.768564  0  0  0.259104  0  4.031111  0  0  0.269308  0  4.05019  0  0.387272  0  0.094489  0.252157  0  4.018337  0
C  C89  1  0.66384609  0.55840161  0.42907661  1  0  0.265293  0  3.768618  0  0  0.259159  0  4.031192  0  0  0.269361  0  4.050273  0  0.387252  0  0.094496  0.252211  0  4.018418  0
C  C90  1  0.77199998  0.45518050  0.98283138  1  0  -0.352643  0  3.727751  0  0  -0.428818  0  3.96393  0  0  -0.432111  0  3.971529  0  -0.035263  0  -0.233712  -0.426675  0  3.958234  0
C  C91  1  0.27199985  0.54481833  0.51716863  1  0  -0.352687  0  3.72777  0  0  -0.428861  0  3.963949  0  0  -0.432154  0  3.971549  0  -0.035274  0  -0.233716  -0.426718  0  3.958254  0
C  C92  1  0.22800141  0.54482044  0.01716827  1  0  -0.352602  0  3.727594  0  0  -0.428788  0  3.963767  0  0  -0.43208  0  3.971367  0  -0.035261  0  -0.233671  -0.426646  0  3.958072  0
C  C93  1  0.72800040  0.45518261  0.48283326  1  0  -0.352608  0  3.727691  0  0  -0.428795  0  3.963871  0  0  -0.432087  0  3.971471  0  -0.035008  0  -0.233693  -0.426653  0  3.958177  0
N  N94  1  0.74322517  0.06876910  0.05470468  1  0  -0.331293  0  3.22628  0  0  -0.255913  0  3.496104  0  0  -0.275901  0  3.514271  0  -1.234161  0  -0.326671  -0.242337  0  3.482633  0
N  N95  1  0.24322732  0.93123079  0.44529177  1  0  -0.331253  0  3.22629  0  0  -0.255856  0  3.496092  0  0  -0.275844  0  3.514258  0  -1.234488  0  -0.32669  -0.24228  0  3.482616  0
N  N96  1  0.25676940  0.93123184  0.94529346  1  0  -0.331227  0  3.226217  0  0  -0.255844  0  3.496014  0  0  -0.275835  0  3.514187  0  -1.234618  0  -0.326656  -0.242267  0  3.482539  0
N  N97  1  0.75676953  0.06876910  0.55470918  1  0  -0.331272  0  3.226265  0  0  -0.255895  0  3.496062  0  0  -0.275883  0  3.514226  0  -1.234423  0  -0.326732  -0.242319  0  3.482582  0
N  N98  1  0.92568285  0.76854556  0.91758064  1  0  -0.319443  0  3.09622  0  0  -0.268796  0  3.377427  0  0  -0.286346  0  3.395781  0  -0.748589  0  -0.260481  -0.256799  0  3.364614  0
N  N99  1  0.42568272  0.23145327  0.58241937  1  0  -0.319441  0  3.096205  0  0  -0.268793  0  3.377402  0  0  -0.286342  0  3.395764  0  -0.748575  0  -0.26046  -0.256797  0  3.364591  0
N  N100  1  0.07431741  0.23145538  0.08241901  1  0  -0.319436  0  3.096315  0  0  -0.268779  0  3.377529  0  0  -0.286334  0  3.395875  0  -0.74859  0  -0.260481  -0.256784  0  3.364716  0
N  N101  1  0.57431753  0.76854662  0.41758158  1  0  -0.319466  0  3.096203  0  0  -0.268814  0  3.377422  0  0  -0.286367  0  3.395771  0  -0.748609  0  -0.260465  -0.256816  0  3.364611  0
N  N102  1  0.86647780  0.69266809  0.98038246  1  0  -0.221613  0  3.468703  0  0  -0.166176  0  3.703612  0  0  -0.179757  0  3.722893  0  -0.851856  0  -0.289146  -0.157674  0  3.691028  0
N  N103  1  0.36647881  0.30733074  0.51961680  1  0  -0.221602  0  3.468772  0  0  -0.166161  0  3.703663  0  0  -0.179744  0  3.722949  0  -0.851834  0  -0.289137  -0.157657  0  3.691078  0
N  N104  1  0.13352245  0.30733179  0.01961775  1  0  -0.221589  0  3.468802  0  0  -0.166158  0  3.703689  0  0  -0.179743  0  3.722977  0  -0.851845  0  -0.289145  -0.157655  0  3.691104  0
N  N105  1  0.63352144  0.69266915  0.48038190  1  0  -0.221586  0  3.468754  0  0  -0.166149  0  3.703655  0  0  -0.17973  0  3.722942  0  -0.851848  0  -0.289151  -0.157645  0  3.691067  0
O  O106  1  0.56646728  0.06914433  0.34444400  1  0  -0.645703  0  2.000336  0  0  -0.578239  0  2.255288  0  0  -0.606138  0  2.244085  0  -1.190118  0  -0.32791  -0.55881  0  2.262046  0
O  O107  1  0.06646715  0.93085555  0.15555245  1  0  -0.645761  0  2.000292  0  0  -0.5783  0  2.255256  0  0  -0.606193  0  2.244031  0  -1.190106  0  -0.32792  -0.55888  0  2.262036  0
O  O108  1  0.43353070  0.93085661  0.65555264  1  0  -0.64585  0  2.000243  0  0  -0.578357  0  2.255166  0  0  -0.606249  0  2.243946  0  -1.190112  0  -0.327949  -0.558944  0  2.261965  0
O  O109  1  0.93352742  0.06915066  0.84444891  1  0  -0.645723  0  2.000297  0  0  -0.578265  0  2.25525  0  0  -0.606154  0  2.244028  0  -1.190138  0  -0.327871  -0.558856  0  2.262054  0
O  O110  1  0.36694660  0.20257708  0.31780877  1  0  -0.601005  0  1.979681  0  0  -0.552015  0  2.206772  0  0  -0.575783  0  2.198366  0  -1.18301  0  -0.316371  -0.535324  0  2.211722  0
O  O111  1  0.86694786  0.79742281  0.18219219  1  0  -0.600996  0  1.97987  0  0  -0.551997  0  2.206955  0  0  -0.575767  0  2.198547  0  -1.183051  0  -0.316351  -0.535306  0  2.2119  0
O  O112  1  0.63304911  0.79742281  0.68219369  1  0  -0.600932  0  1.979867  0  0  -0.551936  0  2.206956  0  0  -0.575704  0  2.198553  0  -1.183037  0  -0.316308  -0.535249  0  2.211913  0
O  O113  1  0.13305125  0.20257603  0.81780858  1  0  -0.601008  0  1.979797  0  0  -0.552018  0  2.206879  0  0  -0.57579  0  2.19848  0  -1.183019  0  -0.316347  -0.535326  0  2.211827  0
