# generated using pymatgen
data_NaPH8C8O3
_symmetry_space_group_name_H-M   'P 1'
_cell_length_a   5.90682448
_cell_length_b   7.65014737
_cell_length_c   18.73549370
_cell_angle_alpha   87.50848122
_cell_angle_beta   88.44118104
_cell_angle_gamma   89.83200073
_symmetry_Int_Tables_number   1
_chemical_formula_structural   NaPH8C8O3
_chemical_formula_sum   'Na4 P4 H32 C32 O12'
_cell_volume   845.50629432
_cell_formula_units_Z   4
loop_
 _symmetry_equiv_pos_site_id
 _symmetry_equiv_pos_as_xyz
  1  'x, y, z'
loop_
 _atom_site_type_symbol
 _atom_site_label
 _atom_site_symmetry_multiplicity
 _atom_site_fract_x
 _atom_site_fract_y
 _atom_site_fract_z
 _atom_site_occupancy
 _atom_site_hle17_bader_spin_density
 _atom_site_hle17_ddec_charge
 _atom_site_hle17_ddec_spin_density
 _atom_site_hle17_ddec_sum_bond_order
 _atom_site_hle17_magmom
 _atom_site_hse06_10hf_bader_spin_density
 _atom_site_hse06_10hf_ddec_charge
 _atom_site_hse06_10hf_ddec_spin_density
 _atom_site_hse06_10hf_ddec_sum_bond_order
 _atom_site_hse06_10hf_magmom
 _atom_site_hse06_bader_spin_density
 _atom_site_hse06_ddec_charge
 _atom_site_hse06_ddec_spin_density
 _atom_site_hse06_ddec_sum_bond_order
 _atom_site_hse06_magmom
 _atom_site_pbe_bader_spin_density
 _atom_site_pbe_cm5_charge
 _atom_site_pbe_ddec_charge
 _atom_site_pbe_ddec_spin_density
 _atom_site_pbe_ddec_sum_bond_order
 _atom_site_pbe_magmom
Na  Na0  1  0.87978513  0.16316480  0.52699534  1  0  0.919005  0  0.390736  0  0  0.888311  0  0.529285  0  0  0.896481  0  0.509861  0  0  0.747518  0.882003  0  0.543515  0
Na  Na1  1  0.12026927  0.83679653  0.47301203  1  0  0.918982  0  0.390799  0  0  0.888286  0  0.529319  0  0  0.896448  0  0.509907  0  0  0.747602  0.881982  0  0.543544  0
Na  Na2  1  0.61915385  0.66968263  0.47318718  1  0  0.91862  0  0.391972  0  0  0.888313  0  0.530007  0  0  0.896321  0  0.510789  0  0  0.749413  0.882081  0  0.544147  0
Na  Na3  1  0.38087322  0.33025127  0.52681847  1  0  0.918629  0  0.391927  0  0  0.888345  0  0.530019  0  0  0.896354  0  0.510788  0  0  0.749412  0.882114  0  0.54415  0
P  P4  1  0.37335211  0.92706451  0.60594281  1  0  1.52135  0  4.867349  0  0  1.374215  0  5.363937  0  0  1.423732  0  5.322035  0  0  0.311302  1.339737  0  5.392404  0
P  P5  1  0.62668323  0.07286022  0.39406073  1  0  1.521017  0  4.867701  0  0  1.373824  0  5.364356  0  0  1.423346  0  5.322452  0  0  0.311119  1.339356  0  5.392772  0
P  P6  1  0.12309512  0.44783065  0.39557790  1  0  1.522839  0  4.872547  0  0  1.375437  0  5.368714  0  0  1.424928  0  5.326818  0  0  0.308747  1.340961  0  5.397152  0
P  P7  1  0.87691268  0.55212420  0.60443947  1  0  1.522577  0  4.872957  0  0  1.375209  0  5.369163  0  0  1.424707  0  5.327265  0  0  0.308614  1.340735  0  5.397614  0
H  H8  1  0.73680495  0.87921599  0.59710627  1  0  0.435693  0  0.880078  0  0  0.402368  0  0.948656  0  0  0.414303  0  0.931739  0  0  0.306292  0.394027  0  0.960452  0
H  H9  1  0.26325131  0.12072573  0.40288432  1  0  0.435683  0  0.880123  0  0  0.402249  0  0.94881  0  0  0.414181  0  0.931904  0  0  0.306304  0.393906  0  0.960604  0
H  H10  1  0.37393088  0.81304098  0.73169565  1  0  0.140409  0  0.966593  0  0  0.149197  0  1.024754  0  0  0.152041  0  1.025825  0  0  0.103705  0.147287  0  1.02405  0
H  H11  1  0.62610467  0.18697531  0.26832711  1  0  0.140234  0  0.9666  0  0  0.149075  0  1.024742  0  0  0.151921  0  1.025779  0  0  0.103627  0.147163  0  1.024037  0
H  H12  1  0.99265980  0.06261724  0.68209616  1  0  0.092539  0  0.948719  0  0  0.105885  0  1.008317  0  0  0.108908  0  1.0061  0  0  0.112178  0.103619  0  1.010088  0
H  H13  1  0.00738598  0.93735067  0.31789042  1  0  0.092478  0  0.948641  0  0  0.105796  0  1.008284  0  0  0.108812  0  1.006067  0  0  0.112154  0.103537  0  1.010037  0
H  H14  1  0.24769308  0.81283159  0.84255291  1  0  0.087648  0  0.987327  0  0  0.097996  0  1.051438  0  0  0.09981  0  1.052595  0  0  0.096082  0.096406  0  1.05134  0
H  H15  1  0.75230775  0.18719131  0.15746072  1  0  0.087655  0  0.987152  0  0  0.097967  0  1.051314  0  0  0.099779  0  1.052465  0  0  0.096073  0.096377  0  1.05122  0
H  H16  1  0.06349505  0.80286700  0.96230554  1  0  0.081791  0  0.961871  0  0  0.094356  0  1.020942  0  0  0.096674  0  1.02081  0  0  0.09702  0.092817  0  1.020882  0
H  H17  1  0.93647111  0.19721486  0.03769805  1  0  0.082077  0  0.961362  0  0  0.094475  0  1.020708  0  0  0.096812  0  1.020524  0  0  0.096997  0.092933  0  1.020654  0
H  H18  1  0.69116148  0.94710661  0.98251935  1  0  0.082493  0  0.957501  0  0  0.095453  0  1.016434  0  0  0.098077  0  1.015461  0  0  0.097662  0.093676  0  1.017025  0
H  H19  1  0.30881617  0.05296610  0.01746124  1  0  0.082672  0  0.957637  0  0  0.095723  0  1.016434  0  0  0.098352  0  1.015458  0  0  0.097719  0.093944  0  1.017029  0
H  H20  1  0.50101654  0.10318364  0.87990108  1  0  0.085188  0  0.974259  0  0  0.094933  0  1.037771  0  0  0.096809  0  1.038827  0  0  0.095488  0.093365  0  1.037578  0
H  H21  1  0.49899745  0.89689818  0.12006857  1  0  0.085303  0  0.974076  0  0  0.095041  0  1.037564  0  0  0.096913  0  1.038625  0  0  0.09556  0.093476  0  1.037389  0
H  H22  1  0.68657660  0.11275186  0.75944019  1  0  0.09736  0  0.958194  0  0  0.107915  0  1.020519  0  0  0.110323  0  1.020325  0  0  0.102535  0.106128  0  1.020794  0
H  H23  1  0.31347301  0.88727233  0.24053093  1  0  0.097293  0  0.958455  0  0  0.107804  0  1.020818  0  0  0.110233  0  1.020594  0  0  0.102426  0.106011  0  1.021093  0
H  H24  1  0.76054281  0.39754068  0.40401491  1  0  0.436258  0  0.879507  0  0  0.401945  0  0.949489  0  0  0.413823  0  0.932677  0  0  0.306497  0.39363  0  0.961241  0
H  H25  1  0.23947185  0.60238014  0.59600401  1  0  0.436244  0  0.879494  0  0  0.402117  0  0.949188  0  0  0.41399  0  0.932381  0  0  0.306599  0.393804  0  0.960939  0
H  H26  1  0.12945916  0.36078315  0.26975469  1  0  0.13985  0  0.967423  0  0  0.149144  0  1.024851  0  0  0.151896  0  1.026064  0  0  0.103856  0.14728  0  1.024089  0
H  H27  1  0.87056755  0.63919001  0.73024602  1  0  0.139873  0  0.967466  0  0  0.14928  0  1.024778  0  0  0.152026  0  1.026  0  0  0.103939  0.147421  0  1.024015  0
H  H28  1  0.49363112  0.61129004  0.32089376  1  0  0.09072  0  0.9506  0  0  0.103254  0  1.011478  0  0  0.106372  0  1.00904  0  0  0.111746  0.100964  0  1.013319  0
H  H29  1  0.50634370  0.38872637  0.67911350  1  0  0.090791  0  0.95052  0  0  0.103289  0  1.011437  0  0  0.106418  0  1.008977  0  0  0.111782  0.100991  0  1.013303  0
H  H30  1  0.27028007  0.37489672  0.16061980  1  0  0.089899  0  0.97905  0  0  0.099061  0  1.044842  0  0  0.101058  0  1.045837  0  0  0.096867  0.097398  0  1.044768  0
H  H31  1  0.72966795  0.62513020  0.83939095  1  0  0.090049  0  0.97906  0  0  0.099209  0  1.04483  0  0  0.101248  0  1.045719  0  0  0.096916  0.09752  0  1.044827  0
H  H32  1  0.47345164  0.38117662  0.04406065  1  0  0.078541  0  0.984271  0  0  0.08963  0  1.046996  0  0  0.091601  0  1.047306  0  0  0.09492  0.088286  0  1.046689  0
H  H33  1  0.52648245  0.61883725  0.95594629  1  0  0.078639  0  0.984228  0  0  0.089731  0  1.046943  0  0  0.091697  0  1.047258  0  0  0.094967  0.088386  0  1.04663  0
H  H34  1  0.83421244  0.54654686  0.02552858  1  0  0.077277  0  0.969686  0  0  0.089175  0  1.031822  0  0  0.091787  0  1.030501  0  0  0.095771  0.087382  0  1.032676  0
H  H35  1  0.16572667  0.45344738  0.97447809  1  0  0.07722  0  0.969447  0  0  0.08918  0  1.031508  0  0  0.091788  0  1.030193  0  0  0.095828  0.087392  0  1.032362  0
H  H36  1  0.99841047  0.69944621  0.12729456  1  0  0.08664  0  0.975967  0  0  0.096758  0  1.03777  0  0  0.09849  0  1.039278  0  0  0.09596  0.095302  0  1.037271  0
H  H37  1  0.00152225  0.30058600  0.87269661  1  0  0.086661  0  0.97581  0  0  0.096807  0  1.037601  0  0  0.098513  0  1.039141  0  0  0.095915  0.095346  0  1.037096  0
H  H38  1  0.79739217  0.68791600  0.24567118  1  0  0.09543  0  0.961748  0  0  0.106323  0  1.024033  0  0  0.108694  0  1.023935  0  0  0.102426  0.104581  0  1.024225  0
H  H39  1  0.20257349  0.31213446  0.75432763  1  0  0.095454  0  0.961853  0  0  0.106332  0  1.02416  0  0  0.108641  0  1.024128  0  0  0.102451  0.104601  0  1.024364  0
C  C40  1  0.27515810  0.90050520  0.69684485  1  0  -0.417859  0  3.625121  0  0  -0.404698  0  3.878088  0  0  -0.418044  0  3.893754  0  0  -0.105124  -0.395862  0  3.867672  0
C  C41  1  0.72488935  0.09945745  0.30316048  1  0  -0.41756  0  3.625167  0  0  -0.404408  0  3.878097  0  0  -0.417746  0  3.893772  0  0  -0.104972  -0.395554  0  3.867652  0
C  C42  1  0.08442525  0.97905487  0.72036399  1  0  -0.007019  0  3.762648  0  0  -0.032466  0  4.005333  0  0  -0.028517  0  4.023894  0  0  -0.068679  -0.034984  0  3.992743  0
C  C43  1  0.91561454  0.02094836  0.27963062  1  0  -0.007185  0  3.762577  0  0  -0.032607  0  4.00534  0  0  -0.028657  0  4.023904  0  0  -0.068787  -0.035129  0  3.99273  0
C  C44  1  0.98050801  0.96487082  0.79219072  1  0  0.066881  0  3.810171  0  0  0.088887  0  4.038834  0  0  0.087783  0  4.062275  0  0  -0.012718  0.089609  0  4.02273  0
C  C45  1  0.01948720  0.03513512  0.20779821  1  0  0.066957  0  3.809997  0  0  0.088835  0  4.038841  0  0  0.087732  0  4.062277  0  0  -0.012759  0.089561  0  4.022735  0
C  C46  1  0.08409716  0.87650766  0.85022484  1  0  -0.108712  0  3.720934  0  0  -0.126031  0  3.960033  0  0  -0.127865  0  3.981424  0  0  -0.088142  -0.124776  0  3.946057  0
C  C47  1  0.91592513  0.12353746  0.14978163  1  0  -0.108719  0  3.720601  0  0  -0.125934  0  3.959651  0  0  -0.127759  0  3.981026  0  0  -0.088111  -0.124689  0  3.945695  0
C  C48  1  0.98004082  0.87059248  0.91783896  1  0  -0.08005  0  3.800398  0  0  -0.091994  0  4.049105  0  0  -0.094895  0  4.071651  0  0  -0.094248  -0.089858  0  4.033512  0
C  C49  1  0.01993075  0.12943967  0.08215046  1  0  -0.080163  0  3.800409  0  0  -0.092042  0  4.049085  0  0  -0.094939  0  4.071631  0  0  -0.094209  -0.089909  0  4.033504  0
C  C50  1  0.77027759  0.95200438  0.92915292  1  0  -0.080585  0  3.781668  0  0  -0.093588  0  4.029049  0  0  -0.095077  0  4.049895  0  0  -0.094163  -0.092462  0  4.014528  0
C  C51  1  0.22967782  0.04807622  0.07082526  1  0  -0.080852  0  3.781994  0  0  -0.093892  0  4.029309  0  0  -0.095381  0  4.05015  0  0  -0.094115  -0.092767  0  4.0148  0
C  C52  1  0.66427380  0.03888832  0.87200134  1  0  -0.077438  0  3.787438  0  0  -0.089084  0  4.035197  0  0  -0.091161  0  4.056984  0  0  -0.09425  -0.087571  0  4.020664  0
C  C53  1  0.33571051  0.96114381  0.12797878  1  0  -0.077476  0  3.787126  0  0  -0.089147  0  4.035011  0  0  -0.091226  0  4.0568  0  0  -0.094362  -0.087651  0  4.020499  0
C  C54  1  0.76859940  0.04493593  0.80418229  1  0  -0.106051  0  3.703583  0  0  -0.124502  0  3.945898  0  0  -0.12679  0  3.966983  0  0  -0.084144  -0.122668  0  3.931456  0
C  C55  1  0.23145249  0.95511442  0.19579473  1  0  -0.106059  0  3.703801  0  0  -0.124439  0  3.946104  0  0  -0.126746  0  3.967192  0  0  -0.084029  -0.122584  0  3.931643  0
C  C56  1  0.22212571  0.44397660  0.30485275  1  0  -0.418604  0  3.633775  0  0  -0.404951  0  3.885047  0  0  -0.418262  0  3.900936  0  0  -0.10556  -0.396138  0  3.874521  0
C  C57  1  0.77788470  0.55601228  0.69515490  1  0  -0.418415  0  3.634011  0  0  -0.404908  0  3.885286  0  0  -0.418226  0  3.901184  0  0  -0.105606  -0.396105  0  3.874774  0
C  C58  1  0.40917742  0.53255471  0.28225984  1  0  -0.006989  0  3.771164  0  0  -0.032155  0  4.014156  0  0  -0.028357  0  4.032859  0  0  -0.06874  -0.034616  0  4.001507  0
C  C59  1  0.59081762  0.46746690  0.71774591  1  0  -0.007157  0  3.771264  0  0  -0.032261  0  4.014332  0  0  -0.028461  0  4.033042  0  0  -0.068763  -0.034719  0  4.001692  0
C  C60  1  0.51919323  0.53317256  0.21150473  1  0  0.069064  0  3.813804  0  0  0.090053  0  4.04317  0  0  0.089082  0  4.066754  0  0  -0.01296  0.09071  0  4.027052  0
C  C61  1  0.48076950  0.46684387  0.78850007  1  0  0.069083  0  3.813986  0  0  0.090012  0  4.043427  0  0  0.089034  0  4.067016  0  0  -0.012997  0.090672  0  4.027304  0
C  C62  1  0.42932861  0.44657233  0.15384927  1  0  -0.10956  0  3.71879  0  0  -0.125811  0  3.957847  0  0  -0.127767  0  3.978682  0  0  -0.088025  -0.124553  0  3.944294  0
C  C63  1  0.57062576  0.55345589  0.84615654  1  0  -0.10969  0  3.719156  0  0  -0.125913  0  3.95823  0  0  -0.127864  0  3.979093  0  0  -0.087976  -0.124651  0  3.944644  0
C  C64  1  0.54309361  0.45115942  0.08781894  1  0  -0.082924  0  3.804445  0  0  -0.093274  0  4.048022  0  0  -0.095751  0  4.069988  0  0  -0.096817  -0.09142  0  4.032852  0
C  C65  1  0.45686908  0.54885832  0.91218531  1  0  -0.083271  0  3.804775  0  0  -0.093661  0  4.048384  0  0  -0.09614  0  4.070362  0  0  -0.097071  -0.0918  0  4.033196  0
C  C66  1  0.74704156  0.54289578  0.07765618  1  0  -0.083303  0  3.786085  0  0  -0.096608  0  4.033569  0  0  -0.098309  0  4.054324  0  0  -0.095148  -0.095343  0  4.019209  0
C  C67  1  0.25290029  0.45712986  0.92234241  1  0  -0.08321  0  3.785431  0  0  -0.09653  0  4.032942  0  0  -0.098227  0  4.05369  0  0  -0.095104  -0.095275  0  4.018576  0
C  C68  1  0.83904436  0.62843917  0.13442415  1  0  -0.074398  0  3.786026  0  0  -0.085588  0  4.032478  0  0  -0.087674  0  4.054757  0  0  -0.095294  -0.08413  0  4.017708  0
C  C69  1  0.16089716  0.37158779  0.86557069  1  0  -0.074305  0  3.785611  0  0  -0.085514  0  4.032036  0  0  -0.087578  0  4.05431  0  0  -0.095174  -0.084046  0  4.017257  0
C  C70  1  0.72606725  0.62269750  0.20083739  1  0  -0.102209  0  3.702576  0  0  -0.120548  0  3.943878  0  0  -0.123071  0  3.965267  0  0  -0.082625  -0.118622  0  3.92926  0
C  C71  1  0.27387960  0.37734384  0.79915977  1  0  -0.102144  0  3.702921  0  0  -0.120458  0  3.944233  0  0  -0.122926  0  3.965637  0  0  -0.082592  -0.118553  0  3.929633  0
O  O72  1  0.63196746  0.98771075  0.60859740  1  0  -0.8126  0  1.974381  0  0  -0.747696  0  2.210339  0  0  -0.768315  0  2.183032  0  0  -0.428861  -0.732931  0  2.228915  0
O  O73  1  0.36807108  0.01223360  0.39140361  1  0  -0.812447  0  1.974604  0  0  -0.747377  0  2.210651  0  0  -0.768  0  2.183327  0  0  -0.428842  -0.732645  0  2.229295  0
O  O74  1  0.37685737  0.74878652  0.57129516  1  0  -0.936877  0  2.037608  0  0  -0.861789  0  2.290474  0  0  -0.886105  0  2.26917  0  0  -0.460122  -0.844516  0  2.304971  0
O  O75  1  0.62319392  0.25114078  0.42871607  1  0  -0.936812  0  2.037682  0  0  -0.861648  0  2.290666  0  0  -0.885967  0  2.26935  0  0  -0.460045  -0.844378  0  2.30517  0
O  O76  1  0.23412311  0.06542702  0.56664886  1  0  -0.979678  0  1.892155  0  0  -0.924019  0  2.165413  0  0  -0.944184  0  2.139959  0  0  -0.534648  -0.909497  0  2.182648  0
O  O77  1  0.76591682  0.93448331  0.43334951  1  0  -0.979465  0  1.892179  0  0  -0.923737  0  2.165321  0  0  -0.943875  0  2.139809  0  0  -0.534471  -0.90928  0  2.182663  0
O  O78  1  0.86442022  0.50886536  0.39312944  1  0  -0.812216  0  1.979914  0  0  -0.746009  0  2.216079  0  0  -0.766757  0  2.189164  0  0  -0.430992  -0.731162  0  2.234452  0
O  O79  1  0.13560324  0.49107244  0.60689276  1  0  -0.812044  0  1.979902  0  0  -0.745962  0  2.215941  0  0  -0.766701  0  2.189015  0  0  -0.431079  -0.731122  0  2.23432  0
O  O80  1  0.12273235  0.26063420  0.42871890  1  0  -0.936816  0  2.033659  0  0  -0.86227  0  2.286719  0  0  -0.886517  0  2.265197  0  0  -0.458769  -0.84501  0  2.301331  0
O  O81  1  0.87734575  0.73930746  0.57128840  1  0  -0.936793  0  2.033736  0  0  -0.862312  0  2.286724  0  0  -0.886562  0  2.265216  0  0  -0.458659  -0.845011  0  2.301249  0
O  O82  1  0.26165358  0.57615327  0.43569792  1  0  -0.981707  0  1.893351  0  0  -0.925701  0  2.16632  0  0  -0.945785  0  2.140792  0  0  -0.536176  -0.911263  0  2.183684  0
O  O83  1  0.73837233  0.42380287  0.56431324  1  0  -0.981697  0  1.893478  0  0  -0.925666  0  2.166392  0  0  -0.945754  0  2.140861  0  0  -0.536065  -0.911228  0  2.183761  0
