# generated using pymatgen
data_SmH22(C3O)11
_symmetry_space_group_name_H-M   'P 1'
_cell_length_a   10.33321885
_cell_length_b   11.46005799
_cell_length_c   13.83630819
_cell_angle_alpha   102.35340349
_cell_angle_beta   110.85963663
_cell_angle_gamma   100.14152128
_symmetry_Int_Tables_number   1
_chemical_formula_structural   SmH22(C3O)11
_chemical_formula_sum   'Sm2 H44 C66 O22'
_cell_volume   1437.39625829
_cell_formula_units_Z   2
loop_
 _symmetry_equiv_pos_site_id
 _symmetry_equiv_pos_as_xyz
  1  'x, y, z'
loop_
 _atom_site_type_symbol
 _atom_site_label
 _atom_site_symmetry_multiplicity
 _atom_site_fract_x
 _atom_site_fract_y
 _atom_site_fract_z
 _atom_site_occupancy
 _atom_site_hle17_bader_spin_density
 _atom_site_hle17_ddec_charge
 _atom_site_hle17_ddec_spin_density
 _atom_site_hle17_ddec_sum_bond_order
 _atom_site_hle17_magmom
 _atom_site_hse06_10hf_bader_spin_density
 _atom_site_hse06_10hf_ddec_charge
 _atom_site_hse06_10hf_ddec_spin_density
 _atom_site_hse06_10hf_ddec_sum_bond_order
 _atom_site_hse06_10hf_magmom
 _atom_site_hse06_bader_spin_density
 _atom_site_hse06_ddec_charge
 _atom_site_hse06_ddec_spin_density
 _atom_site_hse06_ddec_sum_bond_order
 _atom_site_hse06_magmom
 _atom_site_pbe_bader_spin_density
 _atom_site_pbe_cm5_charge
 _atom_site_pbe_ddec_charge
 _atom_site_pbe_ddec_spin_density
 _atom_site_pbe_ddec_sum_bond_order
 _atom_site_pbe_magmom
Sm  Sm0  1  0.61722108  0.56506369  0.66282730  1  0  2.280714  0  1.611453  0  0  2.128133  0  2.073973  0  0  2.238649  0  1.909839  0  0  1.496456  2.093884  0  2.106229  0
Sm  Sm1  1  0.38277691  0.43493671  0.33717092  1  0  2.280718  0  1.611571  0  0  2.128176  0  2.074066  0  0  2.23867  0  1.909966  0  0  1.496421  2.093959  0  2.106275  0
H  H2  1  0.19028249  0.14395789  0.97919678  1  0  0.10574  0  0.947547  0  0  0.113294  0  1.013652  0  0  0.11728  0  1.01089  0  0  0.106219  0.110619  0  1.015258  0
H  H3  1  0.80971812  0.85603785  0.02080637  1  0  0.105714  0  0.947531  0  0  0.113236  0  1.013672  0  0  0.117221  0  1.010912  0  0  0.10621  0.110562  0  1.015274  0
H  H4  1  0.26422292  0.94036657  0.94153069  1  0  0.07908  0  0.994568  0  0  0.087964  0  1.063439  0  0  0.089915  0  1.063894  0  0  0.096204  0.086537  0  1.063135  0
H  H5  1  0.73577804  0.05963661  0.05846882  1  0  0.079121  0  0.994641  0  0  0.087975  0  1.063532  0  0  0.089927  0  1.063985  0  0  0.096216  0.086563  0  1.063224  0
H  H6  1  0.46434326  0.87276368  0.90610203  1  0  0.086252  0  0.948096  0  0  0.099203  0  1.004027  0  0  0.102267  0  1.002631  0  0  0.098792  0.096888  0  1.005257  0
H  H7  1  0.53565740  0.12723857  0.09389506  1  0  0.086232  0  0.948104  0  0  0.099182  0  1.004032  0  0  0.102245  0  1.002637  0  0  0.098831  0.096894  0  1.005252  0
H  H8  1  0.44554794  0.80596432  0.71783102  1  0  0.104569  0  0.964532  0  0  0.110308  0  1.030934  0  0  0.11364  0  1.029385  0  0  0.106774  0.107806  0  1.032389  0
H  H9  1  0.55445181  0.19403515  0.28216461  1  0  0.104592  0  0.964576  0  0  0.110313  0  1.030993  0  0  0.113631  0  1.029465  0  0  0.106784  0.10782  0  1.032454  0
H  H10  1  0.22585437  0.80575379  0.56315606  1  0  0.097467  0  0.980243  0  0  0.1014  0  1.049517  0  0  0.10496  0  1.048119  0  0  0.09522  0.098919  0  1.050409  0
H  H11  1  0.77413917  0.19424570  0.43684298  1  0  0.097502  0  0.980181  0  0  0.101445  0  1.049445  0  0  0.104999  0  1.048052  0  0  0.095252  0.098979  0  1.050351  0
H  H12  1  0.03057053  0.88005989  0.60088997  1  0  0.094818  0  0.95108  0  0  0.104135  0  1.012573  0  0  0.107877  0  1.009447  0  0  0.104367  0.101504  0  1.014843  0
H  H13  1  0.96941901  0.11993682  0.39910751  1  0  0.094867  0  0.951208  0  0  0.104211  0  1.012642  0  0  0.107952  0  1.009519  0  0  0.104392  0.101568  0  1.014901  0
H  H14  1  0.86214629  0.45952444  0.60848775  1  0  0.103505  0  0.989865  0  0  0.107449  0  1.062781  0  0  0.111014  0  1.061125  0  0  0.117231  0.103918  0  1.066057  0
H  H15  1  0.13784830  0.54047504  0.39151374  1  0  0.103528  0  0.989823  0  0  0.10746  0  1.062765  0  0  0.111029  0  1.061101  0  0  0.117248  0.103967  0  1.06601  0
H  H16  1  0.86566181  0.73158549  0.44859001  1  0  0.096946  0  0.952472  0  0  0.108836  0  1.011032  0  0  0.110926  0  1.010666  0  0  0.109541  0.10744  0  1.011226  0
H  H17  1  0.13433040  0.26841307  0.55140779  1  0  0.097027  0  0.952416  0  0  0.10891  0  1.010976  0  0  0.111004  0  1.010611  0  0  0.109559  0.107499  0  1.011169  0
H  H18  1  0.75519271  0.90352752  0.41961924  1  0  0.101936  0  0.937424  0  0  0.114173  0  0.991247  0  0  0.116495  0  0.991392  0  0  0.108288  0.112536  0  0.991219  0
H  H19  1  0.24480411  0.09647568  0.58037844  1  0  0.101924  0  0.937474  0  0  0.114187  0  0.991268  0  0  0.11651  0  0.991408  0  0  0.108317  0.112556  0  0.991228  0
H  H20  1  0.62798720  0.91237291  0.23258889  1  0  0.080042  0  0.986161  0  0  0.090101  0  1.051007  0  0  0.091256  0  1.052736  0  0  0.099358  0.089181  0  1.050064  0
H  H21  1  0.37201019  0.08762563  0.76740451  1  0  0.080028  0  0.986258  0  0  0.090057  0  1.051123  0  0  0.091211  0  1.052853  0  0  0.09936  0.089153  0  1.050174  0
H  H22  1  0.60422046  0.74557206  0.07347851  1  0  0.095277  0  0.936768  0  0  0.108808  0  0.989953  0  0  0.111722  0  0.988858  0  0  0.106301  0.106667  0  0.990773  0
H  H23  1  0.39578106  0.25442646  0.92651382  1  0  0.095302  0  0.936714  0  0  0.108815  0  0.989926  0  0  0.111729  0  0.98883  0  0  0.106303  0.106652  0  0.990758  0
H  H24  1  0.71658745  0.57285118  0.10316370  1  0  0.109538  0  0.930305  0  0  0.120921  0  0.983739  0  0  0.124687  0  0.981116  0  0  0.111695  0.118184  0  0.985795  0
H  H25  1  0.28341510  0.42714734  0.89683612  1  0  0.109536  0  0.930326  0  0  0.120918  0  0.98376  0  0  0.124684  0  0.981137  0  0  0.111692  0.118188  0  0.985817  0
H  H26  1  0.69457439  0.94563772  0.63457414  1  0  0.129865  0  0.954804  0  0  0.135123  0  1.019686  0  0  0.139733  0  1.016189  0  0  0.112681  0.131737  0  1.022203  0
H  H27  1  0.30543101  0.05436638  0.36542815  1  0  0.129891  0  0.954804  0  0  0.135156  0  1.019674  0  0  0.139766  0  1.016179  0  0  0.112629  0.131691  0  1.022175  0
H  H28  1  0.98982696  0.67573198  0.17558082  1  0  0.09867  0  0.983102  0  0  0.102688  0  1.054223  0  0  0.105369  0  1.053229  0  0  0.102725  0.100953  0  1.054624  0
H  H29  1  0.01017547  0.32426934  0.82442091  1  0  0.098707  0  0.98309  0  0  0.102729  0  1.054195  0  0  0.105408  0  1.053205  0  0  0.10275  0.101005  0  1.054599  0
H  H30  1  0.93793972  0.62222749  0.97802568  1  0  0.10167  0  0.949974  0  0  0.113414  0  1.005464  0  0  0.116758  0  1.004247  0  0  0.106342  0.110992  0  1.006529  0
H  H31  1  0.06205766  0.37777105  0.02197494  1  0  0.10175  0  0.949907  0  0  0.113456  0  1.005434  0  0  0.116801  0  1.004216  0  0  0.106351  0.111034  0  1.006487  0
H  H32  1  0.12966188  0.70063337  0.91985995  1  0  0.099377  0  0.960715  0  0  0.108555  0  1.022899  0  0  0.111542  0  1.021177  0  0  0.10411  0.106349  0  1.024296  0
H  H33  1  0.87033654  0.29936517  0.08013950  1  0  0.099381  0  0.960736  0  0  0.108563  0  1.022916  0  0  0.111549  0  1.021193  0  0  0.104121  0.106358  0  1.024321  0
H  H34  1  0.37057023  0.83199553  0.05719286  1  0  0.082485  0  0.959889  0  0  0.094763  0  1.019076  0  0  0.096961  0  1.018917  0  0  0.09971  0.093216  0  1.019037  0
H  H35  1  0.62943293  0.16800485  0.94280312  1  0  0.082438  0  0.959977  0  0  0.094709  0  1.019168  0  0  0.09691  0  1.018999  0  0  0.099685  0.093163  0  1.019125  0
H  H36  1  0.42034213  0.88682430  0.25295795  1  0  0.083979  0  0.982866  0  0  0.093288  0  1.048641  0  0  0.095118  0  1.049332  0  0  0.099096  0.091999  0  1.048176  0
H  H37  1  0.57966056  0.11317143  0.74703997  1  0  0.083979  0  0.982828  0  0  0.09327  0  1.048612  0  0  0.095097  0  1.049312  0  0  0.099091  0.091964  0  1.04813  0
H  H38  1  0.93874367  0.54004729  0.77510978  1  0  0.441644  0  0.851895  0  0  0.413056  0  0.911624  0  0  0.423323  0  0.896619  0  0  0.310147  0.40599  0  0.922105  0
H  H39  1  0.06125759  0.45995683  0.22489213  1  0  0.441655  0  0.851881  0  0  0.413066  0  0.911615  0  0  0.423333  0  0.89661  0  0  0.310161  0.405979  0  0.922128  0
H  H40  1  0.83111936  0.44353307  0.79454731  1  0  0.423347  0  0.852633  0  0  0.399655  0  0.920007  0  0  0.407447  0  0.910514  0  0  0.311553  0.394286  0  0.925607  0
H  H41  1  0.16888203  0.55646825  0.20545125  1  0  0.42328  0  0.852689  0  0  0.399584  0  0.920075  0  0  0.407375  0  0.910611  0  0  0.311504  0.394202  0  0.925677  0
H  H42  1  0.55532613  0.35967981  0.74470558  1  0  0.425031  0  0.84965  0  0  0.395557  0  0.927962  0  0  0.403848  0  0.916468  0  0  0.309138  0.3896  0  0.935141  0
H  H43  1  0.44467660  0.64032243  0.25529712  1  0  0.424983  0  0.849686  0  0  0.395504  0  0.928031  0  0  0.403796  0  0.916536  0  0  0.309107  0.38955  0  0.935187  0
H  H44  1  0.49701872  0.45439904  0.80409406  1  0  0.43167  0  0.834101  0  0  0.409334  0  0.896646  0  0  0.416847  0  0.886223  0  0  0.317742  0.40429  0  0.902841  0
H  H45  1  0.50297956  0.54560229  0.19590585  1  0  0.431618  0  0.834085  0  0  0.409285  0  0.89669  0  0  0.416797  0  0.886268  0  0  0.317695  0.404218  0  0.902864  0
C  C46  1  0.79981283  0.78555520  0.82252889  1  0  0.637206  0  3.935797  0  0  0.594145  0  4.225358  0  0  0.62677  0  4.224481  0  0  0.189571  0.571208  0  4.229497  0
C  C47  1  0.20018602  0.21444148  0.17747252  1  0  0.637272  0  3.93565  0  0  0.594202  0  4.225211  0  0  0.626828  0  4.224329  0  0  0.18958  0.571297  0  4.229378  0
C  C48  1  0.90185696  0.89862839  0.91229769  1  0  -0.053697  0  3.710258  0  0  -0.039149  0  3.943657  0  0  -0.043889  0  3.962918  0  0  -0.003285  -0.035616  0  3.929862  0
C  C49  1  0.09814620  0.10137199  0.08770697  1  0  -0.053793  0  3.710446  0  0  -0.039206  0  3.9438  0  0  -0.043945  0  3.963062  0  0  -0.003234  -0.035673  0  3.930065  0
C  C50  1  0.10672733  0.07888247  0.98704821  1  0  -0.091826  0  3.709379  0  0  -0.1238  0  3.962972  0  0  -0.124387  0  3.981236  0  0  -0.074897  -0.122957  0  3.949877  0
C  C51  1  0.89327260  0.92112072  0.01295608  1  0  -0.091786  0  3.709246  0  0  -0.123714  0  3.962843  0  0  -0.124299  0  3.981107  0  0  -0.074873  -0.122881  0  3.949739  0
C  C52  1  0.00951509  0.97841516  0.89857627  1  0  -0.013441  0  3.701719  0  0  -0.00739  0  3.940707  0  0  -0.008756  0  3.959927  0  0  -0.000249  -0.006455  0  3.92754  0
C  C53  1  0.99048673  0.02158430  0.10142570  1  0  -0.013402  0  3.701716  0  0  -0.007368  0  3.940668  0  0  -0.008736  0  3.959891  0  0  -0.000257  -0.006405  0  3.927574  0
C  C54  1  0.01830797  0.96293721  0.79015691  1  0  0.416722  0  3.704031  0  0  0.396047  0  3.969422  0  0  0.418077  0  3.970281  0  0  0.171938  0.380598  0  3.969122  0
C  C55  1  0.98168648  0.03706506  0.20984070  1  0  0.416739  0  3.703679  0  0  0.396087  0  3.969029  0  0  0.41812  0  3.969887  0  0  0.171979  0.380522  0  3.968882  0
C  C56  1  0.13489093  0.91413558  0.77272070  1  0  -0.043922  0  3.77873  0  0  -0.025357  0  4.010648  0  0  -0.032188  0  4.035236  0  0  -0.02113  -0.020894  0  3.994711  0
C  C57  1  0.86511120  0.08586481  0.22727862  1  0  -0.043936  0  3.778693  0  0  -0.025383  0  4.010609  0  0  -0.032218  0  4.035199  0  0  -0.021139  -0.020894  0  3.994644  0
C  C58  1  0.25663703  0.91121575  0.85897989  1  0  -0.094678  0  3.761819  0  0  -0.11747  0  4.009734  0  0  -0.118607  0  4.032924  0  0  -0.088202  -0.116495  0  3.994168  0
C  C59  1  0.74336066  0.08878372  0.14101808  1  0  -0.094828  0  3.761734  0  0  -0.117604  0  4.009675  0  0  -0.118741  0  4.032866  0  0  -0.088212  -0.116603  0  3.994074  0
C  C60  1  0.36853714  0.87355831  0.83915928  1  0  -0.083954  0  3.771397  0  0  -0.093475  0  4.018176  0  0  -0.097055  0  4.039447  0  0  -0.093934  -0.091091  0  4.003785  0
C  C61  1  0.63146012  0.12644302  0.16083891  1  0  -0.083832  0  3.77134  0  0  -0.093347  0  4.018095  0  0  -0.096927  0  4.039365  0  0  -0.093896  -0.090956  0  4.00371  0
C  C62  1  0.35839731  0.83588248  0.73311116  1  0  -0.033046  0  3.701777  0  0  -0.050598  0  3.952472  0  0  -0.050075  0  3.971924  0  0  -0.078332  -0.050856  0  3.939225  0
C  C63  1  0.64160037  0.16411700  0.26688609  1  0  -0.033028  0  3.701884  0  0  -0.05057  0  3.952588  0  0  -0.050037  0  3.972039  0  0  -0.078311  -0.050835  0  3.939383  0
C  C64  1  0.23542717  0.83559832  0.64637582  1  0  -0.083229  0  3.739439  0  0  -0.092664  0  3.99113  0  0  -0.097718  0  4.014001  0  0  -0.092628  -0.089208  0  3.975627  0
C  C65  1  0.76456862  0.16440488  0.35362520  1  0  -0.083325  0  3.739347  0  0  -0.092771  0  3.99103  0  0  -0.097823  0  4.013902  0  0  -0.092653  -0.089282  0  3.975534  0
C  C66  1  0.12527612  0.87553750  0.66641365  1  0  -0.057978  0  3.715178  0  0  -0.081208  0  3.961533  0  0  -0.080383  0  3.98092  0  0  -0.07634  -0.081722  0  3.948807  0
C  C67  1  0.87471877  0.12446292  0.33358519  1  0  -0.057946  0  3.715291  0  0  -0.081178  0  3.96161  0  0  -0.080353  0  3.980999  0  0  -0.076322  -0.081695  0  3.948823  0
C  C68  1  0.69869893  0.49244402  0.42593911  1  0  0.689634  0  3.897946  0  0  0.641642  0  4.19034  0  0  0.675603  0  4.187252  0  0  0.21789  0.619025  0  4.195359  0
C  C69  1  0.30129953  0.50756104  0.57407090  1  0  0.689663  0  3.897857  0  0  0.641706  0  4.19019  0  0  0.675662  0  4.187108  0  0  0.217913  0.619092  0  4.195183  0
C  C70  1  0.85525312  0.50131029  0.46338550  1  0  -0.054683  0  3.697268  0  0  -0.038482  0  3.929853  0  0  -0.043339  0  3.949001  0  0  0.006557  -0.035191  0  3.915844  0
C  C71  1  0.14474069  0.49868362  0.53661624  1  0  -0.054547  0  3.697136  0  0  -0.038393  0  3.929729  0  0  -0.043248  0  3.948881  0  0  0.006548  -0.035059  0  3.915632  0
C  C72  1  0.92418820  0.48087474  0.56243475  1  0  -0.056576  0  3.664553  0  0  -0.093128  0  3.918355  0  0  -0.092927  0  3.936113  0  0  -0.058968  -0.093378  0  3.907115  0
C  C73  1  0.07580590  0.51912009  0.43756651  1  0  -0.056643  0  3.66456  0  0  -0.093151  0  3.918334  0  0  -0.09295  0  3.936084  0  0  -0.058974  -0.093407  0  3.907036  0
C  C74  1  0.93185482  0.52068496  0.39946833  1  0  -0.009535  0  3.692061  0  0  -0.003091  0  3.930358  0  0  -0.005772  0  3.949729  0  0  0.006913  -0.001169  0  3.917125  0
C  C75  1  0.06814390  0.47931451  0.60053570  1  0  -0.009771  0  3.692237  0  0  -0.003273  0  3.930502  0  0  -0.00596  0  3.949879  0  0  0.006799  -0.001365  0  3.917264  0
C  C76  1  0.86990846  0.54199092  0.29143057  1  0  0.42903  0  3.67723  0  0  0.402436  0  3.94424  0  0  0.426512  0  3.943036  0  0  0.179559  0.385607  0  3.945097  0
C  C77  1  0.13009094  0.45800111  0.70857016  1  0  0.429069  0  3.677317  0  0  0.402476  0  3.944322  0  0  0.426556  0  3.94312  0  0  0.17966  0.385679  0  3.945164  0
C  C78  1  0.79626035  0.64055659  0.27728968  1  0  -0.045792  0  3.783377  0  0  -0.027758  0  4.019503  0  0  -0.034874  0  4.042788  0  0  -0.01755  -0.022589  0  4.003276  0
C  C79  1  0.20373897  0.35944474  0.72270979  1  0  -0.045662  0  3.783255  0  0  -0.027651  0  4.0194  0  0  -0.03477  0  4.042688  0  0  -0.017536  -0.022474  0  4.003155  0
C  C80  1  0.80661313  0.73356028  0.36644601  1  0  -0.053601  0  3.688364  0  0  -0.079825  0  3.935564  0  0  -0.079452  0  3.956009  0  0  -0.07129  -0.07991  0  3.921691  0
C  C81  1  0.19338559  0.26643919  0.63355152  1  0  -0.053803  0  3.688351  0  0  -0.080014  0  3.935568  0  0  -0.079644  0  3.956011  0  0  -0.071388  -0.080121  0  3.92169  0
C  C82  1  0.74503690  0.83039614  0.35020582  1  0  -0.064515  0  3.730062  0  0  -0.075402  0  3.979188  0  0  -0.07879  0  4.000375  0  0  -0.080588  -0.073376  0  3.96499  0
C  C83  1  0.25495799  0.16960427  0.64979086  1  0  -0.064407  0  3.730183  0  0  -0.07531  0  3.979289  0  0  -0.078696  0  4.000478  0  0  -0.080553  -0.073281  0  3.965107  0
C  C84  1  0.67281644  0.83488727  0.24494507  1  0  -0.04492  0  3.748103  0  0  -0.063369  0  3.999193  0  0  -0.063585  0  4.022254  0  0  -0.078033  -0.062871  0  3.983198  0
C  C85  1  0.32718538  0.16511218  0.75504894  1  0  -0.044988  0  3.748141  0  0  -0.063425  0  3.999247  0  0  -0.06364  0  4.022306  0  0  -0.078036  -0.062909  0  3.983283  0
C  C86  1  0.66098020  0.74202286  0.15557456  1  0  -0.081748  0  3.770816  0  0  -0.093781  0  4.022616  0  0  -0.097883  0  4.044595  0  0  -0.086789  -0.090398  0  4.00671  0
C  C87  1  0.33901731  0.25797289  0.84442199  1  0  -0.081727  0  3.770679  0  0  -0.09374  0  4.022459  0  0  -0.097844  0  4.044437  0  0  -0.08681  -0.090342  0  4.006582  0
C  C88  1  0.72277958  0.64537585  0.17147319  1  0  -0.080998  0  3.72983  0  0  -0.101419  0  3.972384  0  0  -0.10054  0  3.990808  0  0  -0.077743  -0.102139  0  3.959401  0
C  C89  1  0.27722432  0.35462360  0.82852716  1  0  -0.081009  0  3.729803  0  0  -0.10142  0  3.972349  0  0  -0.10054  0  3.990773  0  0  -0.077689  -0.102153  0  3.959381  0
C  C90  1  0.48262231  0.74290279  0.49629012  1  0  0.726536  0  3.837072  0  0  0.680641  0  4.1277  0  0  0.716168  0  4.119128  0  0  0.237155  0.656814  0  4.13525  0
C  C91  1  0.51738589  0.25710037  0.50372070  1  0  0.726585  0  3.837262  0  0  0.68063  0  4.127969  0  0  0.716156  0  4.119403  0  0  0.237098  0.656826  0  4.135545  0
C  C92  1  0.48721609  0.87546512  0.49878814  1  0  -0.066115  0  3.701867  0  0  -0.053994  0  3.940124  0  0  -0.058485  0  3.958333  0  0  -0.004651  -0.051028  0  3.927214  0
C  C93  1  0.51278737  0.12453620  0.50121026  1  0  -0.066075  0  3.701818  0  0  -0.053892  0  3.940075  0  0  -0.058383  0  3.958283  0  0  -0.004659  -0.050977  0  3.927254  0
C  C94  1  0.60838607  0.96968034  0.57628394  1  0  -0.093409  0  3.682041  0  0  -0.124462  0  3.933776  0  0  -0.124716  0  3.950148  0  0  -0.074497  -0.123915  0  3.922369  0
C  C95  1  0.39161592  0.03032284  0.42371872  1  0  -0.093499  0  3.682113  0  0  -0.124596  0  3.933858  0  0  -0.124848  0  3.950225  0  0  -0.074602  -0.124062  0  3.922392  0
C  C96  1  0.37732599  0.90637536  0.42248734  1  0  -0.02764  0  3.729681  0  0  -0.020729  0  3.969147  0  0  -0.022601  0  3.988361  0  0  -0.006445  -0.019289  0  3.955914  0
C  C97  1  0.62267704  0.09362781  0.57751415  1  0  -0.027663  0  3.729687  0  0  -0.020799  0  3.969239  0  0  -0.022672  0  3.988459  0  0  -0.006389  -0.019353  0  3.95614  0
C  C98  1  0.23951379  0.81027603  0.34316877  1  0  0.416436  0  3.714228  0  0  0.395012  0  3.978485  0  0  0.417806  0  3.978269  0  0  0.171  0.37904  0  3.978946  0
C  C99  1  0.76049174  0.18972528  0.65683523  1  0  0.416613  0  3.713963  0  0  0.395167  0  3.978276  0  0  0.417959  0  3.978067  0  0  0.171068  0.379188  0  3.978841  0
C  C100  1  0.20866385  0.78308429  0.22635825  1  0  -0.051392  0  3.789394  0  0  -0.034449  0  4.021598  0  0  -0.041119  0  4.044038  0  0  -0.021408  -0.029839  0  4.00637  0
C  C101  1  0.79134241  0.21691609  0.77364505  1  0  -0.051415  0  3.78946  0  0  -0.034484  0  4.021707  0  0  -0.041154  0  4.044152  0  0  -0.021434  -0.02991  0  4.006547  0
C  C102  1  0.07240313  0.70840089  0.14840963  1  0  -0.085191  0  3.73113  0  0  -0.104752  0  3.975944  0  0  -0.103779  0  3.99496  0  0  -0.082221  -0.105336  0  3.962857  0
C  C103  1  0.92759852  0.29159485  0.85159091  1  0  -0.085258  0  3.731178  0  0  -0.104804  0  3.975979  0  0  -0.103832  0  3.994997  0  0  -0.082245  -0.105388  0  3.962905  0
C  C104  1  0.04397465  0.67893222  0.03863554  1  0  -0.066851  0  3.737733  0  0  -0.077645  0  3.985207  0  0  -0.082396  0  4.007681  0  0  -0.084748  -0.074441  0  3.970165  0
C  C105  1  0.95602791  0.32106630  0.96136645  1  0  -0.066911  0  3.737595  0  0  -0.077672  0  3.985058  0  0  -0.082425  0  4.007532  0  0  -0.084724  -0.074446  0  3.96998  0
C  C106  1  0.15129172  0.72358259  0.00564080  1  0  -0.033175  0  3.706784  0  0  -0.052414  0  3.956866  0  0  -0.052394  0  3.977873  0  0  -0.075615  -0.052301  0  3.942649  0
C  C107  1  0.84870950  0.27641501  0.99435995  1  0  -0.03316  0  3.7067  0  0  -0.052407  0  3.956774  0  0  -0.052384  0  3.977776  0  0  -0.075566  -0.052277  0  3.942538  0
C  C108  1  0.28667131  0.79785104  0.08275243  1  0  -0.074991  0  3.771864  0  0  -0.084623  0  4.017765  0  0  -0.088518  0  4.040554  0  0  -0.089878  -0.082061  0  4.002119  0
C  C109  1  0.71332785  0.20214657  0.91724488  1  0  -0.074942  0  3.771835  0  0  -0.08456  0  4.01772  0  0  -0.088451  0  4.040508  0  0  -0.089919  -0.082022  0  4.00204  0
C  C110  1  0.31519726  0.82830846  0.19259072  1  0  -0.079303  0  3.745415  0  0  -0.10036  0  3.98892  0  0  -0.101045  0  4.01117  0  0  -0.082174  -0.099785  0  3.973728  0
C  C111  1  0.68480646  0.17168727  0.80740892  1  0  -0.079309  0  3.745335  0  0  -0.100324  0  3.988846  0  0  -0.101014  0  4.011097  0  0  -0.082178  -0.099752  0  3.973615  0
O  O112  1  0.82827439  0.74741025  0.74056650  1  0  -0.669397  0  1.942142  0  0  -0.621851  0  2.171287  0  0  -0.653904  0  2.164237  0  0  -0.373411  -0.60335  0  2.174965  0
O  O113  1  0.17172360  0.25259016  0.25943461  1  0  -0.669367  0  1.942031  0  0  -0.621832  0  2.171183  0  0  -0.653881  0  2.164132  0  0  -0.373354  -0.603275  0  2.174835  0
O  O114  1  0.68835979  0.72769378  0.83108797  1  0  -0.69073  0  1.905958  0  0  -0.643079  0  2.131555  0  0  -0.673005  0  2.119978  0  0  -0.396307  -0.626673  0  2.137905  0
O  O115  1  0.31164423  0.27230288  0.16891480  1  0  -0.690784  0  1.905819  0  0  -0.643138  0  2.131415  0  0  -0.673062  0  2.119835  0  0  -0.396319  -0.62674  0  2.137775  0
O  O116  1  0.93579625  0.99883365  0.72106415  1  0  -0.445916  0  1.932303  0  0  -0.408749  0  2.138032  0  0  -0.426362  0  2.135432  0  0  -0.251524  -0.396549  0  2.139763  0
O  O117  1  0.06421031  0.00116765  0.27894446  1  0  -0.446016  0  1.931811  0  0  -0.408845  0  2.13751  0  0  -0.426455  0  2.134904  0  0  -0.251584  -0.396545  0  2.13927  0
O  O118  1  0.64893254  0.52772670  0.49668043  1  0  -0.8201  0  2.142167  0  0  -0.762121  0  2.401502  0  0  -0.801901  0  2.3886  0  0  -0.420702  -0.745016  0  2.408288  0
O  O119  1  0.35106515  0.47227277  0.50331466  1  0  -0.820197  0  2.141624  0  0  -0.762249  0  2.40099  0  0  -0.802033  0  2.388087  0  0  -0.420697  -0.745159  0  2.407755  0
O  O120  1  0.61729617  0.44733931  0.32584716  1  0  -0.677323  0  1.998689  0  0  -0.627947  0  2.233035  0  0  -0.659138  0  2.225026  0  0  -0.356924  -0.610493  0  2.237051  0
O  O121  1  0.38269440  0.55265740  0.67414410  1  0  -0.677257  0  1.999298  0  0  -0.627898  0  2.233667  0  0  -0.659086  0  2.225658  0  0  -0.357104  -0.61065  0  2.23776  0
O  O122  1  0.89067917  0.48078159  0.21524628  1  0  -0.482668  0  1.978959  0  0  -0.432572  0  2.190024  0  0  -0.45105  0  2.183494  0  0  -0.247232  -0.419823  0  2.19481  0
O  O123  1  0.10931985  0.51921881  0.78475655  1  0  -0.482686  0  1.978729  0  0  -0.432591  0  2.189793  0  0  -0.451071  0  2.183263  0  0  -0.247293  -0.419874  0  2.19459  0
O  O124  1  0.42631148  0.66128729  0.40302803  1  0  -0.757585  0  2.048042  0  0  -0.703237  0  2.300702  0  0  -0.736935  0  2.288728  0  0  -0.381978  -0.685161  0  2.307216  0
O  O125  1  0.57368931  0.33871217  0.59696860  1  0  -0.757472  0  2.048677  0  0  -0.703112  0  2.301385  0  0  -0.73681  0  2.289413  0  0  -0.38171  -0.684847  0  2.307832  0
O  O126  1  0.53741109  0.72254262  0.58653194  1  0  -0.709561  0  2.042425  0  0  -0.658863  0  2.29075  0  0  -0.692221  0  2.279047  0  0  -0.378036  -0.641618  0  2.296603  0
O  O127  1  0.46258871  0.27746335  0.41346197  1  0  -0.709741  0  2.041859  0  0  -0.659042  0  2.290234  0  0  -0.692406  0  2.278537  0  0  -0.378078  -0.641759  0  2.296085  0
O  O128  1  0.15605914  0.75815497  0.37623479  1  0  -0.454211  0  1.943834  0  0  -0.409442  0  2.151363  0  0  -0.428179  0  2.149331  0  0  -0.248211  -0.39655  0  2.152928  0
O  O129  1  0.84395010  0.24184819  0.62376836  1  0  -0.454375  0  1.943651  0  0  -0.409614  0  2.151234  0  0  -0.428332  0  2.149172  0  0  -0.248236  -0.396634  0  2.152796  0
O  O130  1  0.84041282  0.51931825  0.77296152  1  0  -0.88503  0  1.903536  0  0  -0.838245  0  2.103646  0  0  -0.863601  0  2.072552  0  0  -0.624964  -0.825648  0  2.121516  0
O  O131  1  0.15958918  0.48068493  0.22703826  1  0  -0.884991  0  1.903592  0  0  -0.838202  0  2.103689  0  0  -0.863554  0  2.072619  0  0  -0.625067  -0.825722  0  2.121611  0
O  O132  1  0.58254260  0.44504749  0.79187256  1  0  -0.850345  0  1.850629  0  0  -0.803075  0  2.037725  0  0  -0.826893  0  2.008751  0  0  -0.609343  -0.790524  0  2.052699  0
O  O133  1  0.41745599  0.55495477  0.20812832  1  0  -0.850272  0  1.850658  0  0  -0.803001  0  2.037859  0  0  -0.826815  0  2.008888  0  0  -0.609334  -0.790471  0  2.052784  0
