# generated using pymatgen
data_Hf3H2C30N9O16
_symmetry_space_group_name_H-M   'P 1'
_cell_length_a   16.51901201
_cell_length_b   16.51934406
_cell_length_c   16.52216463
_cell_angle_alpha   92.74735789
_cell_angle_beta   92.72253754
_cell_angle_gamma   92.72681340
_symmetry_Int_Tables_number   1
_chemical_formula_structural   Hf3H2C30N9O16
_chemical_formula_sum   'Hf6 H4 C60 N18 O32'
_cell_volume   4492.73801509
_cell_formula_units_Z   2
loop_
 _symmetry_equiv_pos_site_id
 _symmetry_equiv_pos_as_xyz
  1  'x, y, z'
loop_
 _atom_site_type_symbol
 _atom_site_label
 _atom_site_symmetry_multiplicity
 _atom_site_fract_x
 _atom_site_fract_y
 _atom_site_fract_z
 _atom_site_occupancy
 _atom_site_pbe_bader_charge
 _atom_site_pbe_bader_spin_density
 _atom_site_pbe_cm5_charge
 _atom_site_pbe_ddec_charge
 _atom_site_pbe_ddec_spin_density
 _atom_site_pbe_ddec_sum_bond_order
 _atom_site_pbe_magmom
Hf  Hf0  1  0.04247805  0.19910887  0.15885055  1  2.626434  0  1.509268  2.14328  0  3.319367  0
Hf  Hf1  1  0.15625311  0.25068542  0.99332427  1  2.623648  0  1.509192  2.142649  0  3.321677  0
Hf  Hf2  1  0.00899725  0.00101621  0.07441623  1  2.62457  0  1.510587  2.143304  0  3.323638  0
Hf  Hf3  1  0.20791962  0.08519856  0.10708926  1  2.62562  0  1.509125  2.143097  0  3.321624  0
Hf  Hf4  1  0.95813953  0.16626196  0.96002808  1  2.624111  0  1.510206  2.142254  0  3.325628  0
Hf  Hf5  1  0.12334686  0.05175235  0.90911425  1  2.626387  0  1.510795  2.142477  0  3.326829  0
H  H6  1  0.20757986  0.25032407  0.15835247  1  0.611079  0  0.341575  0.4195  0  0.8543  0
H  H7  1  0.89288491  0.11819045  0.10433774  1  0.623142  0  0.342553  0.423543  0  0.848706  0
H  H8  1  0.15326682  0.93566224  0.02624313  1  0.625133  0  0.342469  0.423355  0  0.849309  0
H  H9  1  0.07521212  0.19607443  0.84386502  1  0.618655  0  0.342547  0.423408  0  0.849446  0
C  C10  1  0.80412161  0.05904186  0.44432171  1  1.146488  0  0.273833  0.437097  0  4.083344  0
C  C11  1  0.82040841  0.06171689  0.58104206  1  1.194169  0  0.274145  0.437362  0  4.08138  0
C  C12  1  0.69905989  0.08866487  0.52141775  1  1.177748  0  0.2733  0.440269  0  4.068572  0
C  C13  1  0.36417958  0.18383841  0.62611799  1  1.141933  0  0.274025  0.436163  0  4.081741  0
C  C14  1  0.46548843  0.15164488  0.54506044  1  1.14991  0  0.273327  0.438844  0  4.068948  0
C  C15  1  0.34138239  0.17576240  0.48987383  1  1.173742  0  0.273862  0.438309  0  4.077961  0
C  C16  1  0.49328598  0.84676618  0.96667604  1  1.1877  0  0.273234  0.435047  0  4.087247  0
C  C17  1  0.57032734  0.74167304  0.99619068  1  1.189593  0  0.273168  0.440351  0  4.066595  0
C  C18  1  0.63003322  0.86307199  0.96951667  1  1.189715  0  0.274337  0.439559  0  4.078525  0
C  C19  1  0.67527082  0.40722226  0.09212600  1  1.157426  0  0.27309  0.435041  0  4.086923  0
C  C20  1  0.59405359  0.50829431  0.05957798  1  1.15149  0  0.273274  0.439718  0  4.067733  0
C  C21  1  0.53904106  0.38412394  0.08380757  1  1.189916  0  0.273805  0.438682  0  4.078122  0
C  C22  1  0.01646937  0.53607482  0.75490693  1  1.178619  0  0.274186  0.43546  0  4.084645  0
C  C23  1  0.04614072  0.61322073  0.64988946  1  1.114392  0  0.273183  0.441233  0  4.062893  0
C  C24  1  0.01901750  0.67281980  0.77121128  1  1.192158  0  0.274139  0.437934  0  4.080842  0
C  C25  1  0.14131144  0.71807888  0.31520250  1  1.162376  0  0.274441  0.437948  0  4.081218  0
C  C26  1  0.13339088  0.58182704  0.29228510  1  1.159626  0  0.273753  0.43759  0  4.079754  0
C  C27  1  0.10929905  0.63694981  0.41644785  1  1.181992  0  0.273259  0.441095  0  4.06801  0
C  C28  1  0.93670968  0.06529555  0.24425467  1  1.680066  0  0.258423  0.701332  0  4.154353  0
C  C29  1  0.12047214  0.37689542  0.14458979  1  1.672441  0  0.257709  0.702749  0  4.141064  0
C  C30  1  0.19382096  0.16320668  0.28488191  1  1.661112  0  0.257757  0.702741  0  4.14586  0
C  C31  1  0.87807115  0.27969058  0.09143210  1  1.670685  0  0.260098  0.705857  0  4.147813  0
C  C32  1  0.23659825  0.18316225  0.82890780  1  1.696401  0  0.259371  0.702417  0  4.150089  0
C  C33  1  0.03576624  0.87773118  0.91840114  1  1.658503  0  0.258864  0.703772  0  4.142394  0
C  C34  1  0.33411902  0.23640010  0.07110047  1  1.676477  0  0.257424  0.702009  0  4.144384  0
C  C35  1  0.02232561  0.33606721  0.88760928  1  1.677198  0  0.258293  0.700741  0  4.155848  0
C  C36  1  0.83497487  0.01022656  0.98691569  1  1.638822  0  0.258469  0.703067  0  4.144786  0
C  C37  1  0.14042552  0.92079542  0.18759657  1  1.69275  0  0.260135  0.704712  0  4.150026  0
C  C38  1  0.29319065  0.97936612  0.97313277  1  1.6711  0  0.257888  0.700159  0  4.152856  0
C  C39  1  0.96737156  0.07862935  0.78603338  1  1.689384  0  0.259126  0.704317  0  4.142793  0
C  C40  1  0.15042117  0.79560164  0.28136575  1  -0.269154  0  0.01228  -0.041842  0  3.923037  0
C  C41  1  0.15092010  0.85602302  0.24212795  1  0.118606  0  0.001531  -0.112766  0  3.858188  0
C  C42  1  0.13508550  0.51272612  0.23709014  1  -0.448458  0  0.007713  -0.045255  0  3.934375  0
C  C43  1  0.13193890  0.45436317  0.18920461  1  0.2781  0  -0.005704  -0.123642  0  3.867995  0
C  C44  1  0.01940979  0.80224308  0.87135435  1  0.241459  0  -0.004202  -0.120308  0  3.865781  0
C  C45  1  0.01586455  0.74353489  0.82389769  1  -0.390194  0  0.008466  -0.045795  0  3.933033  0
C  C46  1  0.00985266  0.46030834  0.79261213  1  -0.256561  0  0.011685  -0.041232  0  3.921307  0
C  C47  1  0.01061418  0.40179072  0.83451833  1  0.084785  0  0.000575  -0.11412  0  3.859591  0
C  C48  1  0.06793149  0.62025153  0.56770027  1  -0.044292  0  0.009228  -0.064867  0  3.917093  0
C  C49  1  0.08762379  0.62758055  0.49835470  1  -0.105735  0  0.007886  -0.067308  0  3.919896  0
C  C50  1  0.75282024  0.37344290  0.10144102  1  -0.355459  0  0.011578  -0.042668  0  3.924402  0
C  C51  1  0.81336070  0.33434842  0.10188711  1  0.219748  0  0.001819  -0.112319  0  3.856855  0
C  C52  1  0.46998185  0.32889062  0.08546581  1  -0.298338  0  0.006714  -0.047636  0  3.935086  0
C  C53  1  0.41157397  0.28106496  0.08243058  1  0.141667  0  -0.004987  -0.122096  0  3.867859  0
C  C54  1  0.75949616  0.96320129  0.97040517  1  0.263136  0  -0.003667  -0.118834  0  3.866369  0
C  C55  1  0.70076478  0.91578725  0.96656628  1  -0.411935  0  0.007758  -0.047893  0  3.934354  0
C  C56  1  0.35893082  0.92628534  0.96127174  1  0.09972  0  0.000917  -0.114075  0  3.861279  0
C  C57  1  0.41751006  0.88445726  0.96017805  1  -0.267969  0  0.011727  -0.041153  0  3.924346  0
C  C58  1  0.58463874  0.59014601  0.03769129  1  0.307466  0  0.008906  -0.064874  0  3.91668  0
C  C59  1  0.57730739  0.65947008  0.01792019  1  -0.494257  0  0.008096  -0.06717  0  3.917471  0
C  C60  1  0.33027205  0.19307560  0.70360635  1  0.120527  0  0.011179  -0.042647  0  3.919395  0
C  C61  1  0.29114066  0.19356036  0.76411867  1  -0.273809  0  0.002585  -0.111197  0  3.85551  0
C  C62  1  0.23850283  0.17452823  0.36231859  1  -0.157764  0  -0.005282  -0.122904  0  3.869159  0
C  C63  1  0.28627182  0.17747093  0.42074823  1  0.006931  0  0.007261  -0.046152  0  3.934181  0
C  C64  1  0.87305304  0.05864888  0.65177212  1  -0.41833  0  0.007906  -0.046108  0  3.933188  0
C  C65  1  0.92042776  0.06222410  0.71051109  1  0.21944  0  -0.003738  -0.120099  0  3.865996  0
C  C66  1  0.84182898  0.05251170  0.36856117  1  -0.381741  0  0.011844  -0.042051  0  3.923685  0
C  C67  1  0.88371153  0.05346607  0.31002600  1  0.242932  0  0.000965  -0.113513  0  3.863356  0
C  C68  1  0.54742047  0.12995790  0.53572225  1  0.177625  0  0.008417  -0.066147  0  3.917524  0
C  C69  1  0.61680524  0.11033781  0.52842372  1  -0.329437  0  0.008336  -0.065606  0  3.91806  0
N  N70  1  0.85391519  0.04786327  0.50940547  1  -1.085637  0  -0.286011  -0.377708  0  3.079609  0
N  N71  1  0.74324632  0.08179982  0.59135555  1  -1.094506  0  -0.28641  -0.37894  0  3.059055  0
N  N72  1  0.72601498  0.07867509  0.44584923  1  -1.105928  0  -0.289416  -0.383678  0  3.062931  0
N  N73  1  0.44221662  0.16483091  0.62166104  1  -1.089277  0  -0.287692  -0.379428  0  3.06113  0
N  N74  1  0.41801969  0.15549650  0.47675049  1  -1.09921  0  -0.28667  -0.379761  0  3.060102  0
N  N75  1  0.31117954  0.19191646  0.56271659  1  -1.089677  0  -0.287017  -0.379694  0  3.078761  0
N  N76  1  0.49475921  0.76862086  0.98614808  1  -1.128428  0  -0.289086  -0.382808  0  3.061893  0
N  N77  1  0.64030580  0.78586678  0.98941555  1  -1.085377  0  -0.285969  -0.378992  0  3.058686  0
N  N78  1  0.55839863  0.89660520  0.95572045  1  -1.077131  0  -0.285833  -0.377631  0  3.080567  0
N  N79  1  0.67069447  0.48520158  0.07300880  1  -1.0802  0  -0.287595  -0.379498  0  3.063251  0
N  N80  1  0.52580894  0.46067258  0.06332389  1  -1.109797  0  -0.287168  -0.380386  0  3.058726  0
N  N81  1  0.61192721  0.35411642  0.10019551  1  -1.083181  0  -0.286005  -0.378725  0  3.078332  0
N  N82  1  0.03623699  0.53762389  0.67684387  1  -1.076663  0  -0.289482  -0.383639  0  3.059452  0
N  N83  1  0.03913789  0.68315481  0.69408385  1  -1.079342  0  -0.286279  -0.37983  0  3.059506  0
N  N84  1  0.00517130  0.60117303  0.80467477  1  -1.096617  0  -0.286304  -0.377133  0  3.07911  0
N  N85  1  0.14942351  0.65470565  0.26214271  1  -1.091246  0  -0.286953  -0.379721  0  3.078451  0
N  N86  1  0.11323358  0.56864958  0.36893368  1  -1.07532  0  -0.287233  -0.381057  0  3.059263  0
N  N87  1  0.12233828  0.71357795  0.39322392  1  -1.109374  0  -0.288268  -0.381468  0  3.061695  0
O  O88  1  0.94492534  0.00705124  0.19288219  1  -1.146816  0  -0.311049  -0.551183  0  2.223105  0
O  O89  1  0.15165767  0.36543580  0.07648265  1  -1.146732  0  -0.307222  -0.550207  0  2.199071  0
O  O90  1  0.12572773  0.19444523  0.27352534  1  -1.153151  0  -0.307446  -0.550553  0  2.199927  0
O  O91  1  0.92801130  0.26974976  0.15038054  1  -1.153046  0  -0.310848  -0.55259  0  2.223648  0
O  O92  1  0.87600522  0.24452359  0.02044052  1  -1.148871  0  -0.33553  -0.566722  0  2.251773  0
O  O93  1  0.23165291  0.12118106  0.23291238  1  -1.140273  0  -0.339372  -0.567899  0  2.281107  0
O  O94  1  0.07847183  0.32499932  0.18247703  1  -1.142308  0  -0.339484  -0.567986  0  2.278405  0
O  O95  1  0.96999745  0.13701930  0.24485408  1  -1.147262  0  -0.334259  -0.564773  0  2.247281  0
O  O96  1  0.04476127  0.22508841  0.03813906  1  -1.201071  0  -0.760877  -1.065402  0  2.233429  0
O  O97  1  0.08719769  0.08756729  0.13325912  1  -1.199514  0  -0.760858  -1.065879  0  2.23342  0
O  O98  1  0.17194478  0.21468441  0.12274053  1  -1.232006  0  -0.658569  -1.001607  0  2.435696  0
O  O99  1  0.94750867  0.12040893  0.08516305  1  -1.245782  0  -0.65751  -1.004373  0  2.419753  0
O  O100  1  0.22673743  0.24216315  0.87883983  1  -1.149228  0  -0.310808  -0.55099  0  2.225514  0
O  O101  1  0.00600249  0.88865872  0.98728433  1  -1.150093  0  -0.308514  -0.551889  0  2.204231  0
O  O102  1  0.32270558  0.16830128  0.10228349  1  -1.149321  0  -0.307395  -0.550237  0  2.199995  0
O  O103  1  0.96407399  0.28475547  0.89586515  1  -1.147247  0  -0.310365  -0.550479  0  2.225922  0
O  O104  1  0.84591718  0.07909970  0.95715697  1  -1.147697  0  -0.308509  -0.551719  0  2.206437  0
O  O105  1  0.19941033  0.97069304  0.17764718  1  -1.153219  0  -0.310817  -0.551926  0  2.224442  0
O  O106  1  0.24180864  0.98759894  0.91493392  1  -1.141931  0  -0.310326  -0.550095  0  2.223968  0
O  O107  1  0.03623063  0.04880104  0.79695898  1  -1.15205  0  -0.308669  -0.551185  0  2.203608  0
O  O108  1  0.29384969  0.01269614  0.04485057  1  -1.146385  0  -0.334156  -0.564389  0  2.248124  0
O  O109  1  0.93214066  0.12562459  0.83573232  1  -1.141149  0  -0.340508  -0.570031  0  2.282528  0
O  O110  1  0.28216161  0.27430367  0.02917080  1  -1.14598  0  -0.339029  -0.567417  0  2.280022  0
O  O111  1  0.06938163  0.91885193  0.15256514  1  -1.148268  0  -0.335895  -0.566529  0  2.251869  0
O  O112  1  0.88466986  0.97501335  0.03390242  1  -1.149866  0  -0.340222  -0.569133  0  2.28109  0
O  O113  1  0.09404498  0.33666409  0.92093062  1  -1.151029  0  -0.33447  -0.564692  0  2.248619  0
O  O114  1  0.20145962  0.11216607  0.82692340  1  -1.14261  0  -0.335794  -0.565697  0  2.251322  0
O  O115  1  0.08273393  0.92745276  0.88319626  1  -1.153007  0  -0.340726  -0.569853  0  2.281086  0
O  O116  1  0.01692509  0.05978098  0.96797824  1  -1.197366  0  -0.761395  -1.066485  0  2.237228  0
O  O117  1  0.18225843  0.12992638  0.99562285  1  -1.201046  0  -0.760953  -1.065828  0  2.233328  0
O  O118  1  0.13410707  0.99028918  0.02847483  1  -1.249439  0  -0.657654  -1.004313  0  2.421058  0
O  O119  1  0.07746456  0.17693202  0.89848175  1  -1.240744  0  -0.657404  -1.004005  0  2.420568  0
