# generated using pymatgen
data_ZnH5C7NO6
_symmetry_space_group_name_H-M   'P 1'
_cell_length_a   5.90414625
_cell_length_b   5.65930379
_cell_length_c   24.05095402
_cell_angle_alpha   93.03325742
_cell_angle_beta   90.00009169
_cell_angle_gamma   89.99992745
_symmetry_Int_Tables_number   1
_chemical_formula_structural   ZnH5C7NO6
_chemical_formula_sum   'Zn4 H20 C28 N4 O24'
_cell_volume   802.49723291
_cell_formula_units_Z   4
loop_
 _symmetry_equiv_pos_site_id
 _symmetry_equiv_pos_as_xyz
  1  'x, y, z'
loop_
 _atom_site_type_symbol
 _atom_site_label
 _atom_site_symmetry_multiplicity
 _atom_site_fract_x
 _atom_site_fract_y
 _atom_site_fract_z
 _atom_site_occupancy
 _atom_site_hle17_bader_spin_density
 _atom_site_hle17_ddec_charge
 _atom_site_hle17_ddec_spin_density
 _atom_site_hle17_ddec_sum_bond_order
 _atom_site_hle17_magmom
 _atom_site_hse06_10hf_bader_spin_density
 _atom_site_hse06_10hf_ddec_charge
 _atom_site_hse06_10hf_ddec_spin_density
 _atom_site_hse06_10hf_ddec_sum_bond_order
 _atom_site_hse06_10hf_magmom
 _atom_site_hse06_bader_spin_density
 _atom_site_hse06_ddec_charge
 _atom_site_hse06_ddec_spin_density
 _atom_site_hse06_ddec_sum_bond_order
 _atom_site_hse06_magmom
 _atom_site_pbe_bader_spin_density
 _atom_site_pbe_cm5_charge
 _atom_site_pbe_ddec_charge
 _atom_site_pbe_ddec_spin_density
 _atom_site_pbe_ddec_sum_bond_order
 _atom_site_pbe_magmom
Zn  Zn0  1  0.05279932  0.73698156  0.96127197  1  0  1.182814  0  1.730465  0  0  1.021591  0  2.182204  0  0  1.070774  0  2.120955  0  0  0.681214  0.986615  0  2.224576  0
Zn  Zn1  1  0.55279608  0.26301704  0.53872895  1  0  1.182883  0  1.730401  0  0  1.021645  0  2.18213  0  0  1.070851  0  2.120848  0  0  0.681246  0.986679  0  2.224487  0
Zn  Zn2  1  0.94720380  0.26300925  0.03872882  1  0  1.182849  0  1.730377  0  0  1.021622  0  2.182088  0  0  1.07081  0  2.120835  0  0  0.68123  0.986654  0  2.224441  0
Zn  Zn3  1  0.44720026  0.73698616  0.46127193  1  0  1.182822  0  1.730519  0  0  1.021622  0  2.182254  0  0  1.07081  0  2.120998  0  0  0.681241  0.986656  0  2.224629  0
H  H4  1  0.43978767  0.90462424  0.76766152  1  0  0.124042  0  0.943022  0  0  0.131728  0  1.002995  0  0  0.135322  0  1.001667  0  0  0.11667  0.129163  0  1.004051  0
H  H5  1  0.93978584  0.09538090  0.73233877  1  0  0.124009  0  0.943078  0  0  0.131688  0  1.003066  0  0  0.135282  0  1.00174  0  0  0.11666  0.129124  0  1.004121  0
H  H6  1  0.56021205  0.09537892  0.23233894  1  0  0.124004  0  0.943076  0  0  0.131687  0  1.003055  0  0  0.135281  0  1.001728  0  0  0.116655  0.129115  0  1.004114  0
H  H7  1  0.06021389  0.90462573  0.26766089  1  0  0.123992  0  0.943028  0  0  0.131683  0  1.003008  0  0  0.135278  0  1.00168  0  0  0.116654  0.129118  0  1.004062  0
H  H8  1  0.77021827  0.64200100  0.74822821  1  0  0.109109  0  0.958694  0  0  0.117535  0  1.021361  0  0  0.120452  0  1.01974  0  0  0.108873  0.115406  0  1.022549  0
H  H9  1  0.27022238  0.35800249  0.75177117  1  0  0.109124  0  0.958805  0  0  0.117487  0  1.021529  0  0  0.120403  0  1.019908  0  0  0.108846  0.115358  0  1.022717  0
H  H10  1  0.22978145  0.35800555  0.25177061  1  0  0.109129  0  0.958772  0  0  0.117479  0  1.0215  0  0  0.120389  0  1.019883  0  0  0.108866  0.115348  0  1.02269  0
H  H11  1  0.72977565  0.64199352  0.24822841  1  0  0.109143  0  0.958682  0  0  0.117574  0  1.021333  0  0  0.120493  0  1.019711  0  0  0.108896  0.115446  0  1.022518  0
H  H12  1  0.89874869  0.37027604  0.82451965  1  0  0.133519  0  0.966619  0  0  0.138934  0  1.029923  0  0  0.143741  0  1.026769  0  0  0.113338  0.135383  0  1.032445  0
H  H13  1  0.39874352  0.62972874  0.67547605  1  0  0.133503  0  0.966473  0  0  0.138923  0  1.029775  0  0  0.14373  0  1.026625  0  0  0.113313  0.135391  0  1.032266  0
H  H14  1  0.10125611  0.62971961  0.17547576  1  0  0.133437  0  0.966598  0  0  0.138889  0  1.029862  0  0  0.143691  0  1.026718  0  0  0.113304  0.135359  0  1.03235  0
H  H15  1  0.60125959  0.37028481  0.32452200  1  0  0.133432  0  0.966581  0  0  0.138871  0  1.029874  0  0  0.143673  0  1.026729  0  0  0.113275  0.135342  0  1.032367  0
H  H16  1  0.68782411  0.99695551  0.97189960  1  0  0.4235  0  0.892139  0  0  0.387854  0  0.962664  0  0  0.399955  0  0.945504  0  0  0.297097  0.379368  0  0.974685  0
H  H17  1  0.18782388  0.00304797  0.52809850  1  0  0.423437  0  0.892208  0  0  0.387798  0  0.962716  0  0  0.399894  0  0.945563  0  0  0.297074  0.37931  0  0.97474  0
H  H18  1  0.31217392  0.00304739  0.02809795  1  0  0.423461  0  0.892195  0  0  0.387822  0  0.962704  0  0  0.399922  0  0.945545  0  0  0.297096  0.379334  0  0.974728  0
H  H19  1  0.81217415  0.99695865  0.47190115  1  0  0.423424  0  0.892228  0  0  0.387791  0  0.96273  0  0  0.399892  0  0.94557  0  0  0.297064  0.379305  0  0.97475  0
H  H20  1  0.67920530  0.83359471  0.02539806  1  0  0.451962  0  0.825835  0  0  0.418855  0  0.898651  0  0  0.429139  0  0.883903  0  0  0.312831  0.411539  0  0.908978  0
H  H21  1  0.17920763  0.16640965  0.47460015  1  0  0.451962  0  0.825788  0  0  0.418822  0  0.898692  0  0  0.429105  0  0.883946  0  0  0.312805  0.411504  0  0.908999  0
H  H22  1  0.32079104  0.16640466  0.97459946  1  0  0.451987  0  0.825753  0  0  0.418847  0  0.898657  0  0  0.429132  0  0.883909  0  0  0.312821  0.41153  0  0.908968  0
H  H23  1  0.82078701  0.83359693  0.52539909  1  0  0.452015  0  0.82575  0  0  0.418886  0  0.898604  0  0  0.42917  0  0.883859  0  0  0.312832  0.411572  0  0.90892  0
C  C24  1  0.17601904  0.95207323  0.85656302  1  0  0.644459  0  3.939785  0  0  0.594654  0  4.242846  0  0  0.629382  0  4.232248  0  0  0.2113  0.571005  0  4.249267  0
C  C25  1  0.67601841  0.04793727  0.64343430  1  0  0.644544  0  3.939379  0  0  0.594729  0  4.242463  0  0  0.629458  0  4.23187  0  0  0.211373  0.571081  0  4.248877  0
C  C26  1  0.82398576  0.04794194  0.14343338  1  0  0.644419  0  3.939306  0  0  0.594625  0  4.242424  0  0  0.629357  0  4.231825  0  0  0.211297  0.570981  0  4.248838  0
C  C27  1  0.32397623  0.95207632  0.35656417  1  0  0.644496  0  3.939592  0  0  0.594713  0  4.242634  0  0  0.629449  0  4.232025  0  0  0.211281  0.571064  0  4.249058  0
C  C28  1  0.37957438  0.78812545  0.84882228  1  0  0.006746  0  3.585219  0  0  -0.000199  0  3.838892  0  0  0.002894  0  3.851697  0  0  0.112026  -0.002337  0  3.830648  0
C  C29  1  0.87958375  0.21186914  0.65117791  1  0  0.006729  0  3.585321  0  0  -0.000244  0  3.839066  0  0  0.002847  0  3.851875  0  0  0.111932  -0.002386  0  3.830814  0
C  C30  1  0.62042704  0.21187240  0.15117815  1  0  0.006804  0  3.585094  0  0  -0.00026  0  3.838945  0  0  0.002831  0  3.85175  0  0  0.111983  -0.002405  0  3.830692  0
C  C31  1  0.12042275  0.78813763  0.34882341  1  0  0.006534  0  3.585206  0  0  -0.000427  0  3.838928  0  0  0.002657  0  3.851731  0  0  0.111902  -0.002568  0  3.830684  0
C  C32  1  0.49771493  0.78460476  0.79850617  1  0  -0.082595  0  3.705717  0  0  -0.105482  0  3.959889  0  0  -0.109028  0  3.977359  0  0  -0.065647  -0.103457  0  3.948516  0
C  C33  1  0.99771720  0.21538849  0.70149344  1  0  -0.082542  0  3.705704  0  0  -0.105429  0  3.959902  0  0  -0.108975  0  3.977372  0  0  -0.065574  -0.103401  0  3.948525  0
C  C34  1  0.50228480  0.21539129  0.20149383  1  0  -0.082585  0  3.705587  0  0  -0.105443  0  3.959787  0  0  -0.108987  0  3.977254  0  0  -0.065637  -0.103408  0  3.948402  0
C  C35  1  0.00227681  0.78461170  0.29850638  1  0  -0.082333  0  3.705566  0  0  -0.105228  0  3.959757  0  0  -0.108768  0  3.977227  0  0  -0.065514  -0.103196  0  3.948373  0
C  C36  1  0.68262911  0.63726246  0.78797196  1  0  -0.012912  0  3.695007  0  0  -0.037195  0  3.954804  0  0  -0.033263  0  3.969923  0  0  -0.070703  -0.039574  0  3.944594  0
C  C37  1  0.18263973  0.36273598  0.71202901  1  0  -0.012906  0  3.695005  0  0  -0.037158  0  3.954829  0  0  -0.033223  0  3.969945  0  0  -0.070704  -0.03954  0  3.944625  0
C  C38  1  0.31736893  0.36273546  0.21202929  1  0  -0.012911  0  3.694868  0  0  -0.037132  0  3.954687  0  0  -0.033194  0  3.969797  0  0  -0.070688  -0.039517  0  3.944483  0
C  C39  1  0.81737185  0.63726910  0.28797313  1  0  -0.013045  0  3.695093  0  0  -0.037333  0  3.95493  0  0  -0.033405  0  3.97005  0  0  -0.070736  -0.039709  0  3.944714  0
C  C40  1  0.75345413  0.48990870  0.82926987  1  0  -0.083078  0  3.688469  0  0  -0.106661  0  3.94234  0  0  -0.109689  0  3.957787  0  0  -0.068183  -0.104962  0  3.932326  0
C  C41  1  0.25344738  0.51008939  0.67072822  1  0  -0.083156  0  3.688727  0  0  -0.106774  0  3.942513  0  0  -0.109809  0  3.957966  0  0  -0.068228  -0.105086  0  3.932479  0
C  C42  1  0.24655237  0.51008712  0.17072763  1  0  -0.082987  0  3.688542  0  0  -0.106644  0  3.942343  0  0  -0.109671  0  3.957785  0  0  -0.068172  -0.104963  0  3.932315  0
C  C43  1  0.74654726  0.48991192  0.32927140  1  0  -0.082925  0  3.688404  0  0  -0.106606  0  3.942229  0  0  -0.109635  0  3.957675  0  0  -0.068142  -0.104922  0  3.9322  0
C  C44  1  0.63709876  0.49770813  0.87920642  1  0  0.017172  0  3.614794  0  0  0.008032  0  3.87184  0  0  0.011708  0  3.882719  0  0  0.115667  0.005558  0  3.864878  0
C  C45  1  0.13710187  0.50228859  0.62079453  1  0  0.017014  0  3.615211  0  0  0.008093  0  3.871962  0  0  0.011764  0  3.882842  0  0  0.11566  0.00563  0  3.864987  0
C  C46  1  0.36290266  0.50228615  0.12079357  1  0  0.016915  0  3.615215  0  0  0.00799  0  3.872016  0  0  0.011664  0  3.882889  0  0  0.115578  0.005532  0  3.865035  0
C  C47  1  0.86290463  0.49771291  0.37920717  1  0  0.016895  0  3.615195  0  0  0.008028  0  3.871932  0  0  0.0117  0  3.882801  0  0  0.115579  0.005555  0  3.864971  0
C  C48  1  0.69645559  0.34837994  0.92706922  1  0  0.710465  0  3.80813  0  0  0.648088  0  4.111274  0  0  0.684871  0  4.097514  0  0  0.24719  0.622917  0  4.120275  0
C  C49  1  0.19646161  0.65161671  0.57293174  1  0  0.710441  0  3.808133  0  0  0.647921  0  4.111385  0  0  0.68472  0  4.097603  0  0  0.247086  0.622742  0  4.120386  0
C  C50  1  0.30354075  0.65161795  0.07293162  1  0  0.710546  0  3.808162  0  0  0.647985  0  4.11144  0  0  0.68478  0  4.097656  0  0  0.24712  0.622815  0  4.12044  0
C  C51  1  0.80354150  0.34837580  0.42706823  1  0  0.710572  0  3.807909  0  0  0.648025  0  4.111154  0  0  0.684829  0  4.097353  0  0  0.247137  0.622866  0  4.12014  0
N  N52  1  0.45434069  0.64210994  0.88868605  1  0  0.257165  0  3.620846  0  0  0.298662  0  3.877732  0  0  0.300131  0  3.897198  0  0  -0.093929  0.297  0  3.86486  0
N  N53  1  0.95433440  0.35787741  0.61131329  1  0  0.257213  0  3.621104  0  0  0.298664  0  3.877973  0  0  0.30013  0  3.89745  0  0  -0.093908  0.297009  0  3.865076  0
N  N54  1  0.54567089  0.35788249  0.11131309  1  0  0.257165  0  3.621107  0  0  0.298638  0  3.877982  0  0  0.300108  0  3.897453  0  0  -0.093918  0.296979  0  3.865096  0
N  N55  1  0.04566024  0.64211337  0.38868708  1  0  0.257225  0  3.62111  0  0  0.298668  0  3.87794  0  0  0.300139  0  3.897405  0  0  -0.093846  0.297009  0  3.865067  0
O  O56  1  0.36962073  0.63655552  0.93992703  1  0  -0.548894  0  1.884035  0  0  -0.499038  0  2.153466  0  0  -0.523302  0  2.146493  0  0  -0.236572  -0.481792  0  2.157891  0
O  O57  1  0.86961920  0.36344089  0.56007359  1  0  -0.548878  0  1.884314  0  0  -0.499007  0  2.153733  0  0  -0.523275  0  2.14677  0  0  -0.236533  -0.481776  0  2.158179  0
O  O58  1  0.63038577  0.36344587  0.06007342  1  0  -0.548804  0  1.884206  0  0  -0.498932  0  2.153629  0  0  -0.523206  0  2.146668  0  0  -0.236472  -0.481694  0  2.158054  0
O  O59  1  0.13038222  0.63655888  0.43992851  1  0  -0.548816  0  1.88401  0  0  -0.498976  0  2.153481  0  0  -0.523238  0  2.146503  0  0  -0.236555  -0.481738  0  2.157915  0
O  O60  1  0.01831984  0.90238446  0.89094840  1  0  -0.665091  0  2.086593  0  0  -0.602289  0  2.360507  0  0  -0.631494  0  2.347323  0  0  -0.338622  -0.581741  0  2.368887  0
O  O61  1  0.51832571  0.09761783  0.60905378  1  0  -0.665054  0  2.086933  0  0  -0.602218  0  2.360822  0  0  -0.631421  0  2.34764  0  0  -0.338583  -0.581673  0  2.369202  0
O  O62  1  0.98167650  0.09761177  0.10905367  1  0  -0.664993  0  2.086919  0  0  -0.602138  0  2.360757  0  0  -0.631334  0  2.347568  0  0  -0.338546  -0.5816  0  2.369135  0
O  O63  1  0.48167402  0.90238559  0.39094960  1  0  -0.665079  0  2.086592  0  0  -0.602315  0  2.360543  0  0  -0.631519  0  2.347354  0  0  -0.338612  -0.581763  0  2.368925  0
O  O64  1  0.17123299  0.12223057  0.82574490  1  0  -0.578785  0  1.925324  0  0  -0.537306  0  2.148725  0  0  -0.561553  0  2.141278  0  0  -0.306458  -0.519943  0  2.153068  0
O  O65  1  0.67122984  0.87775392  0.67425804  1  0  -0.578911  0  1.924505  0  0  -0.537457  0  2.147944  0  0  -0.56171  0  2.140499  0  0  -0.306572  -0.520103  0  2.152309  0
O  O66  1  0.82876842  0.87775516  0.17425834  1  0  -0.578876  0  1.92443  0  0  -0.537431  0  2.147863  0  0  -0.561685  0  2.14042  0  0  -0.306567  -0.520076  0  2.152222  0
O  O67  1  0.32875803  0.12223899  0.32574650  1  0  -0.578758  0  1.925057  0  0  -0.537298  0  2.148454  0  0  -0.561543  0  2.141004  0  0  -0.306448  -0.519938  0  2.152804  0
O  O68  1  0.57628255  0.16806528  0.93318173  1  0  -0.588294  0  2.053292  0  0  -0.530402  0  2.276928  0  0  -0.556362  0  2.266809  0  0  -0.283124  -0.512341  0  2.283446  0
O  O69  1  0.07628492  0.83192419  0.56681622  1  0  -0.58821  0  2.053271  0  0  -0.530286  0  2.276963  0  0  -0.556241  0  2.266823  0  0  -0.283095  -0.51225  0  2.283556  0
O  O70  1  0.42371887  0.83191997  0.06681611  1  0  -0.588283  0  2.053373  0  0  -0.530341  0  2.277064  0  0  -0.556296  0  2.266924  0  0  -0.283134  -0.512301  0  2.283629  0
O  O71  1  0.92372158  0.16807009  0.43318376  1  0  -0.588298  0  2.053251  0  0  -0.530364  0  2.276959  0  0  -0.556324  0  2.266813  0  0  -0.283133  -0.512318  0  2.2835  0
O  O72  1  0.86853133  0.40927034  0.95710410  1  0  -0.645423  0  2.102659  0  0  -0.564419  0  2.379159  0  0  -0.595098  0  2.361457  0  0  -0.291432  -0.543045  0  2.390871  0
O  O73  1  0.36854402  0.59073337  0.54289907  1  0  -0.645366  0  2.102605  0  0  -0.564368  0  2.37923  0  0  -0.595043  0  2.361485  0  0  -0.291337  -0.542988  0  2.390942  0
O  O74  1  0.13144807  0.59074030  0.04290099  1  0  -0.645394  0  2.102538  0  0  -0.564373  0  2.379158  0  0  -0.595074  0  2.361483  0  0  -0.291346  -0.543012  0  2.390892  0
O  O75  1  0.63144893  0.40925542  0.45709879  1  0  -0.645387  0  2.102393  0  0  -0.564371  0  2.379012  0  0  -0.595086  0  2.36135  0  0  -0.291355  -0.543009  0  2.390737  0
O  O76  1  0.78381780  0.90848746  0.99952599  1  0  -0.855882  0  2.027018  0  0  -0.782921  0  2.277646  0  0  -0.808555  0  2.240111  0  0  -0.561531  -0.764728  0  2.303186  0
O  O77  1  0.28381899  0.09151775  0.50047300  1  0  -0.855846  0  2.027021  0  0  -0.782828  0  2.277657  0  0  -0.808489  0  2.240174  0  0  -0.561473  -0.764633  0  2.303181  0
O  O78  1  0.21618192  0.09151198  0.00047237  1  0  -0.85588  0  2.027068  0  0  -0.782907  0  2.277745  0  0  -0.80854  0  2.240211  0  0  -0.561482  -0.764714  0  2.30327  0
O  O79  1  0.71617396  0.90849249  0.49952752  1  0  -0.855898  0  2.027018  0  0  -0.782951  0  2.277727  0  0  -0.808573  0  2.240159  0  0  -0.561498  -0.76476  0  2.30326  0
