# generated using pymatgen
data_CdH16C22(NO2)2
_symmetry_space_group_name_H-M   'P 1'
_cell_length_a   7.48528127
_cell_length_b   9.80035412
_cell_length_c   13.20638424
_cell_angle_alpha   88.48291352
_cell_angle_beta   77.26704319
_cell_angle_gamma   72.27788145
_symmetry_Int_Tables_number   1
_chemical_formula_structural   CdH16C22(NO2)2
_chemical_formula_sum   'Cd2 H32 C44 N4 O8'
_cell_volume   899.26934197
_cell_formula_units_Z   2
loop_
 _symmetry_equiv_pos_site_id
 _symmetry_equiv_pos_as_xyz
  1  'x, y, z'
loop_
 _atom_site_type_symbol
 _atom_site_label
 _atom_site_symmetry_multiplicity
 _atom_site_fract_x
 _atom_site_fract_y
 _atom_site_fract_z
 _atom_site_occupancy
 _atom_site_hle17_bader_spin_density
 _atom_site_hle17_ddec_charge
 _atom_site_hle17_ddec_spin_density
 _atom_site_hle17_ddec_sum_bond_order
 _atom_site_hle17_magmom
 _atom_site_hse06_10hf_bader_spin_density
 _atom_site_hse06_10hf_ddec_charge
 _atom_site_hse06_10hf_ddec_spin_density
 _atom_site_hse06_10hf_ddec_sum_bond_order
 _atom_site_hse06_10hf_magmom
 _atom_site_hse06_bader_spin_density
 _atom_site_hse06_ddec_charge
 _atom_site_hse06_ddec_spin_density
 _atom_site_hse06_ddec_sum_bond_order
 _atom_site_hse06_magmom
 _atom_site_pbe_bader_spin_density
 _atom_site_pbe_cm5_charge
 _atom_site_pbe_ddec_charge
 _atom_site_pbe_ddec_spin_density
 _atom_site_pbe_ddec_sum_bond_order
 _atom_site_pbe_magmom
Cd  Cd0  1  0.28044637  0.95519527  0.48412095  1  0  1.166671  0  1.669638  0  0  0.972186  0  2.1186  0  0  1.02961  0  2.066548  0  0  0.78678  0.931073  0  2.154278  0
Cd  Cd1  1  0.71954876  0.04481705  0.51588284  1  0  1.166698  0  1.66968  0  0  0.972186  0  2.118639  0  0  1.029612  0  2.06659  0  0  0.786784  0.931077  0  2.154303  0
H  H2  1  0.07838127  0.89780837  0.71712064  1  0  0.066615  0  0.973149  0  0  0.074713  0  1.040264  0  0  0.075379  0  1.040781  0  0  0.108856  0.07423  0  1.039872  0
H  H3  1  0.92162121  0.10219327  0.28288263  1  0  0.066576  0  0.973158  0  0  0.074685  0  1.040257  0  0  0.07535  0  1.040777  0  0  0.108862  0.074203  0  1.03986  0
H  H4  1  0.15586246  0.73327600  0.85705581  1  0  0.091885  0  0.987463  0  0  0.104797  0  1.048183  0  0  0.106906  0  1.048355  0  0  0.100307  0.103287  0  1.048203  0
H  H5  1  0.84414424  0.26671584  0.14294275  1  0  0.091831  0  0.98753  0  0  0.1048  0  1.048184  0  0  0.106907  0  1.048359  0  0  0.100323  0.103288  0  1.048202  0
H  H6  1  0.62448399  0.45944087  0.62939235  1  0  0.117326  0  0.936753  0  0  0.129581  0  0.990848  0  0  0.132285  0  0.990816  0  0  0.112705  0.12763  0  0.991103  0
H  H7  1  0.37552412  0.54056367  0.37059875  1  0  0.117362  0  0.936712  0  0  0.129616  0  0.990801  0  0  0.132321  0  0.990766  0  0  0.112744  0.127668  0  0.99106  0
H  H8  1  0.53617856  0.63905367  0.49889528  1  0  0.087478  0  0.990359  0  0  0.093002  0  1.058813  0  0  0.096453  0  1.055278  0  0  0.114027  0.090386  0  1.06145  0
H  H9  1  0.46382082  0.36095521  0.50110054  1  0  0.087491  0  0.990388  0  0  0.092932  0  1.05898  0  0  0.096419  0  1.055404  0  0  0.114007  0.090317  0  1.06161  0
H  H10  1  0.54864257  0.38464654  0.81263027  1  0  0.082861  0  0.959339  0  0  0.089924  0  1.029428  0  0  0.091578  0  1.02877  0  0  0.09983  0.088778  0  1.029886  0
H  H11  1  0.45136467  0.61535048  0.18736197  1  0  0.082885  0  0.959356  0  0  0.089952  0  1.029437  0  0  0.091602  0  1.028777  0  0  0.099857  0.088803  0  1.029903  0
H  H12  1  0.23843365  0.59570440  0.96849865  1  0  0.056179  0  0.973695  0  0  0.066199  0  1.039287  0  0  0.067118  0  1.039572  0  0  0.087578  0.065486  0  1.039245  0
H  H13  1  0.76157580  0.40429062  0.03149718  1  0  0.056082  0  0.973712  0  0  0.066075  0  1.039344  0  0  0.066996  0  1.039629  0  0  0.087512  0.065364  0  1.039301  0
H  H14  1  0.53001939  0.69935728  0.00451329  1  0  0.052231  0  0.953403  0  0  0.064804  0  1.015814  0  0  0.065446  0  1.015918  0  0  0.088468  0.064296  0  1.015847  0
H  H15  1  0.46999147  0.30063768  0.99548010  1  0  0.052278  0  0.953408  0  0  0.064828  0  1.015815  0  0  0.065465  0  1.015925  0  0  0.088478  0.064323  0  1.015844  0
H  H16  1  0.80120490  0.45970272  0.85410471  1  0  0.073693  0  0.938499  0  0  0.084884  0  0.998832  0  0  0.085067  0  1.001024  0  0  0.100048  0.084749  0  0.997335  0
H  H17  1  0.19880508  0.54029749  0.14588481  1  0  0.073716  0  0.938547  0  0  0.084931  0  0.998838  0  0  0.085113  0  1.001033  0  0  0.100054  0.084792  0  0.997342  0
H  H18  1  0.95444489  0.52419747  0.68219514  1  0  0.124898  0  0.969929  0  0  0.129534  0  1.036761  0  0  0.134026  0  1.03433  0  0  0.105145  0.126455  0  1.038296  0
H  H19  1  0.04556799  0.47581501  0.31780494  1  0  0.124936  0  0.969844  0  0  0.129549  0  1.036699  0  0  0.134065  0  1.034243  0  0  0.105137  0.126468  0  1.038236  0
H  H20  1  0.96598546  0.71099964  0.55257294  1  0  0.092734  0  0.929189  0  0  0.101262  0  0.989386  0  0  0.103698  0  0.987359  0  0  0.119618  0.099406  0  0.991017  0
H  H21  1  0.03401740  0.28901703  0.44742822  1  0  0.092674  0  0.929374  0  0  0.101252  0  0.989489  0  0  0.103689  0  0.987459  0  0  0.119596  0.09939  0  0.991126  0
H  H22  1  0.52170867  0.01786262  0.74329079  1  0  0.071654  0  0.998265  0  0  0.077375  0  1.070149  0  0  0.078891  0  1.069049  0  0  0.107972  0.076289  0  1.070843  0
H  H23  1  0.47826400  0.98213832  0.25670634  1  0  0.071678  0  0.998282  0  0  0.077393  0  1.070158  0  0  0.078909  0  1.069057  0  0  0.108003  0.076305  0  1.070858  0
H  H24  1  0.48308136  0.84563242  0.88045488  1  0  0.093105  0  0.96437  0  0  0.105533  0  1.023798  0  0  0.10778  0  1.024247  0  0  0.099901  0.103839  0  1.023755  0
H  H25  1  0.51690044  0.15436321  0.11954056  1  0  0.093048  0  0.964433  0  0  0.105559  0  1.023782  0  0  0.107807  0  1.024229  0  0  0.09991  0.10386  0  1.023743  0
H  H26  1  0.64964067  0.76474845  0.18595283  1  0  0.105507  0  0.951253  0  0  0.116046  0  1.011856  0  0  0.119677  0  1.009573  0  0  0.104593  0.113389  0  1.013636  0
H  H27  1  0.35034709  0.23524909  0.81406377  1  0  0.10548  0  0.95124  0  0  0.116046  0  1.011835  0  0  0.119686  0  1.009526  0  0  0.104632  0.113361  0  1.013649  0
H  H28  1  0.81347456  0.81098074  0.00819804  1  0  0.08201  0  0.953965  0  0  0.093868  0  1.01334  0  0  0.097127  0  1.011625  0  0  0.095445  0.091446  0  1.014767  0
H  H29  1  0.18651343  0.18899720  0.99181318  1  0  0.082066  0  0.953925  0  0  0.094016  0  1.013202  0  0  0.097278  0  1.011483  0  0  0.095452  0.091579  0  1.014638  0
H  H30  1  0.12044304  0.87246295  0.98358161  1  0  0.080165  0  0.979044  0  0  0.091273  0  1.041182  0  0  0.093954  0  1.040333  0  0  0.095875  0.089313  0  1.04195  0
H  H31  1  0.87955518  0.12750403  0.01641966  1  0  0.0802  0  0.979112  0  0  0.091309  0  1.041237  0  0  0.093998  0  1.040392  0  0  0.095935  0.08935  0  1.042007  0
H  H32  1  0.26743294  0.87518684  0.13511020  1  0  0.090855  0  0.955394  0  0  0.09964  0  1.020309  0  0  0.103253  0  1.017963  0  0  0.099735  0.097039  0  1.022075  0
H  H33  1  0.73256657  0.12479944  0.86488718  1  0  0.090991  0  0.955344  0  0  0.099751  0  1.020276  0  0  0.103361  0  1.017934  0  0  0.099821  0.097152  0  1.022038  0
C  C34  1  0.19893119  0.79958517  0.70042527  1  0  0.133983  0  3.745015  0  0  0.102946  0  3.998541  0  0  0.110855  0  4.019209  0  0  0.040427  0.097953  0  3.984394  0
C  C35  1  0.80107043  0.20041527  0.29957512  1  0  0.134099  0  3.744889  0  0  0.103043  0  3.998444  0  0  0.110952  0  4.019112  0  0  0.04046  0.098045  0  3.984291  0
C  C36  1  0.24406145  0.70655609  0.77875064  1  0  -0.18085  0  3.731298  0  0  -0.198133  0  3.976717  0  0  -0.207209  0  3.999563  0  0  -0.092391  -0.192121  0  3.961172  0
C  C37  1  0.75594478  0.29344005  0.22124782  1  0  -0.180723  0  3.731303  0  0  -0.198149  0  3.976661  0  0  -0.207227  0  3.999507  0  0  -0.092392  -0.192129  0  3.961116  0
C  C38  1  0.40586734  0.58465563  0.75673394  1  0  0.137669  0  3.710563  0  0  0.149538  0  3.943669  0  0  0.155714  0  3.964827  0  0  0.014265  0.145786  0  3.92915  0
C  C39  1  0.59413984  0.41534149  0.24326133  1  0  0.137551  0  3.710849  0  0  0.149706  0  3.943598  0  0  0.155884  0  3.964753  0  0  0.014317  0.14595  0  3.929093  0
C  C40  1  0.50229319  0.55568189  0.65217865  1  0  -0.142118  0  3.672965  0  0  -0.159466  0  3.92088  0  0  -0.167235  0  3.941481  0  0  -0.075946  -0.154774  0  3.907605  0
C  C41  1  0.49771262  0.44432163  0.34781506  1  0  -0.142125  0  3.673125  0  0  -0.159549  0  3.920961  0  0  -0.16732  0  3.941567  0  0  -0.076019  -0.154866  0  3.907707  0
C  C42  1  0.45049327  0.65416004  0.57834484  1  0  0.138388  0  3.682772  0  0  0.10516  0  3.935755  0  0  0.113597  0  3.952209  0  0  0.046797  0.099688  0  3.924984  0
C  C43  1  0.54950610  0.34584886  0.42165173  1  0  0.138384  0  3.682818  0  0  0.105155  0  3.935842  0  0  0.113563  0  3.952279  0  0  0.046787  0.09969  0  3.925064  0
C  C44  1  0.49639669  0.49870411  0.83761488  1  0  -0.065375  0  3.516594  0  0  -0.075066  0  3.746313  0  0  -0.077378  0  3.760768  0  0  -0.070889  -0.073469  0  3.736142  0
C  C45  1  0.50361597  0.50129303  0.16237821  1  0  -0.06541  0  3.516666  0  0  -0.075222  0  3.74643  0  0  -0.077528  0  3.760878  0  0  -0.070922  -0.073626  0  3.736267  0
C  C46  1  0.39085459  0.53288038  0.95241387  1  0  -0.052352  0  3.510502  0  0  -0.065331  0  3.748603  0  0  -0.066146  0  3.763831  0  0  -0.087602  -0.064632  0  3.738004  0
C  C47  1  0.60915312  0.46711236  0.04757923  1  0  -0.052177  0  3.510424  0  0  -0.065143  0  3.748573  0  0  -0.065958  0  3.7638  0  0  -0.087559  -0.064442  0  3.737974  0
C  C48  1  0.55437387  0.59028848  0.97453681  1  0  -0.045116  0  3.490657  0  0  -0.056518  0  3.728589  0  0  -0.057335  0  3.743887  0  0  -0.083211  -0.055826  0  3.717847  0
C  C49  1  0.44563472  0.40970538  0.02545690  1  0  -0.045227  0  3.490848  0  0  -0.056569  0  3.728708  0  0  -0.057384  0  3.744005  0  0  -0.083257  -0.055886  0  3.717973  0
C  C50  1  0.66980011  0.55108691  0.86094357  1  0  -0.063654  0  3.516454  0  0  -0.06992  0  3.743513  0  0  -0.072181  0  3.758684  0  0  -0.070206  -0.068178  0  3.73277  0
C  C51  1  0.33020752  0.44891234  0.13905082  1  0  -0.063608  0  3.516536  0  0  -0.06991  0  3.743576  0  0  -0.072174  0  3.758747  0  0  -0.070177  -0.068164  0  3.732828  0
C  C52  1  0.71182520  0.66670182  0.79287034  1  0  0.118242  0  3.755468  0  0  0.128522  0  3.990754  0  0  0.133964  0  4.01364  0  0  0.005421  0.125117  0  3.975073  0
C  C53  1  0.28817376  0.33330166  0.20712573  1  0  0.118142  0  3.755476  0  0  0.128481  0  3.990737  0  0  0.133924  0  4.01363  0  0  0.005386  0.125079  0  3.975045  0
C  C54  1  0.85347458  0.63222081  0.70014487  1  0  -0.170326  0  3.682931  0  0  -0.185778  0  3.932152  0  0  -0.194576  0  3.952254  0  0  -0.084479  -0.18019  0  3.91889  0
C  C55  1  0.14652926  0.36779040  0.29985410  1  0  -0.170294  0  3.682976  0  0  -0.185751  0  3.932163  0  0  -0.19457  0  3.95225  0  0  -0.084472  -0.180168  0  3.918902  0
C  C56  1  0.86265931  0.73618827  0.62692220  1  0  0.151622  0  3.680066  0  0  0.117769  0  3.937999  0  0  0.126847  0  3.954415  0  0  0.050747  0.111679  0  3.927263  0
C  C57  1  0.13734039  0.26382618  0.37307868  1  0  0.151518  0  3.680456  0  0  0.117663  0  3.938374  0  0  0.126743  0  3.954795  0  0  0.050768  0.111579  0  3.927631  0
C  C58  1  0.61490768  0.90764444  0.73360956  1  0  0.123967  0  3.744547  0  0  0.093598  0  3.994369  0  0  0.100818  0  4.015282  0  0  0.034989  0.088912  0  3.979937  0
C  C59  1  0.38507626  0.09235892  0.26638988  1  0  0.123903  0  3.744593  0  0  0.093539  0  3.994474  0  0  0.100758  0  4.015393  0  0  0.034968  0.088844  0  3.980046  0
C  C60  1  0.59576455  0.81004538  0.81015518  1  0  -0.188769  0  3.760965  0  0  -0.203906  0  4.007831  0  0  -0.213477  0  4.032322  0  0  -0.096545  -0.197634  0  3.991247  0
C  C61  1  0.40422353  0.18995475  0.18984235  1  0  -0.188674  0  3.760787  0  0  -0.203913  0  4.007699  0  0  -0.213486  0  4.032189  0  0  -0.096546  -0.197631  0  3.991109  0
C  C62  1  0.03825144  0.82898554  0.24521886  1  0  -0.087316  0  3.741413  0  0  -0.069684  0  3.975089  0  0  -0.075727  0  3.994505  0  0  -0.017015  -0.065964  0  3.962223  0
C  C63  1  0.96175518  0.17100965  0.75478337  1  0  -0.087402  0  3.741634  0  0  -0.069794  0  3.975348  0  0  -0.075833  0  3.994756  0  0  -0.017115  -0.066082  0  3.962504  0
C  C64  1  0.86032655  0.80175930  0.26047699  1  0  -0.037015  0  3.684594  0  0  -0.026199  0  3.922589  0  0  -0.026996  0  3.939346  0  0  -0.003049  -0.026045  0  3.911811  0
C  C65  1  0.13967355  0.19824462  0.73953104  1  0  -0.036826  0  3.684897  0  0  -0.026085  0  3.922813  0  0  -0.026897  0  3.939604  0  0  -0.002999  -0.025932  0  3.912036  0
C  C66  1  0.78385562  0.79157626  0.17390633  1  0  -0.099171  0  3.731776  0  0  -0.11753  0  3.978061  0  0  -0.119478  0  3.996284  0  0  -0.090868  -0.116263  0  3.96587  0
C  C67  1  0.21613539  0.20841693  0.82610775  1  0  -0.098917  0  3.732145  0  0  -0.117305  0  3.978423  0  0  -0.11925  0  3.996659  0  0  -0.090803  -0.116019  0  3.966224  0
C  C68  1  0.87629105  0.81666218  0.07458807  1  0  -0.068702  0  3.785768  0  0  -0.083672  0  4.037886  0  0  -0.083465  0  4.055862  0  0  -0.095056  -0.083685  0  4.025745  0
C  C69  1  0.12370061  0.18331681  0.92542039  1  0  -0.069158  0  3.786337  0  0  -0.084234  0  4.038531  0  0  -0.08403  0  4.056506  0  0  -0.095241  -0.08423  0  4.026377  0
C  C70  1  0.04931857  0.84936431  0.06028075  1  0  -0.092713  0  3.827264  0  0  -0.107882  0  4.085084  0  0  -0.109742  0  4.104946  0  0  -0.101795  -0.106652  0  4.071644  0
C  C71  1  0.95067593  0.15061130  0.93972218  1  0  -0.092567  0  3.82745  0  0  -0.107722  0  4.085249  0  0  -0.10959  0  4.105114  0  0  -0.101798  -0.106497  0  4.071811  0
C  C72  1  0.13090062  0.85252665  0.14479007  1  0  -0.079645  0  3.761722  0  0  -0.104798  0  4.017151  0  0  -0.104379  0  4.035577  0  0  -0.090875  -0.105012  0  4.004899  0
C  C73  1  0.86909748  0.14746290  0.85520887  1  0  -0.079745  0  3.761836  0  0  -0.104888  0  4.017287  0  0  -0.104466  0  4.03571  0  0  -0.09093  -0.105104  0  4.005044  0
C  C74  1  0.75019870  0.77673824  0.36630302  1  0  0.67784  0  3.899201  0  0  0.619712  0  4.211471  0  0  0.653736  0  4.201989  0  0  0.209248  0.596256  0  4.21731  0
C  C75  1  0.24980051  0.22326777  0.63370353  1  0  0.677571  0  3.899583  0  0  0.619718  0  4.211426  0  0  0.65374  0  4.201944  0  0  0.209218  0.596268  0  4.217258  0
C  C76  1  0.13286382  0.83876122  0.33277504  1  0  0.638972  0  3.931312  0  0  0.585882  0  4.228612  0  0  0.620791  0  4.220438  0  0  0.196706  0.562352  0  4.232944  0
C  C77  1  0.86713222  0.16124898  0.66722947  1  0  0.638809  0  3.931443  0  0  0.58571  0  4.22876  0  0  0.62062  0  4.220586  0  0  0.196744  0.562178  0  4.233092  0
N  N78  1  0.30454853  0.77750461  0.60243849  1  0  -0.350324  0  3.265422  0  0  -0.270368  0  3.5365  0  0  -0.292195  0  3.554316  0  0  -0.334736  -0.255687  0  3.524332  0
N  N79  1  0.69544988  0.22250331  0.39756126  1  0  -0.350443  0  3.265451  0  0  -0.270436  0  3.53649  0  0  -0.292262  0  3.554313  0  0  -0.334783  -0.255755  0  3.524314  0
N  N80  1  0.74291259  0.87154402  0.64207576  1  0  -0.338278  0  3.238232  0  0  -0.260146  0  3.502556  0  0  -0.281599  0  3.521977  0  0  -0.331124  -0.245539  0  3.489208  0
N  N81  1  0.25707764  0.12846701  0.35792414  1  0  -0.338104  0  3.238398  0  0  -0.260011  0  3.502753  0  0  -0.281464  0  3.522177  0  0  -0.331139  -0.2454  0  3.489398  0
O  O82  1  0.31439542  0.80155202  0.31490339  1  0  -0.62131  0  1.943248  0  0  -0.568692  0  2.181395  0  0  -0.594209  0  2.172659  0  0  -0.317845  -0.550955  0  2.186732  0
O  O83  1  0.68560062  0.19846139  0.68510025  1  0  -0.621194  0  1.943293  0  0  -0.568539  0  2.181383  0  0  -0.594058  0  2.172657  0  0  -0.317815  -0.550799  0  2.18671  0
O  O84  1  0.02614790  0.89073017  0.42195876  1  0  -0.684491  0  2.08919  0  0  -0.60944  0  2.357527  0  0  -0.640511  0  2.345396  0  0  -0.33221  -0.587228  0  2.364698  0
O  O85  1  0.97384859  0.10928537  0.57804399  1  0  -0.6845  0  2.08932  0  0  -0.609431  0  2.357642  0  0  -0.640501  0  2.345509  0  0  -0.332256  -0.587213  0  2.364809  0
O  O86  1  0.62040313  0.88950997  0.41500992  1  0  -0.718564  0  2.063761  0  0  -0.641665  0  2.345965  0  0  -0.673338  0  2.33128  0  0  -0.35051  -0.618621  0  2.355076  0
O  O87  1  0.37959475  0.11049597  0.58499528  1  0  -0.718433  0  2.063839  0  0  -0.641581  0  2.345807  0  0  -0.673274  0  2.331171  0  0  -0.350482  -0.61854  0  2.354912  0
O  O88  1  0.78737001  0.65164243  0.39579317  1  0  -0.570453  0  1.901237  0  0  -0.523573  0  2.113029  0  0  -0.547407  0  2.106688  0  0  -0.299091  -0.506366  0  2.116681  0
O  O89  1  0.21263451  0.34836711  0.60421941  1  0  -0.570448  0  1.901442  0  0  -0.523643  0  2.113091  0  0  -0.547476  0  2.10675  0  0  -0.299088  -0.506436  0  2.116741  0
