# generated using pymatgen
data_CuH5C4N2OF2
_symmetry_space_group_name_H-M   'P 1'
_cell_length_a   7.60205242
_cell_length_b   8.04093849
_cell_length_c   9.91636439
_cell_angle_alpha   110.61835738
_cell_angle_beta   89.99953102
_cell_angle_gamma   89.99983128
_symmetry_Int_Tables_number   1
_chemical_formula_structural   CuH5C4N2OF2
_chemical_formula_sum   'Cu4 H20 C16 N8 O4 F8'
_cell_volume   567.33714837
_cell_formula_units_Z   4
loop_
 _symmetry_equiv_pos_site_id
 _symmetry_equiv_pos_as_xyz
  1  'x, y, z'
loop_
 _atom_site_type_symbol
 _atom_site_label
 _atom_site_symmetry_multiplicity
 _atom_site_fract_x
 _atom_site_fract_y
 _atom_site_fract_z
 _atom_site_occupancy
 _atom_site_pbe_cm5_charge
 _atom_site_pbe_ddec_charge
 _atom_site_pbe_ddec_spin_density
 _atom_site_pbe_ddec_sum_bond_order
 _atom_site_pbe_magmom
Cu  Cu0  1  0.10061547  0.20184659  0.08696614  1  0.697496  0.929554  -0.790916  2.175575  -0.651
Cu  Cu1  1  0.60061408  0.29815398  0.41303267  1  0.697501  0.929541  -0.7909  2.175553  -0.651
Cu  Cu2  1  0.89938522  0.79815448  0.91303373  1  0.69751  0.929575  -0.790911  2.175501  -0.651
Cu  Cu3  1  0.39938398  0.70184576  0.58696682  1  0.697496  0.929499  -0.790932  2.175659  -0.651
H  H4  1  0.15513289  0.02625439  0.77280704  1  0.120105  0.104116  -0.000992  1.039906  -0.002
H  H5  1  0.65513688  0.47373969  0.72719070  1  0.120114  0.10409  -0.000992  1.039991  -0.002
H  H6  1  0.84486649  0.97374403  0.22719106  1  0.120118  0.104173  -0.000992  1.03985  -0.002
H  H7  1  0.34486512  0.52625740  0.27280701  1  0.120113  0.104127  -0.000992  1.039918  -0.002
H  H8  1  0.14008402  0.12191737  0.55478385  1  0.118042  0.138556  -0.000553  0.982796  0.0
H  H9  1  0.64008993  0.37807150  0.94521146  1  0.118087  0.138615  -0.000553  0.982771  0.0
H  H10  1  0.85991535  0.87808370  0.44521602  1  0.118037  0.138573  -0.000553  0.982808  0.0
H  H11  1  0.35991734  0.62191760  0.05478595  1  0.118064  0.138581  -0.000553  0.982802  0.0
H  H12  1  0.05378685  0.44192155  0.59975861  1  0.125501  0.10595  -0.000667  0.98078  -0.001
H  H13  1  0.55378108  0.05807186  0.90023755  1  0.125509  0.105927  -0.000667  0.980867  -0.001
H  H14  1  0.94621778  0.55808084  0.40024266  1  0.125502  0.105893  -0.000667  0.980829  -0.001
H  H15  1  0.44621172  0.94191992  0.09975861  1  0.125515  0.105962  -0.000667  0.980794  -0.001
H  H16  1  0.01483472  0.20327821  0.32839892  1  0.259335  0.3941  -0.001193  0.954815  -0.001
H  H17  1  0.51483328  0.29672552  0.17160539  1  0.25933  0.394051  -0.001193  0.954852  -0.001
H  H18  1  0.98516729  0.79672416  0.67160436  1  0.259337  0.3941  -0.001193  0.954784  -0.001
H  H19  1  0.48516478  0.70327817  0.82839928  1  0.259337  0.394109  -0.001193  0.954804  -0.001
H  H20  1  0.22263902  0.25350449  0.33265097  1  0.260358  0.393525  -0.000395  0.952113  0.0
H  H21  1  0.72264041  0.24650194  0.16735080  1  0.260375  0.393594  -0.000395  0.952016  0.0
H  H22  1  0.77736035  0.74650055  0.66735208  1  0.260366  0.393586  -0.000395  0.95203  0.0
H  H23  1  0.27735896  0.75350444  0.83265162  1  0.260375  0.393561  -0.000395  0.952062  0.0
C  C24  1  0.11601820  0.15948835  0.78075888  1  0.07414  0.152312  0.002645  3.866003  0.002
C  C25  1  0.61602006  0.34050597  0.71923917  1  0.074103  0.152305  0.002644  3.866044  0.002
C  C26  1  0.88398249  0.84051404  0.21924138  1  0.074049  0.152178  0.002644  3.866014  0.002
C  C27  1  0.38398194  0.65948976  0.28076117  1  0.074094  0.152248  0.002645  3.866107  0.002
C  C28  1  0.10881543  0.21344956  0.66221773  1  -0.065321  -0.140024  -0.004175  3.853014  -0.005
C  C29  1  0.60881620  0.28654350  0.83777798  1  -0.065384  -0.140027  -0.004175  3.853015  -0.005
C  C30  1  0.89118920  0.78655019  0.33778075  1  -0.065262  -0.139999  -0.004175  3.85313  -0.005
C  C31  1  0.39118712  0.71345093  0.16221896  1  -0.065315  -0.139993  -0.004175  3.853038  -0.005
C  C32  1  0.05921527  0.38833156  0.68626005  1  0.08842  0.190268  0.003477  3.866234  0.002
C  C33  1  0.55921157  0.11166315  0.81373545  1  0.08836  0.190104  0.003477  3.866293  0.002
C  C34  1  0.94079068  0.61167084  0.31373921  1  0.088396  0.190269  0.003477  3.866429  0.002
C  C35  1  0.44078517  0.88833263  0.18625986  1  0.088421  0.19024  0.003476  3.866255  0.002
C  C36  1  0.02407208  0.43753862  0.92698897  1  0.255557  0.275308  0.001695  4.011767  0.0
C  C37  1  0.52406585  0.06245762  0.57300921  1  0.255491  0.275317  0.001695  4.011742  0.0
C  C38  1  0.97593255  0.56246110  0.07301253  1  0.255529  0.275349  0.001695  4.011661  0.0
C  C39  1  0.47592827  0.93753680  0.42698874  1  0.255538  0.275341  0.001696  4.011682  0.0
N  N40  1  0.07439567  0.27186974  0.91331797  1  -0.330735  -0.288492  -0.049814  3.563089  -0.067
N  N41  1  0.57439271  0.22812753  0.58667918  1  -0.330643  -0.288428  -0.049815  3.562856  -0.067
N  N42  1  0.92560897  0.72813135  0.08667990  1  -0.330664  -0.288448  -0.049814  3.562866  -0.067
N  N43  1  0.42560403  0.77186823  0.41331915  1  -0.330707  -0.288487  -0.049812  3.563123  -0.067
N  N44  1  0.01493688  0.49839841  0.81829315  1  -0.305337  -0.330936  -0.009125  3.435627  -0.014
N  N45  1  0.51492967  0.00159923  0.68170448  1  -0.305258  -0.330783  -0.009125  3.435527  -0.014
N  N46  1  0.98507039  0.50160398  0.18170812  1  -0.305332  -0.330882  -0.009124  3.435736  -0.014
N  N47  1  0.48506444  0.99839920  0.31829261  1  -0.305363  -0.330956  -0.009124  3.435545  -0.014
O  O48  1  0.12961459  0.16898642  0.27318469  1  -0.596141  -0.77761  -0.051921  2.185189  -0.074
O  O49  1  0.62961377  0.33101793  0.22681807  1  -0.596159  -0.777611  -0.05192  2.185177  -0.074
O  O50  1  0.87038478  0.83101862  0.72681836  1  -0.596152  -0.777667  -0.051922  2.185139  -0.074
O  O51  1  0.37038560  0.66898577  0.77318560  1  -0.596141  -0.777636  -0.051922  2.185179  -0.074
F  F52  1  0.14331680  0.88679349  0.92949188  1  -0.346913  -0.578534  -0.048231  1.062541  -0.076
F  F53  1  0.64331701  0.61321370  0.57051027  1  -0.346906  -0.578518  -0.048232  1.062571  -0.076
F  F54  1  0.85668257  0.11321557  0.07050830  1  -0.346884  -0.578528  -0.048231  1.06254  -0.076
F  F55  1  0.35667973  0.38679134  0.42949277  1  -0.346897  -0.578495  -0.04823  1.062519  -0.076
F  F56  1  0.34972446  0.25422906  0.08263205  1  -0.354519  -0.568125  -0.049836  1.023372  -0.078
F  F57  1  0.84972450  0.24576722  0.41737102  1  -0.35453  -0.568151  -0.049836  1.02337  -0.078
F  F58  1  0.65027492  0.74576400  0.91736953  1  -0.354538  -0.568135  -0.049836  1.023333  -0.078
F  F59  1  0.15027225  0.75422981  0.58263374  1  -0.354521  -0.568134  -0.049834  1.023406  -0.078
