# generated using pymatgen
data_ZnH10C16(NO)4
_symmetry_space_group_name_H-M   'P 1'
_cell_length_a   7.83281605
_cell_length_b   21.08271127
_cell_length_c   24.23446770
_cell_angle_alpha   89.99989393
_cell_angle_beta   90.00072490
_cell_angle_gamma   90.00023453
_symmetry_Int_Tables_number   1
_chemical_formula_structural   ZnH10C16(NO)4
_chemical_formula_sum   'Zn8 H80 C128 N32 O32'
_cell_volume   4002.00727455
_cell_formula_units_Z   8
loop_
 _symmetry_equiv_pos_site_id
 _symmetry_equiv_pos_as_xyz
  1  'x, y, z'
loop_
 _atom_site_type_symbol
 _atom_site_label
 _atom_site_symmetry_multiplicity
 _atom_site_fract_x
 _atom_site_fract_y
 _atom_site_fract_z
 _atom_site_occupancy
 _atom_site_pbe_bader_charge
 _atom_site_pbe_bader_spin_density
 _atom_site_pbe_cm5_charge
 _atom_site_pbe_ddec_charge
 _atom_site_pbe_ddec_spin_density
 _atom_site_pbe_ddec_sum_bond_order
 _atom_site_pbe_magmom
Zn  Zn0  1  0.42974132  0.84062202  0.71676815  1  1.311444  0  0.704977  0.864952  0  2.324198  0
Zn  Zn1  1  0.07025821  0.15938113  0.21676772  1  1.311459  0  0.704959  0.864956  0  2.32415  0
Zn  Zn2  1  0.57026018  0.34062233  0.78323164  1  1.311168  0  0.704959  0.864943  0  2.32419  0
Zn  Zn3  1  0.92973476  0.65937860  0.28323186  1  1.311412  0  0.704971  0.864991  0  2.324083  0
Zn  Zn4  1  0.57027124  0.15937765  0.28323236  1  1.311427  0  0.704978  0.864977  0  2.324208  0
Zn  Zn5  1  0.92974413  0.84062186  0.78323073  1  1.311211  0  0.704966  0.864938  0  2.324129  0
Zn  Zn6  1  0.42972684  0.65938161  0.21676805  1  1.311439  0  0.704972  0.864945  0  2.324222  0
Zn  Zn7  1  0.07025609  0.34062059  0.71676947  1  1.311453  0  0.705007  0.865002  0  2.324102  0
H  H8  1  0.26150762  0.73991940  0.32464456  1  0.279992  0  0.149104  0.147435  0  1.037333  0
H  H9  1  0.23848841  0.26008163  0.82464269  1  0.280035  0  0.14914  0.147471  0  1.037359  0
H  H10  1  0.73848624  0.23991829  0.17535571  1  0.280026  0  0.149109  0.147474  0  1.037363  0
H  H11  1  0.76150837  0.76008097  0.67535517  1  0.279989  0  0.149107  0.147458  0  1.037335  0
H  H12  1  0.73848834  0.26008833  0.67535677  1  0.280041  0  0.149085  0.147433  0  1.037379  0
H  H13  1  0.76150372  0.73991804  0.17535493  1  0.280034  0  0.149096  0.147422  0  1.037384  0
H  H14  1  0.26151355  0.76007996  0.82464398  1  0.280063  0  0.149108  0.147439  0  1.037409  0
H  H15  1  0.23849270  0.23991823  0.32464452  1  0.280047  0  0.149089  0.14741  0  1.037353  0
H  H16  1  0.26378858  0.90223711  0.45265055  1  0.054941  0  0.106827  0.116818  0  0.999873  0
H  H17  1  0.23621494  0.09776082  0.95265183  1  0.054882  0  0.106826  0.1168  0  0.999937  0
H  H18  1  0.73621728  0.40223578  0.04735111  1  0.054939  0  0.10681  0.116805  0  0.999823  0
H  H19  1  0.76379026  0.59776327  0.54734754  1  0.055002  0  0.10685  0.116864  0  0.999816  0
H  H20  1  0.73620610  0.09776399  0.54734996  1  0.055011  0  0.106851  0.116874  0  0.999791  0
H  H21  1  0.76379251  0.90223790  0.04734538  1  0.055033  0  0.106839  0.116848  0  0.999761  0
H  H22  1  0.26378506  0.59776105  0.95264940  1  0.054861  0  0.106848  0.11684  0  0.999849  0
H  H23  1  0.23621847  0.40223546  0.45265379  1  0.054985  0  0.10681  0.11685  0  0.999822  0
H  H24  1  0.27171607  0.88430620  0.55395051  1  0.079004  0  0.107053  0.114013  0  0.989269  0
H  H25  1  0.22827590  0.11568970  0.05395163  1  0.07914  0  0.10704  0.113972  0  0.98931  0
H  H26  1  0.72828974  0.38430452  0.94605044  1  0.079009  0  0.107013  0.113963  0  0.989359  0
H  H27  1  0.77172425  0.61569323  0.44604720  1  0.079206  0  0.107059  0.114031  0  0.989264  0
H  H28  1  0.72826968  0.11569204  0.44604917  1  0.079286  0  0.107053  0.11402  0  0.989349  0
H  H29  1  0.77172516  0.88430428  0.94604516  1  0.079036  0  0.107075  0.114039  0  0.989319  0
H  H30  1  0.27170749  0.61569136  0.05395007  1  0.079127  0  0.107006  0.113928  0  0.989369  0
H  H31  1  0.22829086  0.38430644  0.55395455  1  0.078903  0  0.107027  0.113983  0  0.989277  0
H  H32  1  0.76573938  0.81424561  0.33392366  1  0.192471  0  0.157193  0.141287  0  0.951399  0
H  H33  1  0.73425752  0.18575664  0.83392808  1  0.192115  0  0.157189  0.141276  0  0.951394  0
H  H34  1  0.23425530  0.31424090  0.16607526  1  0.192546  0  0.157212  0.141334  0  0.951375  0
H  H35  1  0.26573972  0.68575762  0.66607527  1  0.192317  0  0.157211  0.141289  0  0.951429  0
H  H36  1  0.23426552  0.18575406  0.66607397  1  0.19217  0  0.157201  0.141279  0  0.951388  0
H  H37  1  0.26573844  0.81424066  0.16607408  1  0.192443  0  0.157205  0.141301  0  0.95146  0
H  H38  1  0.76574576  0.68575592  0.83392567  1  0.192394  0  0.157184  0.141264  0  0.951416  0
H  H39  1  0.73426645  0.31424395  0.33392483  1  0.192351  0  0.157228  0.141281  0  0.951423  0
H  H40  1  0.47552474  0.05547103  0.36678680  1  0.101352  0  0.1094  0.11784  0  1.008467  0
H  H41  1  0.02447803  0.94453372  0.86678166  1  0.101378  0  0.109341  0.117695  0  1.008591  0
H  H42  1  0.52446070  0.55546677  0.13321461  1  0.101259  0  0.109386  0.117702  0  1.008574  0
H  H43  1  0.97553101  0.44453447  0.63321878  1  0.101366  0  0.109389  0.117753  0  1.008634  0
H  H44  1  0.52449420  0.94453481  0.63321743  1  0.101431  0  0.10937  0.117717  0  1.008708  0
H  H45  1  0.97552304  0.05546643  0.13321720  1  0.101349  0  0.109358  0.117753  0  1.008611  0
H  H46  1  0.47551867  0.44453053  0.86678755  1  0.101408  0  0.109412  0.117834  0  1.008515  0
H  H47  1  0.02448538  0.55546805  0.36678586  1  0.101434  0  0.109428  0.117885  0  1.008527  0
H  H48  1  0.55162703  0.95143076  0.40937555  1  0.078292  0  0.110133  0.120589  0  0.98785  0
H  H49  1  0.94837916  0.04857323  0.90937160  1  0.078541  0  0.110102  0.120455  0  0.988006  0
H  H50  1  0.44836534  0.45142653  0.09062437  1  0.078234  0  0.110144  0.120571  0  0.987767  0
H  H51  1  0.05162932  0.54857356  0.59062867  1  0.078513  0  0.110073  0.120449  0  0.988001  0
H  H52  1  0.44839063  0.04857318  0.59062455  1  0.078661  0  0.110124  0.120461  0  0.988005  0
H  H53  1  0.05162318  0.95142786  0.09062643  1  0.078303  0  0.110109  0.120477  0  0.988018  0
H  H54  1  0.55162296  0.54857029  0.90937696  1  0.078556  0  0.110144  0.12058  0  0.987816  0
H  H55  1  0.94838323  0.45142800  0.40937596  1  0.078653  0  0.11012  0.120501  0  0.987957  0
H  H56  1  0.62081783  0.72971679  0.53121722  1  0.112967  0  0.097713  0.098991  0  1.044379  0
H  H57  1  0.87917888  0.27027849  0.03121417  1  0.113077  0  0.097775  0.099068  0  1.044358  0
H  H58  1  0.37918372  0.22971642  0.96878193  1  0.112922  0  0.0977  0.09893  0  1.044457  0
H  H59  1  0.12082936  0.77028099  0.46878358  1  0.112915  0  0.097733  0.098976  0  1.044426  0
H  H60  1  0.37916281  0.27028098  0.46878206  1  0.112806  0  0.097698  0.098931  0  1.044443  0
H  H61  1  0.12082347  0.72971549  0.96878469  1  0.112926  0  0.097703  0.098903  0  1.044461  0
H  H62  1  0.62081734  0.77027992  0.03121899  1  0.112974  0  0.097724  0.09902  0  1.044414  0
H  H63  1  0.87917553  0.22971915  0.53121899  1  0.112908  0  0.097693  0.098957  0  1.044437  0
H  H64  1  0.61649569  0.74651359  0.43032247  1  0.079865  0  0.100611  0.10667  0  1.042778  0
H  H65  1  0.88350876  0.25348419  0.93032038  1  0.07969  0  0.100642  0.106721  0  1.042773  0
H  H66  1  0.38349314  0.24651216  0.06967656  1  0.079769  0  0.100599  0.106641  0  1.042746  0
H  H67  1  0.11650455  0.75348656  0.56967831  1  0.079792  0  0.100616  0.106675  0  1.042773  0
H  H68  1  0.38349389  0.25348703  0.56967763  1  0.07976  0  0.100594  0.106647  0  1.042803  0
H  H69  1  0.11649614  0.74651074  0.06967930  1  0.079779  0  0.100579  0.106592  0  1.042787  0
H  H70  1  0.61650410  0.75348419  0.93032478  1  0.079874  0  0.100585  0.106602  0  1.042754  0
H  H71  1  0.88349907  0.24651406  0.43032467  1  0.079865  0  0.10063  0.106633  0  1.042779  0
H  H72  1  0.15814224  0.95990155  0.24834664  1  0.10178  0  0.104101  0.109199  0  1.017132  0
H  H73  1  0.34186234  0.04010249  0.74834515  1  0.101681  0  0.104127  0.109201  0  1.017189  0
H  H74  1  0.84185278  0.45989996  0.25165203  1  0.101858  0  0.104106  0.109221  0  1.017013  0
H  H75  1  0.65812690  0.54010246  0.75164854  1  0.101452  0  0.104124  0.109225  0  1.016961  0
H  H76  1  0.84186521  0.04010808  0.75165676  1  0.101612  0  0.104124  0.109185  0  1.017214  0
H  H77  1  0.65813362  0.95989433  0.25165041  1  0.101667  0  0.104132  0.109213  0  1.016936  0
H  H78  1  0.15814574  0.54009971  0.74834477  1  0.101764  0  0.104106  0.109179  0  1.01712  0
H  H79  1  0.34186523  0.45989816  0.24834867  1  0.101607  0  0.10413  0.109234  0  1.01709  0
H  H80  1  0.23258697  0.85539792  0.29064077  1  0.088111  0  0.102209  0.109828  0  1.028696  0
H  H81  1  0.26741669  0.14460698  0.79063798  1  0.087988  0  0.10221  0.109794  0  1.028607  0
H  H82  1  0.76740179  0.35539631  0.20935972  1  0.088238  0  0.102208  0.109807  0  1.028706  0
H  H83  1  0.73257243  0.64460715  0.70935471  1  0.087998  0  0.102229  0.109866  0  1.028454  0
H  H84  1  0.76741537  0.14461266  0.70936263  1  0.088028  0  0.102261  0.109882  0  1.028524  0
H  H85  1  0.73258310  0.85539222  0.20935593  1  0.088068  0  0.102204  0.109778  0  1.028585  0
H  H86  1  0.23259673  0.64460384  0.79063873  1  0.08819  0  0.102213  0.109806  0  1.028731  0
H  H87  1  0.26741842  0.35539395  0.29064250  1  0.087996  0  0.102219  0.109832  0  1.028626  0
C  C88  1  0.39629937  0.74776196  0.31543110  1  0.989222  0  0.182615  0.092401  0  3.819622  0
C  C89  1  0.10369376  0.25223909  0.81543075  1  0.989021  0  0.182613  0.092339  0  3.819741  0
C  C90  1  0.60369331  0.24775967  0.18456792  1  0.988389  0  0.182574  0.092252  0  3.819646  0
C  C91  1  0.89630293  0.75224004  0.68456754  1  0.988917  0  0.18263  0.09233  0  3.819666  0
C  C92  1  0.60369532  0.25224340  0.68456858  1  0.989074  0  0.182648  0.092335  0  3.819731  0
C  C93  1  0.89629709  0.74776152  0.18456770  1  0.989191  0  0.182613  0.092386  0  3.819604  0
C  C94  1  0.39630648  0.75223810  0.81543176  1  0.988978  0  0.182647  0.092391  0  3.819774  0
C  C95  1  0.10369941  0.24776011  0.31543339  1  0.989215  0  0.182677  0.09243  0  3.819652  0
C  C96  1  0.30964812  0.01387053  0.30559967  1  -0.014551  0  -0.019192  -0.044613  0  3.969279  0
C  C97  1  0.19035484  0.98613339  0.80559721  1  -0.01471  0  -0.019039  -0.044315  0  3.969204  0
C  C98  1  0.69033430  0.51386829  0.19439892  1  -0.014673  0  -0.019164  -0.044417  0  3.969173  0
C  C99  1  0.80964189  0.48613377  0.69439986  1  -0.01466  0  -0.019002  -0.044179  0  3.969024  0
C  C100  1  0.69036443  0.98613673  0.69440332  1  -0.014743  0  -0.018999  -0.044012  0  3.969125  0
C  C101  1  0.80964368  0.01386580  0.19439958  1  -0.014696  0  -0.019009  -0.044228  0  3.969063  0
C  C102  1  0.30965017  0.48613043  0.80560035  1  -0.014641  0  -0.019162  -0.044477  0  3.96941  0
C  C103  1  0.19035918  0.51386732  0.30560065  1  -0.01472  0  -0.019092  -0.04424  0  3.969232  0
C  C104  1  0.45548072  0.79637167  0.61043374  1  1.534177  0  0.193846  0.561878  0  4.237816  0
C  C105  1  0.04451215  0.20362458  0.11043189  1  1.53456  0  0.193942  0.562077  0  4.237586  0
C  C106  1  0.54452667  0.29636935  0.88956612  1  1.534209  0  0.193804  0.561847  0  4.23788  0
C  C107  1  0.95548258  0.70362757  0.38956638  1  1.53409  0  0.193879  0.56194  0  4.237865  0
C  C108  1  0.54451779  0.20362800  0.38956636  1  1.53421  0  0.193894  0.561981  0  4.237786  0
C  C109  1  0.95547998  0.79636844  0.88956614  1  1.534141  0  0.193787  0.561738  0  4.237984  0
C  C110  1  0.45546418  0.70362842  0.11043315  1  1.534174  0  0.193796  0.562006  0  4.237643  0
C  C111  1  0.04452487  0.29637210  0.61043454  1  1.534058  0  0.193768  0.561832  0  4.237917  0
C  C112  1  0.26025579  0.07603662  0.28101428  1  1.579733  0  0.217211  0.594287  0  4.169486  0
C  C113  1  0.23975388  0.92396498  0.78101338  1  1.579701  0  0.21705  0.59392  0  4.1701  0
C  C114  1  0.73973881  0.57603488  0.21898338  1  1.579679  0  0.217219  0.594076  0  4.169579  0
C  C115  1  0.76024727  0.42396665  0.71898586  1  1.579981  0  0.216978  0.593836  0  4.170486  0
C  C116  1  0.73975676  0.92397206  0.71898953  1  1.579951  0  0.216937  0.593621  0  4.170649  0
C  C117  1  0.76025357  0.07603279  0.21898590  1  1.579746  0  0.217094  0.593971  0  4.170084  0
C  C118  1  0.26025077  0.42396431  0.78101383  1  1.579747  0  0.217087  0.594028  0  4.169805  0
C  C119  1  0.23974742  0.57603444  0.28101424  1  1.579977  0  0.217001  0.593774  0  4.170115  0
C  C120  1  0.44844126  0.80624095  0.54934222  1  -0.045023  0  -0.031589  -0.064365  0  3.992501  0
C  C121  1  0.05155947  0.19375543  0.04934083  1  -0.04456  0  -0.031619  -0.064595  0  3.992427  0
C  C122  1  0.55156241  0.30623994  0.95065680  1  -0.045033  0  -0.031612  -0.064315  0  3.992465  0
C  C123  1  0.94844665  0.69375780  0.45065705  1  -0.044627  0  -0.031542  -0.064285  0  3.992499  0
C  C124  1  0.55154704  0.19375587  0.45065788  1  -0.04479  0  -0.03161  -0.064448  0  3.992542  0
C  C125  1  0.94844415  0.80624045  0.95065638  1  -0.044632  0  -0.031601  -0.064283  0  3.992413  0
C  C126  1  0.44843099  0.69375594  0.04934288  1  -0.044531  0  -0.031558  -0.064493  0  3.992187  0
C  C127  1  0.05156335  0.30624282  0.54934429  1  -0.04468  0  -0.031611  -0.064463  0  3.992519  0
C  C128  1  0.39555406  0.89739448  0.35288919  1  0.216622  0  0.091627  0.151937  0  4.069484  0
C  C129  1  0.10445839  0.10260934  0.85288620  1  0.216887  0  0.09158  0.151853  0  4.069574  0
C  C130  1  0.60444920  0.39739179  0.14710958  1  0.216681  0  0.091724  0.151993  0  4.069395  0
C  C131  1  0.89554176  0.60260941  0.64711192  1  0.216794  0  0.091638  0.151941  0  4.069561  0
C  C132  1  0.60446361  0.10261373  0.64711462  1  0.216758  0  0.091632  0.151799  0  4.069505  0
C  C133  1  0.89554268  0.89738890  0.14710935  1  0.21687  0  0.091669  0.152024  0  4.0695  0
C  C134  1  0.39555442  0.60260693  0.85288887  1  0.216587  0  0.091609  0.151895  0  4.069521  0
C  C135  1  0.10446058  0.39739026  0.35288901  1  0.216846  0  0.091591  0.151912  0  4.069661  0
C  C136  1  0.44297370  0.82672895  0.43469474  1  0.303887  0  0.100988  0.171955  0  4.066841  0
C  C137  1  0.05703552  0.17327139  0.93469597  1  0.303922  0  0.101019  0.171964  0  4.06674  0
C  C138  1  0.55702496  0.32672683  0.06530415  1  0.303929  0  0.100968  0.171895  0  4.06675  0
C  C139  1  0.94297434  0.67327312  0.56530327  1  0.303993  0  0.101036  0.171988  0  4.06681  0
C  C140  1  0.55702099  0.17327215  0.56530495  1  0.30406  0  0.100993  0.171933  0  4.066957  0
C  C141  1  0.94297320  0.82672828  0.06530206  1  0.304048  0  0.101002  0.17186  0  4.066883  0
C  C142  1  0.44297483  0.67327046  0.93469636  1  0.303973  0  0.100964  0.171802  0  4.066982  0
C  C143  1  0.05703821  0.32672607  0.43469807  1  0.303897  0  0.101017  0.172017  0  4.066758  0
C  C144  1  0.34427062  0.86511005  0.46993439  1  -0.00646  0  -0.100126  -0.187811  0  4.009076  0
C  C145  1  0.15573229  0.13488879  0.96993528  1  -0.006513  0  -0.100191  -0.187905  0  4.009215  0
C  C146  1  0.65573101  0.36510863  0.03006567  1  -0.006416  0  -0.100039  -0.18768  0  4.008902  0
C  C147  1  0.84427204  0.63489235  0.53006444  1  -0.006764  0  -0.100124  -0.187832  0  4.00908  0
C  C148  1  0.65572278  0.13489105  0.53006612  1  -0.00646  0  -0.100137  -0.187827  0  4.009151  0
C  C149  1  0.84427133  0.86510756  0.03006193  1  -0.006773  0  -0.100062  -0.18767  0  4.009059  0
C  C150  1  0.34426878  0.63488819  0.96993319  1  -0.006491  0  -0.100099  -0.187734  0  4.009079  0
C  C151  1  0.15573413  0.36510685  0.46993648  1  -0.006787  0  -0.100037  -0.18781  0  4.009052  0
C  C152  1  0.34852045  0.85495760  0.52650054  1  0.010357  0  -0.082294  -0.071348  0  3.988397  0
C  C153  1  0.15148195  0.14503931  0.02649964  1  0.009717  0  -0.082231  -0.071148  0  3.988141  0
C  C154  1  0.65148759  0.35495431  0.97349964  1  0.010354  0  -0.082308  -0.071429  0  3.988457  0
C  C155  1  0.84852873  0.64503958  0.47349832  1  0.010098  0  -0.082384  -0.071494  0  3.988458  0
C  C156  1  0.65147551  0.14504207  0.47350039  1  0.009789  0  -0.082316  -0.071377  0  3.988564  0
C  C157  1  0.84852422  0.85495752  0.97349716  1  0.010197  0  -0.082412  -0.071579  0  3.988631  0
C  C158  1  0.34850837  0.64504109  0.02649922  1  0.009752  0  -0.082231  -0.071187  0  3.988226  0
C  C159  1  0.15148382  0.35495914  0.52650220  1  0.010347  0  -0.08234  -0.071367  0  3.988267  0
C  C160  1  0.65668112  0.78683872  0.31996730  1  0.986433  0  0.168827  0.065377  0  3.89477  0
C  C161  1  0.84331141  0.21316261  0.81996924  1  0.98668  0  0.168893  0.065433  0  3.894445  0
C  C162  1  0.34331071  0.28683557  0.18003290  1  0.985912  0  0.168859  0.065414  0  3.894304  0
C  C163  1  0.15668358  0.71316339  0.68003241  1  0.98664  0  0.168801  0.065363  0  3.89463  0
C  C164  1  0.34331612  0.21316380  0.68003115  1  0.987065  0  0.168871  0.065405  0  3.894626  0
C  C165  1  0.15668327  0.78683611  0.18003292  1  0.986314  0  0.168795  0.06535  0  3.894614  0
C  C166  1  0.65668908  0.71316125  0.81996720  1  0.986101  0  0.16883  0.065403  0  3.894397  0
C  C167  1  0.84332004  0.28683723  0.31996851  1  0.986663  0  0.168802  0.065394  0  3.894677  0
C  C168  1  0.42096527  0.01154876  0.35088540  1  0.025445  0  -0.073413  -0.055219  0  3.948235  0
C  C169  1  0.07903688  0.98845602  0.85088042  1  0.02608  0  -0.073501  -0.055331  0  3.948313  0
C  C170  1  0.57901713  0.51154360  0.14911484  1  0.025586  0  -0.073531  -0.055285  0  3.948543  0
C  C171  1  0.92096753  0.48845713  0.64911747  1  0.026131  0  -0.073556  -0.055453  0  3.948556  0
C  C172  1  0.57904729  0.98845945  0.64911800  1  0.026161  0  -0.073485  -0.055383  0  3.948627  0
C  C173  1  0.92096546  0.01154365  0.14911638  1  0.026013  0  -0.073505  -0.055351  0  3.948369  0
C  C174  1  0.42096351  0.48845322  0.85088608  1  0.025443  0  -0.073541  -0.055368  0  3.948409  0
C  C175  1  0.07904758  0.51154539  0.35088675  1  0.025841  0  -0.073499  -0.055466  0  3.948388  0
C  C176  1  0.46451338  0.95365056  0.37435459  1  0.01983  0  -0.0925  -0.178087  0  4.001227  0
C  C177  1  0.03549862  0.04635465  0.87435140  1  0.019035  0  -0.092358  -0.177787  0  4.001066  0
C  C178  1  0.53547901  0.45364639  0.12564616  1  0.019635  0  -0.092442  -0.177904  0  4.001269  0
C  C179  1  0.96450474  0.54635534  0.62564805  1  0.018992  0  -0.092291  -0.17774  0  4.001417  0
C  C180  1  0.53550428  0.04635765  0.62564799  1  0.019109  0  -0.092421  -0.177819  0  4.001098  0
C  C181  1  0.96450628  0.95364502  0.12564581  1  0.019263  0  -0.092394  -0.177919  0  4.001317  0
C  C182  1  0.46450928  0.54635186  0.87435477  1  0.019571  0  -0.092385  -0.17793  0  4.001307  0
C  C183  1  0.03549760  0.45364575  0.37435370  1  0.019063  0  -0.092379  -0.177881  0  4.001259  0
C  C184  1  0.54307299  0.76753399  0.51375182  1  -0.063755  0  -0.080701  -0.055845  0  3.970437  0
C  C185  1  0.95692815  0.23246417  0.01375039  1  -0.063813  0  -0.080797  -0.055936  0  3.970602  0
C  C186  1  0.45692898  0.26753181  0.98624644  1  -0.063827  0  -0.080623  -0.055736  0  3.970247  0
C  C187  1  0.04307457  0.73246652  0.48624701  1  -0.063845  0  -0.080632  -0.055752  0  3.970348  0
C  C188  1  0.45691275  0.23246425  0.48624622  1  -0.063556  0  -0.080573  -0.055643  0  3.970256  0
C  C189  1  0.04307292  0.76753170  0.98624764  1  -0.063839  0  -0.080619  -0.055716  0  3.970298  0
C  C190  1  0.54307337  0.73246359  0.01375407  1  -0.063714  0  -0.080709  -0.055957  0  3.970088  0
C  C191  1  0.95692650  0.26753457  0.51375515  1  -0.063732  0  -0.080584  -0.055767  0  3.970251  0
C  C192  1  0.54110714  0.77726667  0.45697028  1  0.009072  0  -0.105726  -0.196694  0  3.997307  0
C  C193  1  0.95889323  0.22273058  0.95696939  1  0.009265  0  -0.105695  -0.196639  0  3.997436  0
C  C194  1  0.45888841  0.27726493  0.04302828  1  0.009133  0  -0.105749  -0.196666  0  3.997113  0
C  C195  1  0.04111846  0.72273289  0.54302853  1  0.009173  0  -0.105807  -0.196764  0  3.997277  0
C  C196  1  0.45888116  0.22273395  0.54302899  1  0.009068  0  -0.105795  -0.19677  0  3.997311  0
C  C197  1  0.04111039  0.77726577  0.04302947  1  0.009137  0  -0.105709  -0.196589  0  3.997232  0
C  C198  1  0.54110883  0.72273237  0.95697182  1  0.009103  0  -0.105782  -0.196544  0  3.997089  0
C  C199  1  0.95889026  0.27726725  0.45697239  1  0.0092  0  -0.105755  -0.196565  0  3.997083  0
C  C200  1  0.24448861  0.95733834  0.28355246  1  -0.096352  0  -0.079551  -0.068302  0  3.965004  0
C  C201  1  0.25551989  0.04266420  0.78355102  1  -0.096385  0  -0.079672  -0.068469  0  3.964985  0
C  C202  1  0.75550383  0.45733811  0.21644704  1  -0.096388  0  -0.079578  -0.068436  0  3.96494  0
C  C203  1  0.74447322  0.54266390  0.71644431  1  -0.096242  0  -0.079662  -0.068457  0  3.964777  0
C  C204  1  0.75551884  0.04266892  0.71645218  1  -0.096408  0  -0.079662  -0.06858  0  3.965238  0
C  C205  1  0.74447863  0.95733404  0.21644454  1  -0.096443  0  -0.079728  -0.068523  0  3.964928  0
C  C206  1  0.24449086  0.54266203  0.78355182  1  -0.096469  0  -0.079575  -0.068347  0  3.965027  0
C  C207  1  0.25552019  0.45733719  0.28355373  1  -0.09623  0  -0.079616  -0.068408  0  3.96494  0
C  C208  1  0.28652343  0.89918074  0.30704311  1  0.017852  0  -0.09946  -0.181311  0  3.998241  0
C  C209  1  0.21347959  0.10082365  0.80703851  1  0.017923  0  -0.099362  -0.181114  0  3.998104  0
C  C210  1  0.71346326  0.39917860  0.19296020  1  0.017974  0  -0.099369  -0.181161  0  3.998218  0
C  C211  1  0.78650905  0.60082299  0.69295508  1  0.018086  0  -0.099423  -0.181264  0  3.998026  0
C  C212  1  0.71348785  0.10082747  0.69296153  1  0.017708  0  -0.099443  -0.181089  0  3.998342  0
C  C213  1  0.78652020  0.89917554  0.19295622  1  0.018056  0  -0.099343  -0.181135  0  3.998059  0
C  C214  1  0.28653015  0.60082059  0.80704072  1  0.017967  0  -0.099404  -0.18122  0  3.998124  0
C  C215  1  0.21348946  0.39917811  0.30704420  1  0.017946  0  -0.099418  -0.181268  0  3.998283  0
N  N216  1  0.49405517  0.71856943  0.27905421  1  -0.806235  0  -0.232767  -0.179801  0  3.539974  0
N  N217  1  0.00593272  0.28143312  0.77905547  1  -0.80586  0  -0.232843  -0.17984  0  3.539905  0
N  N218  1  0.50593973  0.21856645  0.22094651  1  -0.805911  0  -0.23279  -0.179783  0  3.539856  0
N  N219  1  0.99406174  0.78143319  0.72094483  1  -0.805888  0  -0.232822  -0.179822  0  3.539868  0
N  N220  1  0.50593313  0.28143498  0.72094547  1  -0.805902  0  -0.232809  -0.179831  0  3.539944  0
N  N221  1  0.99405175  0.71856702  0.22094463  1  -0.806317  0  -0.23279  -0.179886  0  3.540027  0
N  N222  1  0.49406134  0.78143133  0.77905400  1  -0.805885  0  -0.232797  -0.179814  0  3.539814  0
N  N223  1  0.00594188  0.21856933  0.27905403  1  -0.80625  0  -0.232799  -0.179854  0  3.540006  0
N  N224  1  0.49510877  0.79176536  0.34184860  1  -0.875201  0  -0.121319  0.107876  0  3.760949  0
N  N225  1  0.00488793  0.20823706  0.84184915  1  -0.875303  0  -0.12131  0.107862  0  3.760843  0
N  N226  1  0.50488183  0.29176203  0.15815117  1  -0.874956  0  -0.121336  0.107844  0  3.760868  0
N  N227  1  0.99511083  0.70823726  0.65815086  1  -0.875232  0  -0.121261  0.107932  0  3.761034  0
N  N228  1  0.50488974  0.20823905  0.65815191  1  -0.875046  0  -0.121274  0.10797  0  3.761177  0
N  N229  1  0.99511186  0.79176213  0.15814971  1  -0.875239  0  -0.121217  0.108025  0  3.760849  0
N  N230  1  0.49511540  0.70823574  0.84184934  1  -0.875273  0  -0.121306  0.107877  0  3.760868  0
N  N231  1  0.00489406  0.29176383  0.34184924  1  -0.875236  0  -0.121272  0.107956  0  3.761112  0
N  N232  1  0.65824791  0.74244931  0.28213156  1  -0.726149  0  -0.211199  -0.193927  0  3.311156  0
N  N233  1  0.84173933  0.25755447  0.78213383  1  -0.726242  0  -0.211126  -0.193824  0  3.310992  0
N  N234  1  0.34174598  0.24244466  0.21786830  1  -0.725619  0  -0.211151  -0.193842  0  3.310987  0
N  N235  1  0.15825359  0.75755470  0.71786733  1  -0.726293  0  -0.211151  -0.193853  0  3.310929  0
N  N236  1  0.34174550  0.25755178  0.71786730  1  -0.726642  0  -0.211214  -0.193894  0  3.311063  0
N  N237  1  0.15824769  0.74244425  0.21786874  1  -0.725913  0  -0.21115  -0.193852  0  3.311103  0
N  N238  1  0.65825636  0.75755264  0.78213221  1  -0.725951  0  -0.211121  -0.193834  0  3.310923  0
N  N239  1  0.84175003  0.24244829  0.28213194  1  -0.726281  0  -0.211148  -0.193849  0  3.310981  0
N  N240  1  0.43858854  0.83828681  0.37759670  1  -0.817476  0  -0.15441  -0.070422  0  3.636994  0
N  N241  1  0.06142486  0.16171648  0.87759633  1  -0.817503  0  -0.154552  -0.070498  0  3.63703  0
N  N242  1  0.56140641  0.33828459  0.12240341  1  -0.817395  0  -0.154479  -0.070531  0  3.63719  0
N  N243  1  0.93858232  0.66171620  0.62240293  1  -0.817589  0  -0.154567  -0.070541  0  3.637075  0
N  N244  1  0.56142019  0.16172045  0.62240504  1  -0.817903  0  -0.154499  -0.070476  0  3.637393  0
N  N245  1  0.93858259  0.83828271  0.12240171  1  -0.817606  0  -0.154591  -0.070574  0  3.637391  0
N  N246  1  0.43858827  0.66171413  0.87759711  1  -0.817531  0  -0.154458  -0.070416  0  3.637104  0
N  N247  1  0.06142130  0.33828347  0.37759716  1  -0.817505  0  -0.154583  -0.070622  0  3.63724  0
O  O248  1  0.54282367  0.75237026  0.63112763  1  -1.191416  0  -0.340054  -0.574152  0  2.124939  0
O  O249  1  0.95717179  0.24762624  0.13112411  1  -1.191699  0  -0.340117  -0.57419  0  2.124808  0
O  O250  1  0.45718324  0.25237022  0.86887231  1  -1.191434  0  -0.340038  -0.574121  0  2.124901  0
O  O251  1  0.04282216  0.74762978  0.36887161  1  -1.191352  0  -0.340063  -0.574174  0  2.124887  0
O  O252  1  0.45718378  0.24762988  0.36887041  1  -1.191415  0  -0.340066  -0.574132  0  2.124846  0
O  O253  1  0.04282545  0.75236679  0.86887310  1  -1.191504  0  -0.340041  -0.574121  0  2.124969  0
O  O254  1  0.54280506  0.74762803  0.13112903  1  -1.191283  0  -0.340041  -0.574209  0  2.12478  0
O  O255  1  0.95717635  0.25237227  0.63113014  1  -1.191273  0  -0.340037  -0.574127  0  2.124833  0
O  O256  1  0.32451939  0.12745034  0.29907212  1  -1.207249  0  -0.328378  -0.576186  0  2.358262  0
O  O257  1  0.17548715  0.87255407  0.79907516  1  -1.207046  0  -0.328396  -0.576128  0  2.358461  0
O  O258  1  0.67546940  0.62744807  0.20092545  1  -1.20731  0  -0.328451  -0.576145  0  2.35831  0
O  O259  1  0.82451471  0.37255493  0.70092787  1  -1.20735  0  -0.328359  -0.576123  0  2.358617  0
O  O260  1  0.67548550  0.87255787  0.70093169  1  -1.207069  0  -0.32837  -0.576062  0  2.358757  0
O  O261  1  0.82451520  0.12744465  0.20092494  1  -1.207147  0  -0.328404  -0.576162  0  2.358571  0
O  O262  1  0.32451252  0.37255160  0.79907506  1  -1.207132  0  -0.328396  -0.576188  0  2.358356  0
O  O263  1  0.17548125  0.62744664  0.29907181  1  -1.20743  0  -0.328349  -0.57609  0  2.358417  0
O  O264  1  0.36544874  0.83647268  0.63913851  1  -1.159168  0  -0.340705  -0.569736  0  2.336033  0
O  O265  1  0.13455545  0.16352636  0.13913668  1  -1.159261  0  -0.340741  -0.569851  0  2.33595  0
O  O266  1  0.63456165  0.33647245  0.86086335  1  -1.15921  0  -0.340689  -0.56976  0  2.33597  0
O  O267  1  0.86544395  0.66352737  0.36086331  1  -1.159212  0  -0.340726  -0.569782  0  2.336034  0
O  O268  1  0.63455743  0.16352699  0.36086366  1  -1.159226  0  -0.340745  -0.569851  0  2.336078  0
O  O269  1  0.86544561  0.83646856  0.86086218  1  -1.159092  0  -0.34067  -0.569651  0  2.335955  0
O  O270  1  0.36542282  0.66352722  0.13913716  1  -1.159397  0  -0.340686  -0.569773  0  2.336083  0
O  O271  1  0.13455967  0.33647372  0.63913927  1  -1.159338  0  -0.340663  -0.569714  0  2.336109  0
O  O272  1  0.14872427  0.07479005  0.24246482  1  -1.163701  0  -0.311041  -0.525506  0  2.334151  0
O  O273  1  0.35127242  0.92521305  0.74246232  1  -1.163861  0  -0.310953  -0.52532  0  2.334485  0
O  O274  1  0.85126138  0.57478793  0.25753449  1  -1.16355  0  -0.311064  -0.525497  0  2.33422  0
O  O275  1  0.64872236  0.42521495  0.75753568  1  -1.16367  0  -0.310938  -0.525339  0  2.334586  0
O  O276  1  0.85128956  0.92521768  0.75753734  1  -1.163891  0  -0.310877  -0.525262  0  2.334614  0
O  O277  1  0.64873375  0.07478615  0.25753737  1  -1.163791  0  -0.311015  -0.525424  0  2.334383  0
O  O278  1  0.14872820  0.42521174  0.74246437  1  -1.163765  0  -0.310983  -0.525377  0  2.334357  0
O  O279  1  0.35127233  0.57478662  0.24246400  1  -1.163755  0  -0.310994  -0.525337  0  2.334343  0
