# generated using pymatgen
data_Tb2H20C24N2O17
_symmetry_space_group_name_H-M   'P 1'
_cell_length_a   8.54247506
_cell_length_b   15.45258870
_cell_length_c   28.23908127
_cell_angle_alpha   89.99994937
_cell_angle_beta   89.99990282
_cell_angle_gamma   89.99997660
_symmetry_Int_Tables_number   1
_chemical_formula_structural   Tb2H20C24N2O17
_chemical_formula_sum   'Tb8 H80 C96 N8 O68'
_cell_volume   3727.65343133
_cell_formula_units_Z   4
loop_
 _symmetry_equiv_pos_site_id
 _symmetry_equiv_pos_as_xyz
  1  'x, y, z'
loop_
 _atom_site_type_symbol
 _atom_site_label
 _atom_site_symmetry_multiplicity
 _atom_site_fract_x
 _atom_site_fract_y
 _atom_site_fract_z
 _atom_site_occupancy
 _atom_site_pbe_bader_charge
 _atom_site_pbe_bader_spin_density
 _atom_site_pbe_cm5_charge
 _atom_site_pbe_ddec_charge
 _atom_site_pbe_ddec_spin_density
 _atom_site_pbe_ddec_sum_bond_order
 _atom_site_pbe_magmom
Tb  Tb0  1  0.05422875  0.79593038  0.41250578  1  2.202867  0  1.525044  2.117423  0  2.15341  0
Tb  Tb1  1  0.44577187  0.29592982  0.58749485  1  2.202853  0  1.525061  2.117418  0  2.153398  0
Tb  Tb2  1  0.55422880  0.70406960  0.08749439  1  2.202959  0  1.525021  2.117413  0  2.153419  0
Tb  Tb3  1  0.94577012  0.20406982  0.91250567  1  2.202953  0  1.525037  2.117468  0  2.153444  0
Tb  Tb4  1  0.94576986  0.20407008  0.58749474  1  2.202837  0  1.525044  2.117481  0  2.153462  0
Tb  Tb5  1  0.55423024  0.70406998  0.41250496  1  2.202851  0  1.525043  2.117465  0  2.15348  0
Tb  Tb6  1  0.44576980  0.29593021  0.91250507  1  2.202862  0  1.525042  2.11743  0  2.153502  0
Tb  Tb7  1  0.05422965  0.79592935  0.08749485  1  2.202891  0  1.525002  2.117384  0  2.153503  0
H  H8  1  0.03861518  0.00875156  0.45299029  1  0.142798  0  0.134962  0.060087  0  0.991161  0
H  H9  1  0.46138331  0.50875115  0.54701012  1  0.142788  0  0.134933  0.060082  0  0.991081  0
H  H10  1  0.53861408  0.49124833  0.04700942  1  0.142777  0  0.134981  0.060121  0  0.991163  0
H  H11  1  0.96138580  0.99124921  0.95299086  1  0.142773  0  0.134947  0.060074  0  0.991191  0
H  H12  1  0.96138693  0.99124825  0.54700881  1  0.142759  0  0.134949  0.060071  0  0.991194  0
H  H13  1  0.53861412  0.49124995  0.45299040  1  0.142784  0  0.134937  0.060021  0  0.9912  0
H  H14  1  0.46138803  0.50875147  0.95299075  1  0.142771  0  0.134984  0.060136  0  0.991146  0
H  H15  1  0.03861397  0.00875124  0.04700895  1  0.142764  0  0.134962  0.060093  0  0.991174  0
H  H16  1  0.93123240  0.19868601  0.41162748  1  0.016431  0  0.099729  0.109811  0  0.987684  0
H  H17  1  0.56876769  0.69868563  0.58837258  1  0.016426  0  0.099724  0.109797  0  0.987699  0
H  H18  1  0.43123181  0.30131379  0.08837238  1  0.016469  0  0.099738  0.109827  0  0.98767  0
H  H19  1  0.06876764  0.80131418  0.91162753  1  0.016477  0  0.099723  0.109826  0  0.987698  0
H  H20  1  0.06876854  0.80131444  0.58837304  1  0.016446  0  0.099728  0.109826  0  0.987677  0
H  H21  1  0.43123325  0.30131483  0.41162723  1  0.016466  0  0.099735  0.109822  0  0.98769  0
H  H22  1  0.56876796  0.69868601  0.91162708  1  0.01642  0  0.099721  0.109795  0  0.987705  0
H  H23  1  0.93123330  0.19868498  0.08837298  1  0.016425  0  0.099743  0.109824  0  0.987689  0
H  H24  1  0.12987678  0.21583726  0.42836619  1  0.033271  0  0.099794  0.106491  0  1.010346  0
H  H25  1  0.37012507  0.71583813  0.57163412  1  0.033313  0  0.099795  0.106496  0  1.010343  0
H  H26  1  0.62987452  0.28416261  0.07163383  1  0.033283  0  0.099796  0.106485  0  1.010342  0
H  H27  1  0.87012434  0.78416291  0.92836654  1  0.033279  0  0.099809  0.106525  0  1.010369  0
H  H28  1  0.87012533  0.78416319  0.57163398  1  0.033294  0  0.099787  0.106488  0  1.010356  0
H  H29  1  0.62987470  0.28416297  0.42836604  1  0.033284  0  0.099809  0.106526  0  1.010367  0
H  H30  1  0.37012408  0.71583784  0.92836598  1  0.033277  0  0.099796  0.1065  0  1.010344  0
H  H31  1  0.12987660  0.21583755  0.07163362  1  0.033269  0  0.09979  0.106496  0  1.010357  0
H  H32  1  0.00730450  0.14701965  0.46311630  1  0.132946  0  0.120082  0.142459  0  1.011262  0
H  H33  1  0.49269505  0.64701925  0.53688404  1  0.132949  0  0.120088  0.142465  0  1.011249  0
H  H34  1  0.50730356  0.35298025  0.03688377  1  0.13294  0  0.120088  0.142435  0  1.011296  0
H  H35  1  0.99269525  0.85298046  0.96311656  1  0.13293  0  0.120124  0.142537  0  1.011247  0
H  H36  1  0.99269644  0.85298080  0.53688386  1  0.132932  0  0.120079  0.142453  0  1.011275  0
H  H37  1  0.50730355  0.35298055  0.46311613  1  0.132927  0  0.120075  0.142454  0  1.011264  0
H  H38  1  0.49269621  0.64701956  0.96311604  1  0.132938  0  0.120095  0.142453  0  1.011289  0
H  H39  1  0.00730452  0.14702000  0.03688360  1  0.132928  0  0.120076  0.142443  0  1.011277  0
H  H40  1  0.18641458  0.05178197  0.33566879  1  0.124306  0  0.118211  0.138201  0  0.996809  0
H  H41  1  0.31358388  0.55178205  0.66433124  1  0.124315  0  0.118202  0.138183  0  0.996841  0
H  H42  1  0.68641402  0.44821854  0.16433084  1  0.124311  0  0.118215  0.1382  0  0.996817  0
H  H43  1  0.81358472  0.94821899  0.83566910  1  0.124301  0  0.118213  0.138206  0  0.996796  0
H  H44  1  0.81358402  0.94821978  0.66433066  1  0.124284  0  0.1182  0.138184  0  0.996812  0
H  H45  1  0.68641589  0.44821905  0.33566927  1  0.124294  0  0.118204  0.138198  0  0.996811  0
H  H46  1  0.31358340  0.55178127  0.83566932  1  0.124305  0  0.118213  0.138219  0  0.996793  0
H  H47  1  0.18641739  0.05178146  0.16433106  1  0.124295  0  0.118207  0.138201  0  0.996805  0
H  H48  1  0.20862235  0.16499794  0.34834233  1  0.025639  0  0.104427  0.110778  0  0.988019  0
H  H49  1  0.29137603  0.66499805  0.65165836  1  0.025622  0  0.104434  0.110783  0  0.98806  0
H  H50  1  0.70862078  0.33500257  0.15165800  1  0.025664  0  0.104443  0.1108  0  0.988029  0
H  H51  1  0.79137805  0.83500365  0.84834235  1  0.02566  0  0.104441  0.110801  0  0.988032  0
H  H52  1  0.79137742  0.83500381  0.65165783  1  0.02567  0  0.10444  0.110804  0  0.98803  0
H  H53  1  0.70862375  0.33500305  0.34834251  1  0.025644  0  0.104443  0.110804  0  0.987994  0
H  H54  1  0.29137665  0.66499724  0.84834287  1  0.025646  0  0.104441  0.110802  0  0.988004  0
H  H55  1  0.20862407  0.16499745  0.15165711  1  0.025638  0  0.104442  0.1108  0  0.987999  0
H  H56  1  0.02502107  0.12408703  0.32771034  1  0.026332  0  0.105678  0.113801  0  0.974486  0
H  H57  1  0.47497968  0.62408642  0.67228966  1  0.026344  0  0.105701  0.113851  0  0.974445  0
H  H58  1  0.52502052  0.37591416  0.17229008  1  0.026332  0  0.105702  0.113839  0  0.97445  0
H  H59  1  0.97497827  0.87591459  0.82771095  1  0.026552  0  0.105691  0.11382  0  0.974503  0
H  H60  1  0.97497754  0.87591472  0.67228982  1  0.026363  0  0.105717  0.113847  0  0.974459  0
H  H61  1  0.52502360  0.37591404  0.32771051  1  0.026548  0  0.105694  0.11383  0  0.974496  0
H  H62  1  0.47497691  0.62408629  0.82771079  1  0.026559  0  0.105707  0.113856  0  0.974475  0
H  H63  1  0.02502384  0.12408716  0.17228921  1  0.026557  0  0.105704  0.113846  0  0.974482  0
H  H64  1  0.89861765  0.52252691  0.40078641  1  0.144485  0  0.121905  0.156251  0  0.997147  0
H  H65  1  0.60138024  0.02252642  0.59921303  1  0.144506  0  0.121886  0.156216  0  0.997205  0
H  H66  1  0.39861569  0.97747299  0.09921358  1  0.144468  0  0.121902  0.15624  0  0.997143  0
H  H67  1  0.10138129  0.47747266  0.90078518  1  0.144459  0  0.121891  0.156244  0  0.997151  0
H  H68  1  0.10138212  0.47747419  0.59921340  1  0.144488  0  0.1219  0.156238  0  0.997129  0
H  H69  1  0.39861719  0.97747469  0.40078713  1  0.144503  0  0.121908  0.156257  0  0.997124  0
H  H70  1  0.60138291  0.02252617  0.90078658  1  0.144484  0  0.121896  0.156237  0  0.997139  0
H  H71  1  0.89861849  0.52252651  0.09921321  1  0.1445  0  0.121898  0.156278  0  0.997112  0
H  H72  1  0.86179334  0.37121112  0.45260436  1  0.106748  0  0.113722  0.138712  0  1.004783  0
H  H73  1  0.63820546  0.87121144  0.54739527  1  0.106747  0  0.113732  0.138717  0  1.004787  0
H  H74  1  0.36179309  0.12878999  0.04739625  1  0.106759  0  0.113736  0.138739  0  1.00478  0
H  H75  1  0.13820765  0.62878900  0.95260233  1  0.106726  0  0.113728  0.138749  0  1.00475  0
H  H76  1  0.13820761  0.62878998  0.54739616  1  0.106711  0  0.113728  0.138739  0  1.004756  0
H  H77  1  0.36179314  0.12879031  0.45260454  1  0.106765  0  0.11373  0.138738  0  1.004749  0
H  H78  1  0.63820785  0.87121046  0.95260427  1  0.106709  0  0.113756  0.138777  0  1.004745  0
H  H79  1  0.86179212  0.37121016  0.04739571  1  0.106707  0  0.113735  0.138752  0  1.004784  0
H  H80  1  0.64816824  0.59128831  0.29890141  1  0.148999  0  0.117695  0.142853  0  1.007139  0
H  H81  1  0.85183310  0.09128825  0.70109870  1  0.149015  0  0.117686  0.142851  0  1.007142  0
H  H82  1  0.14816694  0.90871035  0.20109871  1  0.149032  0  0.117697  0.142834  0  1.007144  0
H  H83  1  0.35183360  0.40871012  0.79890151  1  0.149026  0  0.117707  0.142842  0  1.007088  0
H  H84  1  0.35183153  0.40871214  0.70109875  1  0.14902  0  0.117695  0.142841  0  1.007149  0
H  H85  1  0.14817018  0.90871156  0.29890146  1  0.149018  0  0.117693  0.142827  0  1.007154  0
H  H86  1  0.85183166  0.09128817  0.79890181  1  0.149001  0  0.11769  0.142835  0  1.007142  0
H  H87  1  0.64816734  0.59128710  0.20109865  1  0.148996  0  0.117692  0.142838  0  1.007107  0
C  C88  1  0.07533298  0.01270303  0.41565798  1  1.360074  0  0.189888  0.331244  0  4.077283  0
C  C89  1  0.42466551  0.51270257  0.58434279  1  1.36013  0  0.189828  0.331115  0  4.077275  0
C  C90  1  0.57532816  0.48729362  0.08434136  1  1.359937  0  0.189887  0.331194  0  4.077059  0
C  C91  1  0.92466938  0.98729392  0.91565892  1  1.35992  0  0.189921  0.331239  0  4.077046  0
C  C92  1  0.92467031  0.98729354  0.58434113  1  1.360595  0  0.189924  0.331262  0  4.077046  0
C  C93  1  0.57532958  0.48729465  0.41565844  1  1.360588  0  0.189931  0.331269  0  4.077073  0
C  C94  1  0.42467395  0.51270813  0.91565951  1  1.360343  0  0.189895  0.331219  0  4.076758  0
C  C95  1  0.07533039  0.01270653  0.08434089  1  1.360446  0  0.189901  0.331195  0  4.076959  0
C  C96  1  0.03544047  0.16748356  0.42700286  1  0.310919  0  -0.128857  -0.278304  0  3.923258  0
C  C97  1  0.46456024  0.66748376  0.57299711  1  0.310874  0  -0.128847  -0.278297  0  3.923275  0
C  C98  1  0.53543934  0.33251569  0.07299684  1  0.310866  0  -0.12884  -0.278234  0  3.923261  0
C  C99  1  0.96456066  0.83251596  0.92700350  1  0.310854  0  -0.128899  -0.278428  0  3.92338  0
C  C100  1  0.96456164  0.83251560  0.57299694  1  0.310884  0  -0.128846  -0.278316  0  3.92323  0
C  C101  1  0.53543953  0.33251540  0.42700340  1  0.31086  0  -0.128852  -0.278375  0  3.923255  0
C  C102  1  0.46456043  0.66748412  0.92700296  1  0.310929  0  -0.128848  -0.278321  0  3.92323  0
C  C103  1  0.03544028  0.16748385  0.07299666  1  0.310943  0  -0.128846  -0.278351  0  3.923219  0
C  C104  1  0.12827797  0.10949139  0.34969156  1  0.286117  0  -0.126228  -0.262287  0  3.911021  0
C  C105  1  0.37172045  0.60949148  0.65030880  1  0.286112  0  -0.126236  -0.262314  0  3.911017  0
C  C106  1  0.62827637  0.39050913  0.15030846  1  0.286108  0  -0.126263  -0.262321  0  3.911026  0
C  C107  1  0.87172242  0.89050890  0.84969186  1  0.286102  0  -0.126228  -0.262295  0  3.911034  0
C  C108  1  0.87172180  0.89050971  0.65030825  1  0.286102  0  -0.126241  -0.262321  0  3.911035  0
C  C109  1  0.62827815  0.39050897  0.34969171  1  0.286114  0  -0.126233  -0.262371  0  3.910978  0
C  C110  1  0.37172106  0.60949132  0.84969206  1  0.28612  0  -0.126246  -0.262407  0  3.910974  0
C  C111  1  0.12827852  0.10949090  0.15030795  1  0.286124  0  -0.126239  -0.262395  0  3.910971  0
C  C112  1  0.14705303  0.33581256  0.51055084  1  1.625425  0  0.229415  0.614266  0  4.250427  0
C  C113  1  0.35294639  0.83581357  0.48944800  1  1.625435  0  0.229349  0.614197  0  4.250574  0
C  C114  1  0.64704619  0.16418780  0.98944877  1  1.625386  0  0.229416  0.614275  0  4.250368  0
C  C115  1  0.85295042  0.66418828  0.01054989  1  1.625403  0  0.229406  0.61424  0  4.250488  0
C  C116  1  0.85295728  0.66418790  0.48944968  1  1.625528  0  0.229334  0.614086  0  4.250679  0
C  C117  1  0.64704401  0.16418624  0.51055181  1  1.625468  0  0.22931  0.614235  0  4.25035  0
C  C118  1  0.35295358  0.83581266  0.01055175  1  1.625425  0  0.229336  0.614207  0  4.25034  0
C  C119  1  0.14704584  0.33581152  0.98944850  1  1.625409  0  0.229356  0.614202  0  4.250424  0
C  C120  1  0.20657808  0.60249157  0.42091859  1  1.62811  0  0.22609  0.605877  0  4.263676  0
C  C121  1  0.29342268  0.10249236  0.57908071  1  1.628111  0  0.226126  0.605918  0  4.263709  0
C  C122  1  0.70657804  0.89750837  0.07908043  1  1.628149  0  0.226073  0.605786  0  4.263787  0
C  C123  1  0.79342074  0.39750667  0.92091989  1  1.628117  0  0.226057  0.605686  0  4.263762  0
C  C124  1  0.79341935  0.39750889  0.57908051  1  1.628066  0  0.226086  0.605828  0  4.263484  0
C  C125  1  0.70657943  0.89750875  0.42091946  1  1.62807  0  0.226153  0.605974  0  4.263261  0
C  C126  1  0.29342056  0.10249014  0.92091867  1  1.627986  0  0.226095  0.605803  0  4.263401  0
C  C127  1  0.20657903  0.60249120  0.07908099  1  1.628058  0  0.226138  0.605928  0  4.263342  0
C  C128  1  0.10239392  0.39940647  0.47399865  1  0.412808  0  0.064417  0.059961  0  3.931305  0
C  C129  1  0.39760897  0.89940805  0.52599944  1  0.412816  0  0.064421  0.059933  0  3.931261  0
C  C130  1  0.60239088  0.10059406  0.02600067  1  0.412811  0  0.064415  0.059841  0  3.931281  0
C  C131  1  0.89760929  0.60059492  0.97399838  1  0.412824  0  0.064401  0.05988  0  3.931349  0
C  C132  1  0.89760819  0.60059334  0.52600151  1  0.412827  0  0.064426  0.059905  0  3.93129  0
C  C133  1  0.60239197  0.10059240  0.47400001  1  0.412814  0  0.064399  0.059876  0  3.931171  0
C  C134  1  0.39760889  0.89940769  0.97399985  1  0.412837  0  0.064425  0.059883  0  3.93129  0
C  C135  1  0.10239282  0.39940554  0.02600037  1  0.412813  0  0.064391  0.059896  0  3.931226  0
C  C136  1  0.98301234  0.48937257  0.42306474  1  0.025166  0  -0.101259  -0.172854  0  3.965496  0
C  C137  1  0.51698871  0.98937286  0.57693447  1  0.025163  0  -0.101279  -0.17286  0  3.965446  0
C  C138  1  0.48300968  0.01062788  0.07693510  1  0.025169  0  -0.1013  -0.172916  0  3.965457  0
C  C139  1  0.01698764  0.51062761  0.92306390  1  0.025168  0  -0.101263  -0.17289  0  3.965366  0
C  C140  1  0.01698860  0.51062854  0.57693543  1  0.02514  0  -0.101331  -0.172913  0  3.965482  0
C  C141  1  0.48300989  0.01062824  0.42306569  1  0.025154  0  -0.101344  -0.17295  0  3.965415  0
C  C142  1  0.51699009  0.98937193  0.92306507  1  0.025156  0  -0.101293  -0.172897  0  3.965457  0
C  C143  1  0.98301213  0.48937220  0.07693485  1  0.025167  0  -0.101276  -0.172923  0  3.965496  0
C  C144  1  0.96441581  0.41208064  0.44957023  1  -0.031909  0  -0.106703  -0.178433  0  3.996811  0
C  C145  1  0.53558647  0.91208162  0.55042867  1  -0.031909  0  -0.106697  -0.178395  0  3.996742  0
C  C146  1  0.46441207  0.08792045  0.05042962  1  -0.031995  0  -0.106696  -0.178358  0  3.996679  0
C  C147  1  0.03558636  0.58792078  0.94956899  1  -0.031943  0  -0.106709  -0.178425  0  3.996695  0
C  C148  1  0.03558747  0.58792046  0.55042994  1  -0.03195  0  -0.106673  -0.178375  0  3.996698  0
C  C149  1  0.46441213  0.08791948  0.44957114  1  -0.031987  0  -0.106656  -0.178344  0  3.996628  0
C  C150  1  0.53558887  0.91208065  0.94957090  1  -0.03194  0  -0.106731  -0.178436  0  3.996744  0
C  C151  1  0.96441224  0.41207967  0.05042941  1  -0.031917  0  -0.106702  -0.178429  0  3.996698  0
C  C152  1  0.85506246  0.73455940  0.33519216  1  1.597465  0  0.214898  0.589885  0  4.246925  0
C  C153  1  0.64494112  0.23456009  0.66480752  1  1.597796  0  0.215014  0.590061  0  4.246695  0
C  C154  1  0.35506029  0.76543986  0.16480749  1  1.597581  0  0.214941  0.589942  0  4.246863  0
C  C155  1  0.14494152  0.26544027  0.83519244  1  1.597762  0  0.214987  0.59007  0  4.246784  0
C  C156  1  0.14494082  0.26544105  0.66480765  1  1.597582  0  0.214916  0.589924  0  4.24688  0
C  C157  1  0.35505865  0.76543972  0.33519264  1  1.597797  0  0.214956  0.58998  0  4.246793  0
C  C158  1  0.64494182  0.23455995  0.83519232  1  1.597791  0  0.214987  0.590015  0  4.246827  0
C  C159  1  0.85505942  0.73455889  0.16480737  1  1.597886  0  0.214962  0.589976  0  4.246756  0
C  C160  1  0.80834429  0.70049719  0.28889110  1  0.421284  0  0.079219  0.089353  0  3.891616  0
C  C161  1  0.69165932  0.20049908  0.71110931  1  0.421318  0  0.079204  0.089307  0  3.891612  0
C  C162  1  0.30834184  0.79950014  0.21110858  1  0.421276  0  0.079195  0.089341  0  3.891618  0
C  C163  1  0.19165761  0.29949932  0.78889063  1  0.421337  0  0.07927  0.089299  0  3.891655  0
C  C164  1  0.19165782  0.29950132  0.71110906  1  0.42127  0  0.079223  0.089336  0  3.891634  0
C  C165  1  0.30834279  0.79950072  0.28889121  1  0.421331  0  0.079181  0.089276  0  3.891653  0
C  C166  1  0.69165676  0.20049967  0.78889088  1  0.421316  0  0.079167  0.089227  0  3.89175  0
C  C167  1  0.80834568  0.70049725  0.21110883  1  0.421303  0  0.079194  0.089203  0  3.891784  0
C  C168  1  0.71332388  0.63270986  0.27503977  1  -0.1068  0  -0.093018  -0.157736  0  3.9692  0
C  C169  1  0.78667743  0.13271172  0.72496032  1  -0.106806  0  -0.093051  -0.157789  0  3.969335  0
C  C170  1  0.21332248  0.86728813  0.22496102  1  -0.106722  0  -0.093024  -0.157751  0  3.969312  0
C  C171  1  0.28667926  0.36728731  0.77503957  1  0.065152  0  -0.093053  -0.157701  0  3.969172  0
C  C172  1  0.28667823  0.36728930  0.72496075  1  -0.106767  0  -0.093061  -0.157748  0  3.969314  0
C  C173  1  0.21332468  0.86728939  0.27503985  1  0.065137  0  -0.093003  -0.157631  0  3.969238  0
C  C174  1  0.78667612  0.13271103  0.77503985  1  0.065171  0  -0.092987  -0.157649  0  3.969255  0
C  C175  1  0.71332519  0.63270991  0.22496024  1  0.065165  0  -0.093036  -0.157657  0  3.96917  0
C  C176  1  0.13130013  0.51961095  0.43301039  1  0.397325  0  0.068664  0.07531  0  3.907328  0
C  C177  1  0.36870186  0.01961239  0.56698825  1  0.39735  0  0.068692  0.075351  0  3.907135  0
C  C178  1  0.63129776  0.98038900  0.06698939  1  0.397356  0  0.068677  0.075351  0  3.907281  0
C  C179  1  0.86869979  0.48038856  0.93301089  1  0.397365  0  0.068677  0.075382  0  3.907288  0
C  C180  1  0.86870315  0.48038950  0.56698942  1  0.397391  0  0.068685  0.07527  0  3.907292  0
C  C181  1  0.63129791  0.98039000  0.43301121  1  0.397413  0  0.068698  0.0753  0  3.907249  0
C  C182  1  0.36870319  0.01961145  0.93301078  1  0.397389  0  0.068715  0.075358  0  3.907209  0
C  C183  1  0.13129764  0.51961060  0.06698892  1  0.397387  0  0.068675  0.075307  0  3.907276  0
N  N184  1  0.08272078  0.09364547  0.39851363  1  -1.234861  0  -0.282122  0.021548  0  3.710889  0
N  N185  1  0.41727881  0.59364563  0.60148639  1  -1.234849  0  -0.282082  0.021637  0  3.71083  0
N  N186  1  0.58271944  0.40635442  0.10148641  1  -1.234805  0  -0.282091  0.021559  0  3.710889  0
N  N187  1  0.91727933  0.90635410  0.89851390  1  -1.234753  0  -0.282096  0.021595  0  3.710917  0
N  N188  1  0.91728016  0.90635499  0.60148653  1  -1.235433  0  -0.282089  0.021614  0  3.710901  0
N  N189  1  0.58272096  0.40635483  0.39851378  1  -1.235408  0  -0.282109  0.021734  0  3.710739  0
N  N190  1  0.41727916  0.59364539  0.89851375  1  -1.235248  0  -0.2821  0.021716  0  3.710732  0
N  N191  1  0.08272278  0.09364506  0.10148626  1  -1.23531  0  -0.282083  0.021791  0  3.710672  0
O  O192  1  0.10788650  0.94697757  0.39175434  1  -1.168964  0  -0.345406  -0.531971  0  2.359234  0
O  O193  1  0.39210933  0.44697829  0.60824585  1  -1.169018  0  -0.345394  -0.531935  0  2.359229  0
O  O194  1  0.60788304  0.55302369  0.10824615  1  -1.168863  0  -0.345497  -0.532043  0  2.358943  0
O  O195  1  0.89211365  0.05302395  0.89175433  1  -1.168886  0  -0.34549  -0.532042  0  2.358927  0
O  O196  1  0.89211327  0.05302483  0.60824547  1  -1.168884  0  -0.34549  -0.532051  0  2.358924  0
O  O197  1  0.60788576  0.55302410  0.39175360  1  -1.168909  0  -0.345474  -0.532052  0  2.359073  0
O  O198  1  0.39211205  0.44697483  0.89175366  1  -1.168855  0  -0.345483  -0.532106  0  2.358711  0
O  O199  1  0.10788612  0.94697521  0.10824583  1  -1.168881  0  -0.345492  -0.532081  0  2.358877  0
O  O200  1  0.28566269  0.33965266  0.52677442  1  -1.194361  0  -0.406089  -0.662949  0  2.314347  0
O  O201  1  0.21433672  0.83965437  0.47322512  1  -1.194406  0  -0.406085  -0.66295  0  2.314523  0
O  O202  1  0.78566063  0.16034572  0.97322476  1  -1.194291  0  -0.406147  -0.663035  0  2.314186  0
O  O203  1  0.71433832  0.66034556  0.02677425  1  -1.194306  0  -0.406128  -0.662974  0  2.314244  0
O  O204  1  0.71433708  0.66034520  0.47322504  1  -1.19425  0  -0.406119  -0.662975  0  2.314163  0
O  O205  1  0.78566539  0.16034349  0.52677575  1  -1.194257  0  -0.406117  -0.663036  0  2.314079  0
O  O206  1  0.21433445  0.83965603  0.02677540  1  -1.194334  0  -0.406112  -0.663016  0  2.31416  0
O  O207  1  0.28566496  0.33965424  0.97322485  1  -1.194317  0  -0.406109  -0.662992  0  2.314208  0
O  O208  1  0.04094676  0.28281367  0.52279207  1  -1.193369  0  -0.390801  -0.66473  0  2.324173  0
O  O209  1  0.45905035  0.78281338  0.47720679  1  -1.193371  0  -0.390763  -0.664699  0  2.324146  0
O  O210  1  0.54094698  0.21718671  0.97720759  1  -1.193427  0  -0.390757  -0.664635  0  2.324258  0
O  O211  1  0.95905076  0.71718780  0.02279211  1  -1.193413  0  -0.390737  -0.664643  0  2.324302  0
O  O212  1  0.95904599  0.71718678  0.47720880  1  -1.193556  0  -0.390695  -0.664534  0  2.324516  0
O  O213  1  0.54095410  0.21718513  0.52279267  1  -1.193538  0  -0.390706  -0.66463  0  2.32439  0
O  O214  1  0.45904694  0.78281310  0.02279257  1  -1.193413  0  -0.390713  -0.664604  0  2.32431  0
O  O215  1  0.04095018  0.28281395  0.97720735  1  -1.193439  0  -0.39073  -0.664634  0  2.324339  0
O  O216  1  0.20607348  0.46443958  0.46360415  1  -1.062958  0  -0.10938  -0.1  0  2.626684  0
O  O217  1  0.29392585  0.96444117  0.53639320  1  -1.06297  0  -0.109317  -0.099909  0  2.626621  0
O  O218  1  0.70607277  0.03556028  0.03639476  1  -1.062909  0  -0.109331  -0.099901  0  2.626679  0
O  O219  1  0.79392745  0.53556117  0.96360502  1  -1.062942  0  -0.10931  -0.099902  0  2.626749  0
O  O220  1  0.79392747  0.53556023  0.53639530  1  -1.062947  0  -0.109324  -0.09986  0  2.626678  0
O  O221  1  0.70607392  0.03555864  0.46360554  1  -1.062974  0  -0.10932  -0.099908  0  2.626737  0
O  O222  1  0.29392700  0.96444018  0.96360576  1  -1.062928  0  -0.109335  -0.099905  0  2.626662  0
O  O223  1  0.20607349  0.46443993  0.03639479  1  -1.062936  0  -0.109334  -0.099911  0  2.626664  0
O  O224  1  0.12316905  0.65367461  0.39641710  1  -1.187588  0  -0.397316  -0.647342  0  2.310991  0
O  O225  1  0.37683284  0.15367534  0.60358147  1  -1.187586  0  -0.397371  -0.647387  0  2.311201  0
O  O226  1  0.62316540  0.84632406  0.10358126  1  -1.187666  0  -0.397352  -0.647349  0  2.311129  0
O  O227  1  0.87683342  0.34632302  0.89641766  1  -1.187694  0  -0.397378  -0.647334  0  2.311051  0
O  O228  1  0.87683306  0.34632391  0.60358448  1  -1.187572  0  -0.397383  -0.647386  0  2.310669  0
O  O229  1  0.62316459  0.84632512  0.39641551  1  -1.187583  0  -0.397368  -0.647426  0  2.310633  0
O  O230  1  0.37683320  0.15367575  0.89641607  1  -1.187565  0  -0.397365  -0.647355  0  2.310686  0
O  O231  1  0.12316635  0.65367420  0.10358498  1  -1.187599  0  -0.397363  -0.64739  0  2.310683  0
O  O232  1  0.34350556  0.61785142  0.43655150  1  -1.194522  0  -0.396165  -0.679873  0  2.323841  0
O  O233  1  0.15649285  0.11785162  0.56344886  1  -1.194518  0  -0.396195  -0.679935  0  2.323791  0
O  O234  1  0.84350679  0.88214978  0.06344887  1  -1.194541  0  -0.396133  -0.679837  0  2.323901  0
O  O235  1  0.65649317  0.38214938  0.93655181  1  -1.194531  0  -0.396134  -0.679784  0  2.323874  0
O  O236  1  0.65649772  0.38214903  0.56344902  1  -1.194479  0  -0.396141  -0.679815  0  2.324005  0
O  O237  1  0.84350341  0.88214948  0.43654989  1  -1.194473  0  -0.396215  -0.67991  0  2.323902  0
O  O238  1  0.15649532  0.11785132  0.93655094  1  -1.194464  0  -0.396196  -0.679861  0  2.323883  0
O  O239  1  0.34350192  0.61785043  0.06344942  1  -1.194465  0  -0.396164  -0.679874  0  2.323919  0
O  O240  1  0.95497025  0.79587792  0.33651122  1  -1.163412  0  -0.39948  -0.630366  0  2.2466  0
O  O241  1  0.54503563  0.29587992  0.66348880  1  -1.163686  0  -0.399513  -0.630408  0  2.246603  0
O  O242  1  0.45496930  0.70412132  0.16348874  1  -1.163376  0  -0.399493  -0.630389  0  2.246548  0
O  O243  1  0.04503373  0.20412046  0.83651228  1  -1.163643  0  -0.399494  -0.63042  0  2.246541  0
O  O244  1  0.04502953  0.20412124  0.66348859  1  -1.163349  0  -0.399501  -0.630383  0  2.246516  0
O  O245  1  0.45496414  0.70411730  0.33651172  1  -1.163601  0  -0.399524  -0.630426  0  2.246513  0
O  O246  1  0.54503398  0.29588043  0.83651142  1  -1.163581  0  -0.399525  -0.630407  0  2.246564  0
O  O247  1  0.95496487  0.79588065  0.16348859  1  -1.163668  0  -0.399498  -0.63035  0  2.246458  0
O  O248  1  0.79849796  0.70065373  0.37293669  1  -1.199956  0  -0.401547  -0.720121  0  2.371619  0
O  O249  1  0.70149979  0.20065252  0.62706302  1  -1.200011  0  -0.401611  -0.720248  0  2.371573  0
O  O250  1  0.29850066  0.79934489  0.12706265  1  -1.200125  0  -0.401555  -0.720116  0  2.371581  0
O  O251  1  0.20150112  0.29934717  0.87293692  1  -1.199989  0  -0.401596  -0.720224  0  2.37161  0
O  O252  1  0.20150064  0.29934414  0.62706312  1  -1.200113  0  -0.401541  -0.720117  0  2.371587  0
O  O253  1  0.29850115  0.79934534  0.37293715  1  -1.200116  0  -0.40156  -0.720148  0  2.371602  0
O  O254  1  0.70150028  0.20065491  0.87293716  1  -1.200101  0  -0.401577  -0.720184  0  2.371559  0
O  O255  1  0.79850216  0.70065393  0.12706254  1  -1.200163  0  -0.401567  -0.720161  0  2.371557  0
O  O256  1  0.86758248  0.74179580  0.24999888  1  -1.033798  0  -0.098893  -0.074692  0  2.591219  0
O  O257  1  0.63242578  0.24179958  0.75000010  1  -1.033896  0  -0.098869  -0.074633  0  2.591088  0
O  O258  1  0.36757751  0.75819958  0.25000042  1  -1.033889  0  -0.098887  -0.074714  0  2.591101  0
O  O259  1  0.13242314  0.25820078  0.75000058  1  -1.033899  0  -0.09893  -0.074719  0  2.591133  0
