# generated using pymatgen
data_SrH16C11(NO4)2
_symmetry_space_group_name_H-M   'P 1'
_cell_length_a   8.20685566
_cell_length_b   9.53359769
_cell_length_c   9.53357906
_cell_angle_alpha   76.83754981
_cell_angle_beta   74.82038848
_cell_angle_gamma   74.82013863
_symmetry_Int_Tables_number   1
_chemical_formula_structural   SrH16C11(NO4)2
_chemical_formula_sum   'Sr2 H32 C22 N4 O16'
_cell_volume   684.55541135
_cell_formula_units_Z   2
loop_
 _symmetry_equiv_pos_site_id
 _symmetry_equiv_pos_as_xyz
  1  'x, y, z'
loop_
 _atom_site_type_symbol
 _atom_site_label
 _atom_site_symmetry_multiplicity
 _atom_site_fract_x
 _atom_site_fract_y
 _atom_site_fract_z
 _atom_site_occupancy
 _atom_site_hle17_bader_spin_density
 _atom_site_hle17_ddec_charge
 _atom_site_hle17_ddec_spin_density
 _atom_site_hle17_ddec_sum_bond_order
 _atom_site_hle17_magmom
 _atom_site_hse06_10hf_bader_spin_density
 _atom_site_hse06_10hf_ddec_charge
 _atom_site_hse06_10hf_ddec_spin_density
 _atom_site_hse06_10hf_ddec_sum_bond_order
 _atom_site_hse06_10hf_magmom
 _atom_site_hse06_bader_spin_density
 _atom_site_hse06_ddec_charge
 _atom_site_hse06_ddec_spin_density
 _atom_site_hse06_ddec_sum_bond_order
 _atom_site_hse06_magmom
 _atom_site_pbe_bader_spin_density
 _atom_site_pbe_cm5_charge
 _atom_site_pbe_ddec_charge
 _atom_site_pbe_ddec_spin_density
 _atom_site_pbe_ddec_sum_bond_order
 _atom_site_pbe_magmom
Sr  Sr0  1  0.25000005  0.00527759  0.99472219  1  0  1.631592  0  1.098491  0  0  1.492227  0  1.466804  0  0  1.527562  0  1.425505  0  0  0.938927  1.464718  0  1.497849  0
Sr  Sr1  1  0.74999904  0.99472529  0.00527584  1  0  1.631578  0  1.098508  0  0  1.492296  0  1.466709  0  0  1.527628  0  1.425413  0  0  0.938941  1.464785  0  1.497756  0
H  H2  1  0.23216126  0.78740751  0.75100312  1  0  0.123977  0  0.932309  0  0  0.13563  0  0.99287  0  0  0.138573  0  0.990934  0  0  0.126171  0.13355  0  0.99445  0
H  H3  1  0.26783863  0.24899616  0.21259738  1  0  0.123966  0  0.932347  0  0  0.135626  0  0.992906  0  0  0.13857  0  0.990972  0  0  0.126159  0.133543  0  0.994485  0
H  H4  1  0.76783403  0.21259537  0.24899679  1  0  0.12394  0  0.932343  0  0  0.1356  0  0.992898  0  0  0.138542  0  0.990963  0  0  0.126149  0.133516  0  0.994477  0
H  H5  1  0.73216533  0.75100228  0.78740371  1  0  0.123964  0  0.932363  0  0  0.135613  0  0.992905  0  0  0.138557  0  0.990969  0  0  0.12615  0.133531  0  0.994485  0
H  H6  1  0.02452501  0.80609196  0.71637684  1  0  0.121454  0  0.925785  0  0  0.131786  0  0.990964  0  0  0.134626  0  0.98886  0  0  0.126253  0.129763  0  0.992652  0
H  H7  1  0.47547528  0.28362026  0.19391191  1  0  0.12149  0  0.925752  0  0  0.131821  0  0.990927  0  0  0.134663  0  0.988821  0  0  0.126245  0.129798  0  0.992612  0
H  H8  1  0.97547256  0.19391205  0.28361918  1  0  0.121483  0  0.925736  0  0  0.131781  0  0.990937  0  0  0.13462  0  0.988833  0  0  0.126253  0.129758  0  0.992623  0
H  H9  1  0.52452631  0.71638259  0.80608873  1  0  0.121517  0  0.925748  0  0  0.131779  0  0.990974  0  0  0.134616  0  0.988871  0  0  0.126257  0.129756  0  0.992662  0
H  H10  1  0.49638984  0.75755078  0.45569406  1  0  0.107287  0  0.913243  0  0  0.124982  0  0.967412  0  0  0.127086  0  0.965834  0  0  0.120814  0.123417  0  0.968649  0
H  H11  1  0.00361299  0.54430211  0.24245250  1  0  0.107288  0  0.913249  0  0  0.124985  0  0.967415  0  0  0.127089  0  0.965839  0  0  0.120818  0.12342  0  0.968654  0
H  H12  1  0.50360998  0.24244445  0.54429814  1  0  0.10726  0  0.913286  0  0  0.124981  0  0.967445  0  0  0.12708  0  0.965866  0  0  0.120836  0.12342  0  0.968676  0
H  H13  1  0.99638685  0.45569738  0.75755554  1  0  0.107294  0  0.913272  0  0  0.125008  0  0.967416  0  0  0.127109  0  0.96584  0  0  0.120857  0.123444  0  0.968652  0
H  H14  1  0.41894826  0.91245020  0.54873004  1  0  0.128921  0  0.956757  0  0  0.139527  0  1.019218  0  0  0.142355  0  1.018194  0  0  0.122811  0.137385  0  1.020217  0
H  H15  1  0.08105215  0.45126978  0.08755195  1  0  0.128947  0  0.956715  0  0  0.139548  0  1.01918  0  0  0.142377  0  1.018156  0  0  0.122817  0.137407  0  1.020177  0
H  H16  1  0.58105714  0.08754278  0.45126458  1  0  0.128883  0  0.956725  0  0  0.139603  0  1.019091  0  0  0.142431  0  1.018063  0  0  0.122824  0.137462  0  1.020091  0
H  H17  1  0.91894264  0.54872973  0.91245720  1  0  0.128924  0  0.956727  0  0  0.139583  0  1.019143  0  0  0.142412  0  1.018118  0  0  0.12282  0.137441  0  1.020144  0
H  H18  1  0.09524862  0.64556873  0.57058811  1  0  0.071898  0  0.931013  0  0  0.084906  0  0.998368  0  0  0.086071  0  0.997436  0  0  0.110614  0.08402  0  0.999012  0
H  H19  1  0.40475532  0.42941074  0.35443192  1  0  0.071921  0  0.931082  0  0  0.084925  0  0.998447  0  0  0.086094  0  0.997516  0  0  0.110632  0.084039  0  0.999095  0
H  H20  1  0.90474416  0.35443416  0.42941130  1  0  0.071921  0  0.931099  0  0  0.084924  0  0.99846  0  0  0.086091  0  0.99753  0  0  0.110618  0.084037  0  0.999107  0
H  H21  1  0.59524807  0.57058990  0.64556986  1  0  0.071933  0  0.931021  0  0  0.084935  0  0.998385  0  0  0.086102  0  0.997456  0  0  0.110633  0.084049  0  0.99903  0
H  H22  1  0.32065056  0.59008458  0.56597593  1  0  0.071153  0  0.91222  0  0  0.090027  0  0.968602  0  0  0.090765  0  0.968467  0  0  0.110089  0.089334  0  0.968741  0
H  H23  1  0.17935681  0.43402514  0.40991694  1  0  0.071087  0  0.912235  0  0  0.089991  0  0.968617  0  0  0.090734  0  0.968481  0  0  0.110092  0.089322  0  0.968728  0
H  H24  1  0.67934399  0.40991607  0.43402777  1  0  0.071093  0  0.912231  0  0  0.089994  0  0.968612  0  0  0.090734  0  0.968477  0  0  0.110092  0.089302  0  0.968753  0
H  H25  1  0.82064742  0.56597220  0.59008433  1  0  0.071143  0  0.912145  0  0  0.090007  0  0.968567  0  0  0.090755  0  0.968424  0  0  0.1101  0.089313  0  0.968709  0
H  H26  1  0.36354324  0.69287609  0.28020405  1  0  0.10836  0  0.952607  0  0  0.117819  0  1.021043  0  0  0.120591  0  1.019325  0  0  0.109837  0.115685  0  1.022484  0
H  H27  1  0.13646167  0.71979435  0.30712110  1  0  0.108311  0  0.952528  0  0  0.117755  0  1.021005  0  0  0.120527  0  1.019284  0  0  0.109759  0.115621  0  1.022447  0
H  H28  1  0.63645413  0.30712346  0.71979823  1  0  0.108385  0  0.952537  0  0  0.11782  0  1.020987  0  0  0.120588  0  1.019267  0  0  0.109839  0.115686  0  1.022432  0
H  H29  1  0.86353879  0.28020301  0.69287889  1  0  0.108337  0  0.952529  0  0  0.117775  0  1.020987  0  0  0.120546  0  1.019261  0  0  0.10979  0.115642  0  1.022433  0
H  H30  1  0.14297839  0.89198967  0.45663177  1  0  0.282758  0  0.879987  0  0  0.262784  0  0.94377  0  0  0.270995  0  0.937946  0  0  0.318845  0.256754  0  0.948239  0
H  H31  1  0.35702173  0.54336599  0.10801108  1  0  0.282743  0  0.880006  0  0  0.262814  0  0.94376  0  0  0.271027  0  0.937933  0  0  0.318857  0.256783  0  0.94823  0
H  H32  1  0.85702128  0.10801103  0.54336346  1  0  0.282617  0  0.880019  0  0  0.262691  0  0.943801  0  0  0.270904  0  0.937976  0  0  0.318817  0.25666  0  0.948273  0
H  H33  1  0.64297606  0.45663686  0.89199143  1  0  0.282638  0  0.88006  0  0  0.262723  0  0.943814  0  0  0.270935  0  0.937989  0  0  0.318828  0.256692  0  0.948286  0
C  C34  1  0.14382867  0.84779615  0.67825594  1  0  -0.180376  0  3.52288  0  0  -0.242193  0  3.777787  0  0  -0.242435  0  3.780685  0  0  -0.06012  -0.241972  0  3.77607  0
C  C35  1  0.35617222  0.32174064  0.15220811  1  0  -0.180445  0  3.522971  0  0  -0.242254  0  3.77785  0  0  -0.242494  0  3.780735  0  0  -0.060125  -0.242037  0  3.776152  0
C  C36  1  0.85617044  0.15220675  0.32173998  1  0  -0.180464  0  3.522869  0  0  -0.242217  0  3.777739  0  0  -0.242453  0  3.780627  0  0  -0.060112  -0.241991  0  3.776026  0
C  C37  1  0.64382865  0.67826000  0.84779422  1  0  -0.180605  0  3.522959  0  0  -0.242275  0  3.777774  0  0  -0.242508  0  3.780654  0  0  -0.060132  -0.242048  0  3.776054  0
C  C38  1  0.09435121  0.01345597  0.68530947  1  0  0.707499  0  3.897855  0  0  0.657661  0  4.209576  0  0  0.691865  0  4.197652  0  0  0.219182  0.634261  0  4.217069  0
C  C39  1  0.40564567  0.31469025  0.98654621  1  0  0.707503  0  3.897821  0  0  0.65763  0  4.209579  0  0  0.691834  0  4.197654  0  0  0.219176  0.634229  0  4.217068  0
C  C40  1  0.90564690  0.98654581  0.31468902  1  0  0.70751  0  3.897691  0  0  0.657589  0  4.209516  0  0  0.691791  0  4.197595  0  0  0.219167  0.634189  0  4.217006  0
C  C41  1  0.59435619  0.68531149  0.01345566  1  0  0.707626  0  3.897616  0  0  0.657687  0  4.209466  0  0  0.69189  0  4.197541  0  0  0.219225  0.634288  0  4.216959  0
C  C42  1  0.39613567  0.85860130  0.46747031  1  0  -0.177344  0  3.509603  0  0  -0.23857  0  3.758411  0  0  -0.23966  0  3.763009  0  0  -0.065028  -0.237993  0  3.756004  0
C  C43  1  0.10386537  0.53252945  0.14140061  1  0  -0.177384  0  3.509554  0  0  -0.238603  0  3.758387  0  0  -0.239693  0  3.762986  0  0  -0.065042  -0.238027  0  3.755984  0
C  C44  1  0.60386412  0.14139390  0.53252504  1  0  -0.177322  0  3.509385  0  0  -0.238686  0  3.758279  0  0  -0.239761  0  3.76286  0  0  -0.065087  -0.238107  0  3.755869  0
C  C45  1  0.89613294  0.46747116  0.85860648  1  0  -0.17744  0  3.509551  0  0  -0.238707  0  3.758388  0  0  -0.239795  0  3.76299  0  0  -0.065086  -0.238127  0  3.755978  0
C  C46  1  0.40716043  0.96089665  0.31739803  1  0  0.710621  0  3.891581  0  0  0.661266  0  4.197952  0  0  0.695571  0  4.187772  0  0  0.223896  0.637702  0  4.20489  0
C  C47  1  0.09284216  0.68260229  0.03910808  1  0  0.710751  0  3.891351  0  0  0.661365  0  4.197771  0  0  0.695669  0  4.187593  0  0  0.223975  0.6378  0  4.20471  0
C  C48  1  0.59284103  0.03910182  0.68260044  1  0  0.710699  0  3.891422  0  0  0.661297  0  4.197875  0  0  0.695595  0  4.187703  0  0  0.223914  0.637732  0  4.204819  0
C  C49  1  0.90715839  0.31739941  0.96089933  1  0  0.71066  0  3.891446  0  0  0.661267  0  4.197862  0  0  0.695567  0  4.18769  0  0  0.223895  0.637702  0  4.204803  0
C  C50  1  0.22233265  0.66612764  0.50932511  1  0  0.023765  0  3.53501  0  0  -0.037573  0  3.798256  0  0  -0.033615  0  3.808756  0  0  -0.052785  -0.040111  0  3.791005  0
C  C51  1  0.27767236  0.49067561  0.33387306  1  0  0.023817  0  3.53493  0  0  -0.037581  0  3.798253  0  0  -0.033639  0  3.808774  0  0  -0.052805  -0.040131  0  3.791001  0
C  C52  1  0.77766318  0.33387302  0.49067727  1  0  0.023833  0  3.535013  0  0  -0.037556  0  3.7983  0  0  -0.033611  0  3.808808  0  0  -0.052766  -0.040095  0  3.791059  0
C  C53  1  0.72233032  0.50932282  0.66612935  1  0  0.023749  0  3.534801  0  0  -0.037613  0  3.79809  0  0  -0.033675  0  3.808603  0  0  -0.052799  -0.040149  0  3.790845  0
C  C54  1  0.25000303  0.65135493  0.34864482  1  0  -0.18483  0  3.655421  0  0  -0.224158  0  3.908863  0  0  -0.227043  0  3.921512  0  0  -0.167382  -0.222106  0  3.900478  0
C  C55  1  0.74999714  0.34864352  0.65135709  1  0  -0.185012  0  3.655431  0  0  -0.224295  0  3.90888  0  0  -0.227161  0  3.921505  0  0  -0.167453  -0.222217  0  3.900423  0
N  N56  1  0.22229512  0.81948060  0.52433662  1  0  -0.056689  0  3.378878  0  0  0.025686  0  3.586721  0  0  0.014052  0  3.604673  0  0  -0.348084  0.03354  0  3.574748  0
N  N57  1  0.27770869  0.47566086  0.18052097  1  0  -0.056708  0  3.378895  0  0  0.025628  0  3.586758  0  0  0.013994  0  3.604715  0  0  -0.348105  0.033479  0  3.57479  0
N  N58  1  0.77770355  0.18051898  0.47566117  1  0  -0.056423  0  3.378567  0  0  0.025914  0  3.586425  0  0  0.014274  0  3.604388  0  0  -0.348032  0.033764  0  3.574455  0
N  N59  1  0.72229371  0.52433867  0.81948231  1  0  -0.056371  0  3.378644  0  0  0.025932  0  3.586495  0  0  0.014296  0  3.604455  0  0  -0.34806  0.03378  0  3.574527  0
O  O60  1  0.04794063  0.04436429  0.81514257  1  0  -0.758884  0  2.000955  0  0  -0.699231  0  2.260017  0  0  -0.724864  0  2.247692  0  0  -0.397891  -0.680408  0  2.268374  0
O  O61  1  0.45205579  0.18485099  0.95564058  1  0  -0.75894  0  2.000847  0  0  -0.699252  0  2.259902  0  0  -0.724888  0  2.247574  0  0  -0.397951  -0.680427  0  2.268257  0
O  O62  1  0.95205698  0.95563975  0.18484923  1  0  -0.758959  0  2.000705  0  0  -0.699302  0  2.259855  0  0  -0.724933  0  2.247514  0  0  -0.397987  -0.680478  0  2.26821  0
O  O63  1  0.54794256  0.81514966  0.04436124  1  0  -0.758937  0  2.000711  0  0  -0.699278  0  2.259872  0  0  -0.724913  0  2.247543  0  0  -0.397969  -0.680453  0  2.268225  0
O  O64  1  0.09599346  0.10298459  0.56586674  1  0  -0.62751  0  1.891695  0  0  -0.581463  0  2.11783  0  0  -0.603855  0  2.107834  0  0  -0.333482  -0.56568  0  2.124383  0
O  O65  1  0.40400643  0.43412642  0.89702248  1  0  -0.627416  0  1.891711  0  0  -0.581385  0  2.117918  0  0  -0.603774  0  2.107918  0  0  -0.333401  -0.565603  0  2.12447  0
O  O66  1  0.90400710  0.89702275  0.43412370  1  0  -0.62739  0  1.891697  0  0  -0.581329  0  2.117921  0  0  -0.603716  0  2.107924  0  0  -0.333373  -0.565547  0  2.124473  0
O  O67  1  0.59600045  0.56587529  0.10298146  1  0  -0.627454  0  1.891615  0  0  -0.581436  0  2.117924  0  0  -0.603825  0  2.107927  0  0  -0.333436  -0.565653  0  2.124475  0
O  O68  1  0.54803511  0.00328373  0.26625154  1  0  -0.689497  0  1.95486  0  0  -0.633578  0  2.195321  0  0  -0.659327  0  2.185848  0  0  -0.358378  -0.615169  0  2.201642  0
O  O69  1  0.95196686  0.73374684  0.99671923  1  0  -0.689549  0  1.954763  0  0  -0.633646  0  2.195259  0  0  -0.659394  0  2.185788  0  0  -0.358415  -0.615238  0  2.201583  0
O  O70  1  0.45196540  0.99671367  0.73374318  1  0  -0.689532  0  1.95476  0  0  -0.633591  0  2.195265  0  0  -0.659338  0  2.185794  0  0  -0.358379  -0.615185  0  2.201588  0
O  O71  1  0.04803455  0.26625158  0.00328451  1  0  -0.689507  0  1.954806  0  0  -0.633556  0  2.195296  0  0  -0.659303  0  2.185826  0  0  -0.358365  -0.615149  0  2.201619  0
O  O72  1  0.27646105  0.99265442  0.26012047  1  0  -0.690734  0  1.998873  0  0  -0.633445  0  2.244449  0  0  -0.659001  0  2.234929  0  0  -0.358467  -0.615335  0  2.251322  0
O  O73  1  0.22354033  0.73988041  0.00734728  1  0  -0.690816  0  1.998841  0  0  -0.633452  0  2.244368  0  0  -0.659005  0  2.234848  0  0  -0.358494  -0.615341  0  2.251239  0
O  O74  1  0.72353887  0.00734515  0.73987810  1  0  -0.690799  0  1.998903  0  0  -0.633488  0  2.2445  0  0  -0.659043  0  2.234986  0  0  -0.358491  -0.615379  0  2.251373  0
O  O75  1  0.77645997  0.26012241  0.99265679  1  0  -0.690759  0  1.998812  0  0  -0.633476  0  2.24442  0  0  -0.659031  0  2.234904  0  0  -0.35849  -0.615363  0  2.251288  0
