# generated using pymatgen
data_ZnH5C11NClO4F
_symmetry_space_group_name_H-M   'P 1'
_cell_length_a   9.73540055
_cell_length_b   11.03828441
_cell_length_c   11.07924211
_cell_angle_alpha   90.84346908
_cell_angle_beta   90.11878899
_cell_angle_gamma   91.76941110
_symmetry_Int_Tables_number   1
_chemical_formula_structural   ZnH5C11NClO4F
_chemical_formula_sum   'Zn2 H10 C22 N2 Cl2 O8 F2'
_cell_volume   1189.89840008
_cell_formula_units_Z   2
loop_
 _symmetry_equiv_pos_site_id
 _symmetry_equiv_pos_as_xyz
  1  'x, y, z'
loop_
 _atom_site_type_symbol
 _atom_site_label
 _atom_site_symmetry_multiplicity
 _atom_site_fract_x
 _atom_site_fract_y
 _atom_site_fract_z
 _atom_site_occupancy
 _atom_site_pbe_bader_charge
 _atom_site_pbe_bader_spin_density
 _atom_site_pbe_cm5_charge
 _atom_site_pbe_ddec_charge
 _atom_site_pbe_ddec_spin_density
 _atom_site_pbe_ddec_sum_bond_order
 _atom_site_pbe_magmom
Zn  Zn0  1  0.36443361  0.49758789  0.50130149  1  1.303927  0  0.659969  0.842749  0  2.37905  0
Zn  Zn1  1  0.64556505  0.50800630  0.50125022  1  1.275834  0  0.66644  0.814289  0  2.456281  0
H  H2  1  0.72258728  0.57175501  0.89283714  1  0.08324  0  0.098163  0.101722  0  1.007474  0
H  H3  1  0.87532391  0.63848350  0.63527019  1  0.174731  0  0.150136  0.158462  0  0.945619  0
H  H4  1  0.72007696  0.56966446  0.11699616  1  0.071604  0  0.098723  0.106054  0  1.004159  0
H  H5  1  0.22885596  0.34162076  0.10798438  1  0.031028  0  0.094814  0.106292  0  0.985171  0
H  H6  1  0.17597428  0.49744214  0.88447944  1  0.035262  0  0.089412  0.097234  0  0.998417  0
H  H7  1  0.17366530  0.49437040  0.11184766  1  0.052279  0  0.09175  0.100931  0  0.988943  0
H  H8  1  0.23092132  0.34461942  0.88078932  1  0.067137  0  0.095009  0.104371  0  0.982866  0
H  H9  1  0.36408435  0.11423901  0.63841536  1  0.09283  0  0.10957  0.115972  0  0.982808  0
H  H10  1  0.36431208  0.88713358  0.63826165  1  0.077766  0  0.109744  0.117021  0  0.982324  0
H  H11  1  0.86052437  0.36579664  0.36994177  1  0.205688  0  0.142721  0.151553  0  0.970371  0
C  C12  1  0.50153816  0.73952451  0.49431140  1  1.612503  0  0.215085  0.611706  0  4.168242  0
C  C13  1  0.39296760  0.47683355  0.06269107  1  -0.068615  0  -0.004509  0.0637  0  3.879912  0
C  C14  1  0.51145800  0.51092074  0.87130543  1  0.032316  0  -0.014763  -0.072871  0  3.975007  0
C  C15  1  0.50897442  0.50800786  0.13154221  1  -0.079176  0  -0.014924  -0.073532  0  3.975208  0
C  C16  1  0.62898634  0.54442413  0.94034883  1  -0.022034  0  -0.089838  -0.104545  0  3.999758  0
C  C17  1  0.62768290  0.54315931  0.06619574  1  -0.027691  0  -0.089811  -0.105161  0  3.997619  0
C  C18  1  0.24445578  0.43164953  0.06836642  1  0.001825  0  -0.154075  -0.198615  0  3.887317  0
C  C19  1  0.24590282  0.43352221  0.92563122  1  -0.026878  0  -0.153822  -0.195791  0  3.890152  0
C  C20  1  0.57445126  0.93970037  0.39855767  1  0.125606  0  0.01191  0.064418  0  4.016295  0
C  C21  1  0.57447111  0.06730472  0.39891548  1  0.099746  0  0.011504  0.06597  0  4.009819  0
C  C22  1  0.50011980  0.12991868  0.48721711  1  0.001088  0  -0.015062  -0.06453  0  3.949696  0
C  C23  1  0.49846467  0.26586701  0.49515325  1  1.621067  0  0.215798  0.612372  0  4.166022  0
C  C24  1  0.50038470  0.87529995  0.48677704  1  -0.01038  0  -0.014923  -0.062761  0  3.953281  0
C  C25  1  0.42354361  0.06429369  0.57221724  1  0.004042  0  -0.085317  -0.092934  0  3.999579  0
C  C26  1  0.42359598  0.93855341  0.57204884  1  -0.037445  0  -0.08609  -0.096443  0  4.002186  0
C  C27  1  0.92256268  0.42585022  0.42855397  1  0.558647  0  0.068494  -0.074414  0  3.852747  0
C  C28  1  0.93086922  0.57718112  0.57654851  1  0.595703  0  0.067523  -0.081378  0  3.865057  0
C  C29  1  0.06568236  0.42494981  0.43139993  1  1.173167  0  0.268292  0.430946  0  4.038148  0
C  C30  1  0.07359685  0.57184369  0.57635881  1  1.102242  0  0.267133  0.431662  0  4.0451  0
C  C31  1  0.51404027  0.50867997  0.73684999  1  1.520581  0  0.215663  0.60345  0  4.164137  0
C  C32  1  0.51060357  0.50353239  0.26585214  1  1.597626  0  0.215153  0.599631  0  4.172766  0
C  C33  1  0.39425060  0.47840939  0.93661588  1  0.019154  0  -0.006412  0.060688  0  3.883804  0
N  N34  1  0.14176966  0.49708351  0.50430890  1  -1.228224  0  -0.28622  -0.340521  0  3.405713  0
N  N35  1  0.85876425  0.50333397  0.50170855  1  -1.19526  0  -0.280913  -0.069537  0  3.532342  0
Cl  Cl36  1  0.65973989  0.86281224  0.28648911  1  -0.180228  0  -0.012665  -0.064016  0  1.549713  0
Cl  Cl37  1  0.65988103  0.14528989  0.28635737  1  -0.197801  0  -0.013258  -0.07004  0  1.550362  0
O  O38  1  0.38482741  0.68455612  0.49445419  1  -1.154721  0  -0.31973  -0.551536  0  2.304808  0
O  O39  1  0.38061054  0.31181453  0.50265997  1  -1.148051  0  -0.318128  -0.546041  0  2.306468  0
O  O40  1  0.61824193  0.69219234  0.50371055  1  -1.152249  0  -0.318858  -0.548449  0  2.332546  0
O  O41  1  0.61396931  0.32273825  0.49750620  1  -1.156442  0  -0.3195  -0.555512  0  2.345576  0
O  O42  1  0.39770772  0.50098827  0.68334336  1  -1.155582  0  -0.317818  -0.550406  0  2.329339  0
O  O43  1  0.39443858  0.49408417  0.31862401  1  -1.162764  0  -0.317035  -0.544946  0  2.318454  0
O  O44  1  0.63107204  0.51354384  0.68523025  1  -1.163603  0  -0.322701  -0.551486  0  2.317773  0
O  O45  1  0.62773687  0.50884050  0.31792854  1  -1.160879  0  -0.322004  -0.554234  0  2.338126  0
F  F46  1  0.13198365  0.34979551  0.35897799  1  -0.610043  0  -0.039856  -0.092832  0  1.380488  0
F  F47  1  0.14728874  0.64334681  0.65114930  1  -0.598574  0  -0.044777  -0.098661  0  1.373621  0
