# generated using pymatgen
data_KH19C28(SO2)4
_symmetry_space_group_name_H-M   'P 1'
_cell_length_a   11.11269905
_cell_length_b   12.11459374
_cell_length_c   12.53829547
_cell_angle_alpha   65.64050468
_cell_angle_beta   64.36839784
_cell_angle_gamma   80.25442561
_symmetry_Int_Tables_number   1
_chemical_formula_structural   KH19C28(SO2)4
_chemical_formula_sum   'K2 H38 C56 S8 O16'
_cell_volume   1386.30147485
_cell_formula_units_Z   2
loop_
 _symmetry_equiv_pos_site_id
 _symmetry_equiv_pos_as_xyz
  1  'x, y, z'
loop_
 _atom_site_type_symbol
 _atom_site_label
 _atom_site_symmetry_multiplicity
 _atom_site_fract_x
 _atom_site_fract_y
 _atom_site_fract_z
 _atom_site_occupancy
 _atom_site_hle17_bader_spin_density
 _atom_site_hle17_ddec_charge
 _atom_site_hle17_ddec_spin_density
 _atom_site_hle17_ddec_sum_bond_order
 _atom_site_hle17_magmom
 _atom_site_hse06_10hf_bader_spin_density
 _atom_site_hse06_10hf_ddec_charge
 _atom_site_hse06_10hf_ddec_spin_density
 _atom_site_hse06_10hf_ddec_sum_bond_order
 _atom_site_hse06_10hf_magmom
 _atom_site_hse06_bader_spin_density
 _atom_site_hse06_ddec_charge
 _atom_site_hse06_ddec_spin_density
 _atom_site_hse06_ddec_sum_bond_order
 _atom_site_hse06_magmom
 _atom_site_pbe_bader_spin_density
 _atom_site_pbe_cm5_charge
 _atom_site_pbe_ddec_charge
 _atom_site_pbe_ddec_spin_density
 _atom_site_pbe_ddec_sum_bond_order
 _atom_site_pbe_magmom
K  K0  1  0.10212147  0.70534268  0.46971477  1  0  0.913522  0  0.495802  0  0  0.852519  0  0.696502  0  0  0.867227  0  0.674321  0  0  0.760494  0.841205  0  0.712883  0
K  K1  1  0.89787545  0.29465081  0.53028748  1  0  0.913525  0  0.495784  0  0  0.852517  0  0.696483  0  0  0.867224  0  0.674303  0  0  0.760484  0.841205  0  0.712863  0
H  H2  1  0.87307654  0.45918197  0.26413570  1  0  0.413034  0  0.878799  0  0  0.38228  0  0.957075  0  0  0.394896  0  0.939017  0  0  0.308723  0.373419  0  0.968644  0
H  H3  1  0.12692346  0.54081786  0.73586444  1  0  0.413015  0  0.878823  0  0  0.382259  0  0.957105  0  0  0.394875  0  0.939047  0  0  0.308715  0.373399  0  0.968671  0
H  H4  1  0.94803248  0.45879557  0.66019874  1  0  0.386521  0  0.909687  0  0  0.351526  0  0.996067  0  0  0.365802  0  0.981357  0  0  0.296265  0.34158  0  1.006218  0
H  H5  1  0.05196852  0.54120426  0.33980181  1  0  0.386522  0  0.909695  0  0  0.351527  0  0.996075  0  0  0.365803  0  0.981365  0  0  0.296268  0.341581  0  1.006226  0
H  H6  1  0.66672500  0.26181259  0.83146309  1  0  0.41014  0  0.871175  0  0  0.381265  0  0.947817  0  0  0.393092  0  0.934447  0  0  0.314094  0.372939  0  0.957203  0
H  H7  1  0.33327500  0.73818724  0.16853705  1  0  0.410138  0  0.871185  0  0  0.381268  0  0.947821  0  0  0.393095  0  0.934453  0  0  0.314093  0.372941  0  0.957208  0
H  H8  1  0.61862379  0.94539325  0.46484530  1  0  0.08743  0  0.995695  0  0  0.09602  0  1.061208  0  0  0.098892  0  1.060633  0  0  0.090678  0.093991  0  1.06164  0
H  H9  1  0.38137621  0.05460658  0.53515563  1  0  0.087422  0  0.995695  0  0  0.096016  0  1.061201  0  0  0.098888  0  1.060625  0  0  0.090668  0.093986  0  1.061633  0
H  H10  1  0.39625759  0.85114891  0.55558560  1  0  0.085235  0  0.976124  0  0  0.091759  0  1.044521  0  0  0.094693  0  1.042575  0  0  0.095477  0.089606  0  1.045977  0
H  H11  1  0.60374241  0.14885092  0.44441453  1  0  0.085265  0  0.976087  0  0  0.091787  0  1.044479  0  0  0.094721  0  1.042533  0  0  0.095499  0.089634  0  1.045934  0
H  H12  1  0.37879684  0.64056715  0.57472639  1  0  0.099583  0  0.965564  0  0  0.106925  0  1.030151  0  0  0.110666  0  1.027974  0  0  0.103685  0.104006  0  1.032336  0
H  H13  1  0.62120316  0.35943268  0.42527374  1  0  0.099577  0  0.965555  0  0  0.106919  0  1.030144  0  0  0.11066  0  1.027968  0  0  0.103691  0.104  0  1.032329  0
H  H14  1  0.58897934  0.52847728  0.49809481  1  0  0.096439  0  0.96705  0  0  0.107145  0  1.028953  0  0  0.110064  0  1.02702  0  0  0.107297  0.105021  0  1.030417  0
H  H15  1  0.41102067  0.47152345  0.50190496  1  0  0.096415  0  0.967052  0  0  0.107117  0  1.028963  0  0  0.110026  0  1.027042  0  0  0.107287  0.104993  0  1.030427  0
H  H16  1  0.94854467  0.41602448  0.99248513  1  0  0.105087  0  0.958821  0  0  0.113941  0  1.022516  0  0  0.117671  0  1.01905  0  0  0.106041  0.111307  0  1.024908  0
H  H17  1  0.05145534  0.58397625  0.00751543  1  0  0.105106  0  0.958795  0  0  0.113964  0  1.022484  0  0  0.117696  0  1.019017  0  0  0.106043  0.111331  0  1.024875  0
H  H18  1  0.96472226  0.32164834  0.84378017  1  0  0.099909  0  0.982174  0  0  0.108384  0  1.043092  0  0  0.111726  0  1.042045  0  0  0.100584  0.105952  0  1.044031  0
H  H19  1  0.03527774  0.67835149  0.15621997  1  0  0.099905  0  0.982179  0  0  0.108384  0  1.043087  0  0  0.111726  0  1.042041  0  0  0.100599  0.105952  0  1.044026  0
H  H20  1  0.91359765  0.10164118  0.93011987  1  0  0.086148  0  0.958896  0  0  0.094241  0  1.025128  0  0  0.096714  0  1.02398  0  0  0.098955  0.09244  0  1.025998  0
H  H21  1  0.08640236  0.89835956  0.06987990  1  0  0.086136  0  0.958894  0  0  0.094238  0  1.025113  0  0  0.09671  0  1.023969  0  0  0.098952  0.092438  0  1.025984  0
H  H22  1  0.86146858  0.97525175  0.15726570  1  0  0.089965  0  1.000397  0  0  0.096838  0  1.068244  0  0  0.099218  0  1.069018  0  0  0.091818  0.095119  0  1.067828  0
H  H23  1  0.13853042  0.02474808  0.84273482  1  0  0.089969  0  1.000387  0  0  0.09684  0  1.068236  0  0  0.099219  0  1.069011  0  0  0.091823  0.095123  0  1.067821  0
H  H24  1  0.55184286  0.81042245  0.85397932  1  0  0.088234  0  1.007721  0  0  0.093971  0  1.077952  0  0  0.097247  0  1.076624  0  0  0.090491  0.091689  0  1.078995  0
H  H25  1  0.44815814  0.18957738  0.14602123  1  0  0.088264  0  1.007692  0  0  0.094001  0  1.077918  0  0  0.097276  0  1.07659  0  0  0.0905  0.091718  0  1.07896  0
H  H26  1  0.32839448  0.72915647  0.93341596  1  0  0.0858  0  0.977414  0  0  0.095031  0  1.042025  0  0  0.096869  0  1.0422  0  0  0.097111  0.093764  0  1.04185  0
H  H27  1  0.67160551  0.27084336  0.06658418  1  0  0.085813  0  0.97741  0  0  0.095049  0  1.042016  0  0  0.096886  0  1.042194  0  0  0.097111  0.093781  0  1.041841  0
H  H28  1  0.30093941  0.53613397  0.91745517  1  0  0.091001  0  0.960077  0  0  0.101262  0  1.022326  0  0  0.103982  0  1.021498  0  0  0.098162  0.099091  0  1.023562  0
H  H29  1  0.69906160  0.46386677  0.08254421  1  0  0.090996  0  0.960057  0  0  0.101232  0  1.022336  0  0  0.103952  0  1.021508  0  0  0.098144  0.099062  0  1.02357  0
H  H30  1  0.50448839  0.42886528  0.82004521  1  0  0.090183  0  0.968992  0  0  0.098912  0  1.03417  0  0  0.101902  0  1.032209  0  0  0.103004  0.096757  0  1.035598  0
H  H31  1  0.49551161  0.57113546  0.17995376  1  0  0.090193  0  0.968998  0  0  0.098913  0  1.034171  0  0  0.101902  0  1.032211  0  0  0.103004  0.096758  0  1.035599  0
H  H32  1  0.60194263  0.02504852  0.11009516  1  0  0.102228  0  0.943452  0  0  0.115508  0  0.999744  0  0  0.11828  0  0.998196  0  0  0.108085  0.113515  0  1.000924  0
H  H33  1  0.39805737  0.97495131  0.88990418  1  0  0.102224  0  0.943449  0  0  0.115504  0  0.99974  0  0  0.118276  0  0.998193  0  0  0.108082  0.11351  0  1.000922  0
H  H34  1  0.59438348  0.81676793  0.27262026  1  0  0.088288  0  0.99607  0  0  0.096281  0  1.061736  0  0  0.097747  0  1.063791  0  0  0.096422  0.095228  0  1.060412  0
H  H35  1  0.40561651  0.18323190  0.72737908  1  0  0.088278  0  0.996071  0  0  0.096273  0  1.061734  0  0  0.097739  0  1.063788  0  0  0.096417  0.095209  0  1.06042  0
H  H36  1  0.68404392  0.64467810  0.20003672  1  0  0.095435  0  0.936229  0  0  0.107657  0  0.9919  0  0  0.110268  0  0.990585  0  0  0.104643  0.105783  0  0.992869  0
H  H37  1  0.31595609  0.35532264  0.79996226  1  0  0.095434  0  0.936202  0  0  0.107664  0  0.991875  0  0  0.110273  0  0.990566  0  0  0.104655  0.105791  0  0.992845  0
H  H38  1  0.76554569  0.67918248  0.97103555  1  0  0.088178  0  0.990318  0  0  0.094949  0  1.059273  0  0  0.097781  0  1.058906  0  0  0.091292  0.092933  0  1.05967  0
H  H39  1  0.23445530  0.32081735  0.02896341  1  0  0.088175  0  0.990337  0  0  0.094946  0  1.059295  0  0  0.097777  0  1.058928  0  0  0.091286  0.092929  0  1.05969  0
C  C40  1  0.83633009  0.59679021  0.39487654  1  0  0.666391  0  3.879766  0  0  0.615662  0  4.175808  0  0  0.649906  0  4.167225  0  0  0.209648  0.592376  0  4.180994  0
C  C41  1  0.16366891  0.40320962  0.60512478  1  0  0.666448  0  3.879766  0  0  0.615789  0  4.17571  0  0  0.650032  0  4.167127  0  0  0.209673  0.592502  0  4.1809  0
C  C42  1  0.71922927  0.67193160  0.43929864  1  0  -0.125671  0  3.735568  0  0  -0.109871  0  3.973955  0  0  -0.119737  0  3.997128  0  0  -0.024291  -0.103419  0  3.958409  0
C  C43  1  0.28076973  0.32806823  0.56070187  1  0  -0.125801  0  3.735617  0  0  -0.110015  0  3.974001  0  0  -0.11988  0  3.99717  0  0  -0.024325  -0.103562  0  3.958455  0
C  C44  1  0.72879853  0.79078143  0.43052736  1  0  0.054583  0  3.728519  0  0  0.067432  0  3.985287  0  0  0.071312  0  4.007729  0  0  -0.000934  0.064834  0  3.970131  0
C  C45  1  0.27120147  0.20921840  0.56947278  1  0  0.054635  0  3.728486  0  0  0.067463  0  3.985275  0  0  0.071342  0  4.007717  0  0  -0.000968  0.064865  0  3.970119  0
C  C46  1  0.61117351  0.85361463  0.47258979  1  0  -0.13081  0  3.759936  0  0  -0.1459  0  3.999835  0  0  -0.15135  0  4.021733  0  0  -0.100054  -0.142214  0  3.984875  0
C  C47  1  0.38882549  0.14638520  0.52741153  1  0  -0.130768  0  3.759879  0  0  -0.145861  0  3.999788  0  0  -0.15131  0  4.021685  0  0  -0.099994  -0.142173  0  3.984826  0
C  C48  1  0.48645600  0.80034515  0.52396652  1  0  -0.02337  0  3.733586  0  0  -0.033911  0  3.975481  0  0  -0.031905  0  3.993638  0  0  -0.078067  -0.034911  0  3.962919  0
C  C49  1  0.51354300  0.19965468  0.47603400  1  0  -0.023452  0  3.733508  0  0  -0.033988  0  3.975402  0  0  -0.031981  0  3.99356  0  0  -0.078115  -0.034988  0  3.962837  0
C  C50  1  0.47616742  0.68254600  0.53447978  1  0  -0.082904  0  3.758592  0  0  -0.096562  0  4.009884  0  0  -0.100021  0  4.029461  0  0  -0.09152  -0.094356  0  3.996935  0
C  C51  1  0.52383159  0.31745474  0.46552117  1  0  -0.082868  0  3.758555  0  0  -0.096531  0  4.009847  0  0  -0.09999  0  4.029423  0  0  -0.09152  -0.094325  0  3.996898  0
C  C52  1  0.59225637  0.62034549  0.49172302  1  0  -0.058971  0  3.748145  0  0  -0.083445  0  3.998293  0  0  -0.082166  0  4.018252  0  0  -0.081168  -0.084008  0  3.984545  0
C  C53  1  0.40774263  0.37965434  0.50827830  1  0  -0.058943  0  3.748184  0  0  -0.083411  0  3.998333  0  0  -0.082126  0  4.018298  0  0  -0.081171  -0.083976  0  3.984585  0
C  C54  1  0.87710254  0.12217390  0.20551264  1  0  0.052123  0  3.71613  0  0  0.064403  0  3.968255  0  0  0.068603  0  3.991386  0  0  0.001877  0.061667  0  3.952525  0
C  C55  1  0.12289746  0.87782684  0.79448633  1  0  0.052094  0  3.716159  0  0  0.064399  0  3.968246  0  0  0.068604  0  3.991368  0  0  0.001873  0.061663  0  3.952518  0
C  C56  1  0.89688481  0.24920934  0.15807167  1  0  -0.139861  0  3.774025  0  0  -0.122207  0  4.009875  0  0  -0.133662  0  4.034706  0  0  -0.027818  -0.114858  0  3.993761  0
C  C57  1  0.10311520  0.75079140  0.84192730  1  0  -0.139809  0  3.773921  0  0  -0.122164  0  4.009759  0  0  -0.133619  0  4.034587  0  0  -0.027805  -0.114815  0  3.993646  0
C  C58  1  0.93011924  0.31935886  0.02755082  1  0  -0.044127  0  3.723592  0  0  -0.069363  0  3.975087  0  0  -0.066912  0  3.993428  0  0  -0.078887  -0.070476  0  3.962257  0
C  C59  1  0.06988177  0.68064187  0.97244856  1  0  -0.044266  0  3.72358  0  0  -0.069519  0  3.975107  0  0  -0.067068  0  3.993444  0  0  -0.078946  -0.070632  0  3.962278  0
C  C60  1  0.93893268  0.26707251  0.94467980  1  0  -0.082988  0  3.744172  0  0  -0.09824  0  3.998539  0  0  -0.102082  0  4.017578  0  0  -0.096838  -0.095805  0  3.985554  0
C  C61  1  0.06106733  0.73292823  0.05531997  1  0  -0.08289  0  3.744111  0  0  -0.098137  0  3.998469  0  0  -0.101981  0  4.017512  0  0  -0.096813  -0.095703  0  3.985485  0
C  C62  1  0.91111878  0.14337732  0.99315912  1  0  -0.021236  0  3.738136  0  0  -0.037346  0  3.990209  0  0  -0.034639  0  4.007964  0  0  -0.079018  -0.038882  0  3.978103  0
C  C63  1  0.08888122  0.85662341  0.00684065  1  0  -0.021237  0  3.738117  0  0  -0.037356  0  3.990187  0  0  -0.034651  0  4.007942  0  0  -0.079016  -0.038893  0  3.978081  0
C  C64  1  0.88085462  0.07182512  0.12162789  1  0  -0.135302  0  3.773253  0  0  -0.150923  0  4.017775  0  0  -0.15721  0  4.040781  0  0  -0.100171  -0.14673  0  4.00221  0
C  C65  1  0.11914438  0.92817471  0.87837262  1  0  -0.135298  0  3.773261  0  0  -0.15092  0  4.017773  0  0  -0.157207  0  4.040778  0  0  -0.100159  -0.14673  0  4.002211  0
C  C66  1  0.87837847  0.30711113  0.24642462  1  0  0.650408  0  3.835706  0  0  0.599898  0  4.134227  0  0  0.633863  0  4.125928  0  0  0.224758  0.576211  0  4.140516  0
C  C67  1  0.12162153  0.69288870  0.75357472  1  0  0.650433  0  3.835654  0  0  0.599932  0  4.134164  0  0  0.633897  0  4.125862  0  0  0.224777  0.576246  0  4.140453  0
C  C68  1  0.75333771  0.48419104  0.72814389  1  0  0.679902  0  3.793541  0  0  0.628347  0  4.088235  0  0  0.663004  0  4.078634  0  0  0.2349  0.604836  0  4.094007  0
C  C69  1  0.24666329  0.51580969  0.27185550  1  0  0.679872  0  3.7936  0  0  0.628319  0  4.088281  0  0  0.662976  0  4.078683  0  0  0.234897  0.604807  0  4.094053  0
C  C70  1  0.64220781  0.55725133  0.78303589  1  0  -0.139238  0  3.743472  0  0  -0.121485  0  3.977442  0  0  -0.133521  0  4.002459  0  0  -0.025577  -0.113308  0  3.960247  0
C  C71  1  0.35779220  0.44274940  0.21696387  1  0  -0.139195  0  3.743485  0  0  -0.121439  0  3.977409  0  0  -0.133474  0  4.002425  0  0  -0.025558  -0.113261  0  3.960212  0
C  C72  1  0.65716540  0.66707187  0.79176400  1  0  0.059624  0  3.704149  0  0  0.07414  0  3.955532  0  0  0.078798  0  3.978425  0  0  0.001886  0.070973  0  3.940233  0
C  C73  1  0.34283560  0.33292796  0.20823655  1  0  0.059638  0  3.704148  0  0  0.074163  0  3.955513  0  0  0.078821  0  3.978404  0  0  0.001865  0.070994  0  3.940213  0
C  C74  1  0.54194082  0.72658628  0.84614733  1  0  -0.126467  0  3.762238  0  0  -0.144498  0  4.009255  0  0  -0.150419  0  4.03085  0  0  -0.099767  -0.140965  0  3.9951  0
C  C75  1  0.45806018  0.27341355  0.15385322  1  0  -0.126485  0  3.76223  0  0  -0.144509  0  4.009227  0  0  -0.150433  0  4.030822  0  0  -0.099757  -0.140979  0  3.995075  0
C  C76  1  0.41528694  0.68034595  0.89099135  1  0  -0.02051  0  3.735727  0  0  -0.036749  0  3.984566  0  0  -0.034325  0  4.003936  0  0  -0.081567  -0.038235  0  3.971575  0
C  C77  1  0.58471407  0.31965479  0.10900884  1  0  -0.020608  0  3.735763  0  0  -0.036859  0  3.984624  0  0  -0.034435  0  4.003995  0  0  -0.08164  -0.038344  0  3.971632  0
C  C78  1  0.39996675  0.57234710  0.88292575  1  0  -0.083955  0  3.765259  0  0  -0.100326  0  4.021728  0  0  -0.105388  0  4.044055  0  0  -0.095956  -0.097031  0  4.007148  0
C  C79  1  0.60003426  0.42765454  0.11707327  1  0  -0.083859  0  3.765305  0  0  -0.100224  0  4.021752  0  0  -0.105284  0  4.044078  0  0  -0.095848  -0.096928  0  4.007171  0
C  C80  1  0.51289497  0.51260894  0.82894941  1  0  -0.039185  0  3.73885  0  0  -0.062706  0  3.986574  0  0  -0.060543  0  4.007546  0  0  -0.077495  -0.063836  0  3.972084  0
C  C81  1  0.48710604  0.48739180  0.17104997  1  0  -0.039268  0  3.739005  0  0  -0.062749  0  3.986669  0  0  -0.060587  0  4.007643  0  0  -0.077536  -0.063879  0  3.972179  0
C  C82  1  0.73070828  0.87109702  0.90985743  1  0  0.050776  0  3.705688  0  0  0.063116  0  3.957883  0  0  0.067218  0  3.980879  0  0  0.000787  0.060364  0  3.942396  0
C  C83  1  0.26929173  0.12890371  0.09014233  1  0  0.050835  0  3.705755  0  0  0.063199  0  3.957924  0  0  0.067303  0  3.980919  0  0  0.000808  0.060448  0  3.942436  0
C  C84  1  0.68566230  0.96955880  0.95061465  1  0  -0.134698  0  3.763756  0  0  -0.118467  0  4.001703  0  0  -0.129275  0  4.025693  0  0  -0.026762  -0.11132  0  3.985655  0
C  C85  1  0.31433670  0.03044193  0.04938470  1  0  -0.134719  0  3.763832  0  0  -0.118513  0  4.001789  0  0  -0.129321  0  4.025781  0  0  -0.02676  -0.111367  0  3.98574  0
C  C86  1  0.63663895  0.94799328  0.08136985  1  0  -0.044768  0  3.724836  0  0  -0.069676  0  3.97548  0  0  -0.067582  0  3.994373  0  0  -0.079752  -0.070962  0  3.962763  0
C  C87  1  0.36336005  0.05200655  0.91862987  1  0  -0.044755  0  3.724865  0  0  -0.069655  0  3.975502  0  0  -0.067561  0  3.994399  0  0  -0.07974  -0.07094  0  3.962783  0
C  C88  1  0.63365314  0.83211468  0.17165763  1  0  -0.081176  0  3.76085  0  0  -0.097354  0  4.015083  0  0  -0.100469  0  4.035611  0  0  -0.096613  -0.095346  0  4.001268  0
C  C89  1  0.36634585  0.16788515  0.82834289  1  0  -0.08123  0  3.760872  0  0  -0.097398  0  4.01511  0  0  -0.100514  0  4.035639  0  0  -0.096671  -0.095381  0  4.0013  0
C  C90  1  0.68228713  0.73585904  0.13070044  1  0  -0.026072  0  3.729624  0  0  -0.040989  0  3.980266  0  0  -0.039177  0  3.998543  0  0  -0.078915  -0.041978  0  3.967709  0
C  C91  1  0.31771288  0.26414170  0.86929853  1  0  -0.025992  0  3.729491  0  0  -0.040931  0  3.980163  0  0  -0.039117  0  3.998436  0  0  -0.078887  -0.041919  0  3.967604  0
C  C92  1  0.72908027  0.75495540  0.00186969  1  0  -0.120373  0  3.760442  0  0  -0.138817  0  4.009928  0  0  -0.144803  0  4.033432  0  0  -0.09668  -0.134873  0  3.994079  0
C  C93  1  0.27091974  0.24504533  0.99812928  1  0  -0.120431  0  3.760425  0  0  -0.138881  0  4.009921  0  0  -0.144866  0  4.033425  0  0  -0.09669  -0.134936  0  3.994073  0
C  C94  1  0.69447543  0.09375798  0.85565819  1  0  0.652415  0  3.834849  0  0  0.60375  0  4.130898  0  0  0.63731  0  4.122776  0  0  0.226903  0.580769  0  4.135906  0
C  C95  1  0.30552458  0.90624276  0.14434158  1  0  0.652477  0  3.834784  0  0  0.603833  0  4.130812  0  0  0.63739  0  4.122695  0  0  0.226957  0.580856  0  4.135818  0
S  S96  1  0.88861945  0.85835079  0.36505918  1  0  -0.053432  0  2.564451  0  0  -0.061852  0  2.950818  0  0  -0.062096  0  2.947399  0  0  -0.007104  -0.061367  0  2.953007  0
S  S97  1  0.11137956  0.14164995  0.63494098  1  0  -0.053426  0  2.564395  0  0  -0.061838  0  2.950764  0  0  -0.062083  0  2.947344  0  0  -0.007099  -0.061354  0  2.952954  0
S  S98  1  0.85427137  0.03071955  0.36678706  1  0  0.03864  0  2.52794  0  0  0.029191  0  2.903877  0  0  0.030284  0  2.899442  0  0  0.062989  0.028612  0  2.906674  0
S  S99  1  0.14572863  0.96928028  0.63321307  1  0  0.03864  0  2.527942  0  0  0.029185  0  2.903869  0  0  0.030276  0  2.899432  0  0  0.062988  0.028605  0  2.906664  0
S  S100  1  0.81777688  0.72704788  0.73971483  1  0  -0.022394  0  2.547972  0  0  -0.03637  0  2.935245  0  0  -0.037828  0  2.933518  0  0  0.026927  -0.03554  0  2.937005  0
S  S101  1  0.18222413  0.27295286  0.26028456  1  0  -0.022413  0  2.54793  0  0  -0.036391  0  2.935195  0  0  -0.037849  0  2.933468  0  0  0.026921  -0.03556  0  2.936954  0
S  S102  1  0.78324872  0.89771137  0.74490016  1  0  0.033154  0  2.517095  0  0  0.022969  0  2.891452  0  0  0.023225  0  2.888921  0  0  0.055319  0.022894  0  2.893132  0
S  S103  1  0.21675127  0.10228846  0.25509998  1  0  0.033153  0  2.517062  0  0  0.022961  0  2.891407  0  0  0.023218  0  2.888876  0  0  0.055325  0.022887  0  2.893085  0
O  O104  1  0.81751798  0.50624228  0.37713739  1  0  -0.680889  0  2.016511  0  0  -0.62652  0  2.252049  0  0  -0.650474  0  2.239955  0  0  -0.381139  -0.609701  0  2.259836  0
O  O105  1  0.18248303  0.49375846  0.62286199  1  0  -0.680861  0  2.016577  0  0  -0.626517  0  2.252091  0  0  -0.650468  0  2.239996  0  0  -0.381113  -0.609698  0  2.259881  0
O  O106  1  0.95104312  0.62526974  0.37907627  1  0  -0.641834  0  2.060324  0  0  -0.583251  0  2.296561  0  0  -0.609161  0  2.287213  0  0  -0.352539  -0.565135  0  2.302563  0
O  O107  1  0.04895488  0.37472919  0.62092739  1  0  -0.641839  0  2.060321  0  0  -0.583269  0  2.296495  0  0  -0.609178  0  2.287142  0  0  -0.352532  -0.565153  0  2.302498  0
O  O108  1  0.84734976  0.24704529  0.36266518  1  0  -0.588674  0  2.01048  0  0  -0.537745  0  2.244915  0  0  -0.560487  0  2.237181  0  0  -0.352624  -0.521603  0  2.250068  0
O  O109  1  0.15265023  0.75295454  0.63733416  1  0  -0.588695  0  2.010457  0  0  -0.537776  0  2.244898  0  0  -0.560521  0  2.23717  0  0  -0.352642  -0.521629  0  2.250038  0
O  O110  1  0.89400837  0.42738730  0.19430130  1  0  -0.552287  0  2.089815  0  0  -0.502542  0  2.310323  0  0  -0.525042  0  2.292418  0  0  -0.328195  -0.486751  0  2.322414  0
O  O111  1  0.10599162  0.57261253  0.80569804  1  0  -0.552283  0  2.089813  0  0  -0.502542  0  2.310322  0  0  -0.525042  0  2.292416  0  0  -0.328194  -0.486752  0  2.322411  0
O  O112  1  0.73485105  0.39081164  0.71710614  1  0  -0.635644  0  1.993056  0  0  -0.583286  0  2.218782  0  0  -0.604497  0  2.207403  0  0  -0.350677  -0.568602  0  2.226374  0
O  O113  1  0.26514895  0.60918909  0.28289363  1  0  -0.635634  0  1.993094  0  0  -0.583287  0  2.218816  0  0  -0.604497  0  2.20744  0  0  -0.35069  -0.568603  0  2.226409  0
O  O114  1  0.87501580  0.52262419  0.69008821  1  0  -0.56994  0  2.167225  0  0  -0.513002  0  2.404244  0  0  -0.536373  0  2.390369  0  0  -0.334045  -0.49664  0  2.41329  0
O  O115  1  0.12498419  0.47737564  0.30991192  1  0  -0.569926  0  2.167238  0  0  -0.512996  0  2.404273  0  0  -0.53637  0  2.390404  0  0  -0.334035  -0.496634  0  2.413317  0
O  O116  1  0.74811572  0.11648805  0.73883417  1  0  -0.588915  0  1.995792  0  0  -0.538796  0  2.223302  0  0  -0.561091  0  2.215408  0  0  -0.360318  -0.52302  0  2.228328  0
O  O117  1  0.25188426  0.88351087  0.26116553  1  0  -0.588914  0  1.995801  0  0  -0.538796  0  2.223298  0  0  -0.561089  0  2.215403  0  0  -0.360311  -0.523022  0  2.228322  0
O  O118  1  0.64392731  0.17951388  0.90374155  1  0  -0.544687  0  2.098352  0  0  -0.493125  0  2.317626  0  0  -0.516024  0  2.305952  0  0  -0.324826  -0.477014  0  2.325383  0
O  O119  1  0.35607268  0.82048595  0.09625778  1  0  -0.544728  0  2.098271  0  0  -0.493186  0  2.317552  0  0  -0.516084  0  2.30588  0  0  -0.324862  -0.477076  0  2.32531  0
