# generated using pymatgen
data_TlPH12C16(N3O)2
_symmetry_space_group_name_H-M   'P 1'
_cell_length_a   8.26611629
_cell_length_b   8.56047683
_cell_length_c   13.75601809
_cell_angle_alpha   100.96520475
_cell_angle_beta   100.30089234
_cell_angle_gamma   95.58266282
_symmetry_Int_Tables_number   1
_chemical_formula_structural   TlPH12C16(N3O)2
_chemical_formula_sum   'Tl2 P2 H24 C32 N12 O4'
_cell_volume   931.50133774
_cell_formula_units_Z   2
loop_
 _symmetry_equiv_pos_site_id
 _symmetry_equiv_pos_as_xyz
  1  'x, y, z'
loop_
 _atom_site_type_symbol
 _atom_site_label
 _atom_site_symmetry_multiplicity
 _atom_site_fract_x
 _atom_site_fract_y
 _atom_site_fract_z
 _atom_site_occupancy
 _atom_site_hle17_bader_spin_density
 _atom_site_hle17_ddec_charge
 _atom_site_hle17_ddec_spin_density
 _atom_site_hle17_ddec_sum_bond_order
 _atom_site_hle17_magmom
 _atom_site_hse06_10hf_bader_spin_density
 _atom_site_hse06_10hf_ddec_charge
 _atom_site_hse06_10hf_ddec_spin_density
 _atom_site_hse06_10hf_ddec_sum_bond_order
 _atom_site_hse06_10hf_magmom
 _atom_site_hse06_bader_spin_density
 _atom_site_hse06_ddec_charge
 _atom_site_hse06_ddec_spin_density
 _atom_site_hse06_ddec_sum_bond_order
 _atom_site_hse06_magmom
 _atom_site_pbe_bader_spin_density
 _atom_site_pbe_cm5_charge
 _atom_site_pbe_ddec_charge
 _atom_site_pbe_ddec_spin_density
 _atom_site_pbe_ddec_sum_bond_order
 _atom_site_pbe_magmom
Tl  Tl0  1  0.28319242  0.91697712  0.22483617  1  0  0.695763  0  0.856985  0  0  0.541561  0  1.164762  0  0  0.573831  0  1.144243  0  0  0.367615  0.517726  0  1.179594  0
Tl  Tl1  1  0.71680651  0.08301847  0.77516185  1  0  0.695823  0  0.856932  0  0  0.54163  0  1.164689  0  0  0.573899  0  1.144172  0  0  0.36764  0.517798  0  1.179522  0
P  P2  1  0.74371740  0.86707745  0.16039576  1  0  1.388939  0  4.870807  0  0  1.204747  0  5.395325  0  0  1.259457  0  5.360526  0  0  0.482038  1.166905  0  5.418421  0
P  P3  1  0.25629084  0.13292290  0.83960452  1  0  1.388981  0  4.870581  0  0  1.204783  0  5.395108  0  0  1.259488  0  5.360309  0  0  0.482106  1.166941  0  5.418208  0
H  H4  1  0.92316852  0.15692747  0.51671724  1  0  0.118229  0  0.975401  0  0  0.131406  0  1.031463  0  0  0.134324  0  1.03095  0  0  0.106217  0.129328  0  1.031957  0
H  H5  1  0.07683062  0.84307767  0.48327895  1  0  0.118175  0  0.975452  0  0  0.131361  0  1.031511  0  0  0.134277  0  1.031  0  0  0.10619  0.129291  0  1.031993  0
H  H6  1  0.00749599  0.97174436  0.35102445  1  0  0.092622  0  0.969431  0  0  0.104248  0  1.036598  0  0  0.106489  0  1.034121  0  0  0.122229  0.102635  0  1.038336  0
H  H7  1  0.99250244  0.02825592  0.64896821  1  0  0.092562  0  0.969424  0  0  0.104176  0  1.036611  0  0  0.106417  0  1.034135  0  0  0.122229  0.102567  0  1.038351  0
H  H8  1  0.16347727  0.23654132  0.42633133  1  0  0.062361  0  0.955911  0  0  0.071854  0  1.019827  0  0  0.073818  0  1.018451  0  0  0.107503  0.070407  0  1.02087  0
H  H9  1  0.83652129  0.76345199  0.57367221  1  0  0.062463  0  0.955943  0  0  0.07196  0  1.019837  0  0  0.073927  0  1.018458  0  0  0.107526  0.070513  0  1.020879  0
H  H10  1  0.24852465  0.41547668  0.59868160  1  0  0.103217  0  0.93213  0  0  0.117123  0  0.98303  0  0  0.120588  0  0.981839  0  0  0.108653  0.11462  0  0.98404  0
H  H11  1  0.75147640  0.58452492  0.40131804  1  0  0.103241  0  0.932162  0  0  0.117147  0  0.983058  0  0  0.120611  0  0.981868  0  0  0.108663  0.114643  0  0.984068  0
H  H12  1  0.54867810  0.45371777  0.68553643  1  0  0.088939  0  0.970529  0  0  0.100185  0  1.029343  0  0  0.101645  0  1.030117  0  0  0.104741  0.099092  0  1.02886  0
H  H13  1  0.45132472  0.54628741  0.31446308  1  0  0.088922  0  0.970511  0  0  0.100162  0  1.02933  0  0  0.101619  0  1.03011  0  0  0.104739  0.099072  0  1.02885  0
H  H14  1  0.74883256  0.31492154  0.59565821  1  0  0.097452  0  0.952403  0  0  0.113274  0  1.003707  0  0  0.116206  0  1.003269  0  0  0.106519  0.111147  0  1.004227  0
H  H15  1  0.25117498  0.68508241  0.40434240  1  0  0.097461  0  0.952472  0  0  0.113334  0  1.003713  0  0  0.116239  0  1.003301  0  0  0.106548  0.111205  0  1.004235  0
H  H16  1  0.63320825  0.08648378  0.01599114  1  0  0.126596  0  0.956025  0  0  0.135174  0  1.019814  0  0  0.13834  0  1.017034  0  0  0.12762  0.132838  0  1.021803  0
H  H17  1  0.36678386  0.91352390  0.98400819  1  0  0.126629  0  0.95601  0  0  0.135234  0  1.019739  0  0  0.138391  0  1.01696  0  0  0.127646  0.132898  0  1.021727  0
H  H18  1  0.87648682  0.30661699  0.98959766  1  0  0.114039  0  0.986313  0  0  0.128037  0  1.042323  0  0  0.1305  0  1.0424  0  0  0.106277  0.126326  0  1.042316  0
H  H19  1  0.12351264  0.69338227  0.01040446  1  0  0.114048  0  0.986307  0  0  0.128044  0  1.042318  0  0  0.130508  0  1.042396  0  0  0.106259  0.126334  0  1.04231  0
H  H20  1  0.58445273  0.22900509  0.21198581  1  0  0.069377  0  0.967739  0  0  0.07391  0  1.03623  0  0  0.076614  0  1.034298  0  0  0.108106  0.071973  0  1.037619  0
H  H21  1  0.41554529  0.77098467  0.78802019  1  0  0.069394  0  0.967689  0  0  0.073923  0  1.036185  0  0  0.076631  0  1.034251  0  0  0.108093  0.071986  0  1.037576  0
H  H22  1  0.65267576  0.48578054  0.15377997  1  0  0.113051  0  0.949116  0  0  0.124602  0  1.004938  0  0  0.128273  0  1.003552  0  0  0.10715  0.121927  0  1.006126  0
H  H23  1  0.34732315  0.51421521  0.84622606  1  0  0.113089  0  0.949135  0  0  0.124647  0  1.00495  0  0  0.12833  0  1.003549  0  0  0.107147  0.121962  0  1.006146  0
H  H24  1  0.41983084  0.60635980  0.06793815  1  0  0.107236  0  0.978947  0  0  0.118071  0  1.03675  0  0  0.120593  0  1.03601  0  0  0.106816  0.116239  0  1.037278  0
H  H25  1  0.58017565  0.39364535  0.93206175  1  0  0.107162  0  0.979087  0  0  0.118023  0  1.03685  0  0  0.120548  0  1.036111  0  0  0.106821  0.116191  0  1.037378  0
H  H26  1  0.12802277  0.46406583  0.04001114  1  0  0.097181  0  0.967978  0  0  0.111452  0  1.024652  0  0  0.114529  0  1.023156  0  0  0.104715  0.109213  0  1.025919  0
H  H27  1  0.87198915  0.53592592  0.95998133  1  0  0.097204  0  0.96788  0  0  0.111503  0  1.024532  0  0  0.114573  0  1.023048  0  0  0.10475  0.109281  0  1.025779  0
C  C28  1  0.67334754  0.11417671  0.41046002  1  0  0.128179  0  3.794561  0  0  0.119819  0  4.052639  0  0  0.126128  0  4.070695  0  0  0.098527  0.115828  0  4.040079  0
C  C29  1  0.32665543  0.88582135  0.58954307  1  0  0.128265  0  3.794357  0  0  0.119925  0  4.052415  0  0  0.126235  0  4.070467  0  0  0.09858  0.115934  0  4.039855  0
C  C30  1  0.84436602  0.10454665  0.44367028  1  0  -0.244707  0  3.754447  0  0  -0.264388  0  4.013406  0  0  -0.273615  0  4.033846  0  0  -0.115755  -0.25825  0  3.99939  0
C  C31  1  0.15563222  0.89545252  0.55632660  1  0  -0.244752  0  3.754327  0  0  -0.264453  0  4.0133  0  0  -0.273679  0  4.03374  0  0  -0.115779  -0.258324  0  3.999277  0
C  C32  1  0.89038014  0.01140337  0.36214616  1  0  0.045802  0  3.715447  0  0  -0.004941  0  3.981955  0  0  0.004443  0  3.996625  0  0  0.021715  -0.010769  0  3.971629  0
C  C33  1  0.10961987  0.98859932  0.63784767  1  0  0.04598  0  3.715322  0  0  -0.004763  0  3.981874  0  0  0.004619  0  3.996539  0  0  0.021722  -0.010599  0  3.971555  0
C  C34  1  0.29228597  0.25478229  0.46698786  1  0  0.119542  0  3.765206  0  0  0.09489  0  4.021659  0  0  0.100912  0  4.039967  0  0  0.040701  0.090977  0  4.009077  0
C  C35  1  0.70771594  0.74521698  0.53301598  1  0  0.119416  0  3.765187  0  0  0.094759  0  4.021636  0  0  0.100781  0  4.039945  0  0  0.040733  0.09085  0  4.009052  0
C  C36  1  0.33968708  0.35557697  0.56268772  1  0  -0.119784  0  3.737228  0  0  -0.135591  0  3.990353  0  0  -0.141377  0  4.010673  0  0  -0.087228  -0.131872  0  3.976616  0
C  C37  1  0.66031484  0.64442223  0.43731247  1  0  -0.119833  0  3.737097  0  0  -0.135637  0  3.990229  0  0  -0.141422  0  4.010545  0  0  -0.087265  -0.131918  0  3.976494  0
C  C38  1  0.50618017  0.37658134  0.61068701  1  0  -0.0009  0  3.748421  0  0  -0.016844  0  3.994785  0  0  -0.01386  0  4.015015  0  0  -0.068643  -0.018526  0  3.980847  0
C  C39  1  0.49381755  0.62342270  0.38931326  1  0  -0.000826  0  3.74831  0  0  -0.016774  0  3.994692  0  0  -0.013787  0  4.014912  0  0  -0.06862  -0.018462  0  3.98076  0
C  C40  1  0.61730532  0.29773910  0.56101282  1  0  -0.172936  0  3.747733  0  0  -0.188398  0  3.988484  0  0  -0.19639  0  4.010982  0  0  -0.086241  -0.183117  0  3.973317  0
C  C41  1  0.38270049  0.70226969  0.43898886  1  0  -0.172987  0  3.74803  0  0  -0.188485  0  3.988753  0  0  -0.196449  0  4.011259  0  0  -0.086283  -0.183203  0  3.973585  0
C  C42  1  0.55897422  0.19735406  0.46515943  1  0  0.19607  0  3.790804  0  0  0.195763  0  4.034638  0  0  0.202412  0  4.053805  0  0  0.121974  0.191204  0  4.021585  0
C  C43  1  0.44103015  0.80264515  0.53484249  1  0  0.196062  0  3.791158  0  0  0.195754  0  4.034977  0  0  0.202403  0  4.054137  0  0  0.121992  0.191195  0  4.021921  0
C  C44  1  0.76466157  0.10996427  0.04939120  1  0  0.048734  0  3.669385  0  0  -5.7e-05  0  3.932992  0  0  0.008818  0  3.948535  0  0  0.024436  -0.005502  0  3.922157  0
C  C45  1  0.23533370  0.89003976  0.95060735  1  0  0.048729  0  3.669517  0  0  -6e-05  0  3.933089  0  0  0.008827  0  3.948625  0  0  0.024414  -0.005504  0  3.922257  0
C  C46  1  0.88892410  0.22041489  0.03774846  1  0  -0.228248  0  3.729857  0  0  -0.244404  0  3.980832  0  0  -0.254  0  4.001913  0  0  -0.106616  -0.238013  0  3.966307  0
C  C47  1  0.11107712  0.77958796  0.96225425  1  0  -0.228394  0  3.729744  0  0  -0.24454  0  3.980751  0  0  -0.254138  0  4.001828  0  0  -0.106646  -0.238147  0  3.966224  0
C  C48  1  0.03647633  0.19257194  0.09908265  1  0  0.140836  0  3.791239  0  0  0.132497  0  4.04846  0  0  0.139509  0  4.066065  0  0  0.099718  0.127999  0  4.036252  0
C  C49  1  0.96352227  0.80742962  0.90091381  1  0  0.141003  0  3.791067  0  0  0.132587  0  4.048368  0  0  0.139598  0  4.065974  0  0  0.099773  0.128092  0  4.036152  0
C  C50  1  0.48743163  0.28628745  0.17342211  1  0  0.122326  0  3.744331  0  0  0.094809  0  4.004268  0  0  0.101174  0  4.021168  0  0  0.043021  0.090655  0  3.992643  0
C  C51  1  0.51256921  0.71370461  0.82658009  1  0  0.122377  0  3.744298  0  0  0.094839  0  4.004285  0  0  0.101199  0  4.021187  0  0  0.04307  0.090686  0  3.992657  0
C  C52  1  0.52484167  0.42815751  0.14144069  1  0  -0.126062  0  3.728878  0  0  -0.137766  0  3.976153  0  0  -0.143824  0  3.995675  0  0  -0.086152  -0.133824  0  3.963031  0
C  C53  1  0.47515655  0.57183328  0.85855672  1  0  -0.12632  0  3.728823  0  0  -0.138047  0  3.976102  0  0  -0.144116  0  3.995622  0  0  -0.086274  -0.134094  0  3.962981  0
C  C54  1  0.39392159  0.49472097  0.09287962  1  0  -0.024472  0  3.74924  0  0  -0.040844  0  3.996668  0  0  -0.038506  0  4.016201  0  0  -0.072339  -0.042053  0  3.983212  0
C  C55  1  0.60608892  0.50527820  0.90712296  1  0  -0.024358  0  3.749087  0  0  -0.040696  0  3.996452  0  0  -0.038351  0  4.015967  0  0  -0.072327  -0.041903  0  3.982995  0
C  C56  1  0.23320569  0.41701596  0.07845197  1  0  -0.147352  0  3.725835  0  0  -0.16414  0  3.966789  0  0  -0.170566  0  3.986999  0  0  -0.082174  -0.159921  0  3.953218  0
C  C57  1  0.76681097  0.58298313  0.92154983  1  0  -0.147236  0  3.725403  0  0  -0.164105  0  3.966396  0  0  -0.170528  0  3.986609  0  0  -0.082096  -0.159899  0  3.952823  0
C  C58  1  0.20555375  0.27505480  0.11329015  1  0  0.191766  0  3.787609  0  0  0.192086  0  4.026308  0  0  0.199086  0  4.044719  0  0  0.122771  0.187299  0  4.013773  0
C  C59  1  0.79444589  0.72494559  0.88670848  1  0  0.191578  0  3.787805  0  0  0.191986  0  4.026426  0  0  0.198987  0  4.044836  0  0  0.12277  0.187196  0  4.013896  0
N  N60  1  0.75329301  0.97037633  0.28590487  1  0  -0.1961  0  3.522663  0  0  -0.101296  0  3.754134  0  0  -0.118794  0  3.776686  0  0  -0.146496  -0.089709  0  3.738855  0
N  N61  1  0.24669980  0.02962772  0.71409342  1  0  -0.196198  0  3.522702  0  0  -0.10139  0  3.754185  0  0  -0.118877  0  3.776715  0  0  -0.14649  -0.089803  0  3.738902  0
N  N62  1  0.62083262  0.03341871  0.31429006  1  0  -0.249997  0  3.011231  0  0  -0.216488  0  3.269592  0  0  -0.22559  0  3.28717  0  0  -0.203628  -0.209977  0  3.257457  0
N  N63  1  0.37916035  0.96658666  0.68571420  1  0  -0.250064  0  3.011394  0  0  -0.216564  0  3.269755  0  0  -0.225669  0  3.287331  0  0  -0.203668  -0.210052  0  3.257618  0
N  N64  1  0.39711533  0.17553882  0.41920483  1  0  -0.349776  0  3.0963  0  0  -0.301444  0  3.355462  0  0  -0.316221  0  3.37321  0  0  -0.304097  -0.291104  0  3.343169  0
N  N65  1  0.60288341  0.82445570  0.58079959  1  0  -0.349748  0  3.096396  0  0  -0.301416  0  3.355549  0  0  -0.316194  0  3.373301  0  0  -0.304146  -0.291076  0  3.343256  0
N  N66  1  0.83794175  0.02235005  0.11452331  1  0  -0.202116  0  3.527972  0  0  -0.10652  0  3.762692  0  0  -0.124721  0  3.786198  0  0  -0.147817  -0.09446  0  3.746731  0
N  N67  1  0.16205703  0.97765274  0.88547476  1  0  -0.202086  0  3.52816  0  0  -0.106467  0  3.762838  0  0  -0.124668  0  3.786344  0  0  -0.147812  -0.094413  0  3.746889  0
N  N68  1  0.00346891  0.07277106  0.14593118  1  0  -0.280791  0  2.986155  0  0  -0.25047  0  3.246857  0  0  -0.260437  0  3.265592  0  0  -0.215194  -0.24333  0  3.233885  0
N  N69  1  0.99652915  0.92722688  0.85406409  1  0  -0.280848  0  2.986184  0  0  -0.250521  0  3.246905  0  0  -0.260488  0  3.26564  0  0  -0.215225  -0.243381  0  3.233935  0
N  N70  1  0.33263486  0.21091269  0.16022206  1  0  -0.346323  0  3.120492  0  0  -0.288109  0  3.378863  0  0  -0.304033  0  3.396133  0  0  -0.30162  -0.276929  0  3.366777  0
N  N71  1  0.66735826  0.78907699  0.83977757  1  0  -0.346219  0  3.120735  0  0  -0.288014  0  3.379083  0  0  -0.303937  0  3.396354  0  0  -0.301662  -0.276834  0  3.366999  0
O  O72  1  0.56613178  0.84216494  0.10884245  1  0  -0.785767  0  1.914877  0  0  -0.71126  0  2.166718  0  0  -0.737689  0  2.151744  0  0  -0.34525  -0.692574  0  2.176467  0
O  O73  1  0.43385576  0.15783675  0.89115500  1  0  -0.785771  0  1.915213  0  0  -0.711259  0  2.167034  0  0  -0.737685  0  2.152063  0  0  -0.345273  -0.692575  0  2.176783  0
O  O74  1  0.85870557  0.74555334  0.16887060  1  0  -0.792903  0  1.834214  0  0  -0.732544  0  2.073428  0  0  -0.758067  0  2.058226  0  0  -0.369807  -0.714406  0  2.083285  0
O  O75  1  0.14127356  0.25444954  0.83112242  1  0  -0.792945  0  1.833732  0  0  -0.732591  0  2.072926  0  0  -0.758116  0  2.057732  0  0  -0.369847  -0.71445  0  2.082778  0
