# generated using pymatgen
data_ZnH16C22N3O4
_symmetry_space_group_name_H-M   'P 1'
_cell_length_a   9.94047899
_cell_length_b   10.82581389
_cell_length_c   15.39066386
_cell_angle_alpha   84.86496959
_cell_angle_beta   89.25846129
_cell_angle_gamma   88.76133330
_symmetry_Int_Tables_number   1
_chemical_formula_structural   ZnH16C22N3O4
_chemical_formula_sum   'Zn2 H32 C44 N6 O8'
_cell_volume   1649.11390848
_cell_formula_units_Z   2
loop_
 _symmetry_equiv_pos_site_id
 _symmetry_equiv_pos_as_xyz
  1  'x, y, z'
loop_
 _atom_site_type_symbol
 _atom_site_label
 _atom_site_symmetry_multiplicity
 _atom_site_fract_x
 _atom_site_fract_y
 _atom_site_fract_z
 _atom_site_occupancy
 _atom_site_pbe_bader_charge
 _atom_site_pbe_bader_spin_density
 _atom_site_pbe_cm5_charge
 _atom_site_pbe_ddec_charge
 _atom_site_pbe_ddec_spin_density
 _atom_site_pbe_ddec_sum_bond_order
 _atom_site_pbe_magmom
Zn  Zn0  1  0.65056249  0.50614964  0.49700998  1  1.297708  0  0.689578  0.857704  0  2.297733  0
Zn  Zn1  1  0.34942127  0.49385609  0.50302790  1  1.298338  0  0.689642  0.857857  0  2.297816  0
H  H2  1  0.47472415  0.80639227  0.07207168  1  0.089782  0  0.107599  0.114197  0  1.014153  0
H  H3  1  0.52535251  0.19360533  0.92794587  1  0.089934  0  0.107571  0.114169  0  1.014105  0
H  H4  1  0.55163776  0.87307401  0.85064279  1  0.078471  0  0.103663  0.149066  0  0.982397  0
H  H5  1  0.37784210  0.88839052  0.87065757  1  0.08894  0  0.104431  0.151982  0  0.983174  0
H  H6  1  0.49373690  0.92968780  0.94953694  1  0.012647  0  0.091565  0.125598  0  1.020486  0
H  H7  1  0.44840678  0.12692272  0.14936461  1  0.078063  0  0.10366  0.149049  0  0.982653  0
H  H8  1  0.50632331  0.07032293  0.05047031  1  0.013234  0  0.091642  0.125662  0  1.020423  0
H  H9  1  0.62221210  0.11165259  0.12935005  1  0.088327  0  0.104505  0.152269  0  0.982957  0
H  H10  1  0.22148404  0.82646816  0.46182490  1  0.055545  0  0.088898  0.138301  0  1.038556  0
H  H11  1  0.17199969  0.98226703  0.43057267  1  0.019386  0  0.086764  0.120654  0  1.020036  0
H  H12  1  0.26604920  0.89592827  0.35686321  1  0.054044  0  0.084227  0.122163  0  1.028888  0
H  H13  1  0.77853676  0.17351772  0.53816630  1  0.055707  0  0.088877  0.13824  0  1.038575  0
H  H14  1  0.73395898  0.10410623  0.64314318  1  0.053919  0  0.084187  0.12204  0  1.029015  0
H  H15  1  0.82800861  0.01772708  0.56945524  1  0.019495  0  0.086711  0.120637  0  1.019885  0
H  H16  1  0.34912627  0.26118346  0.38997146  1  0.055607  0  0.083359  0.123523  0  1.055637  0
H  H17  1  0.27408243  0.13001675  0.35147796  1  0.029307  0  0.086704  0.120459  0  1.007544  0
H  H18  1  0.21374120  0.18916182  0.44855587  1  0.026208  0  0.087095  0.123578  0  0.998716  0
H  H19  1  0.65087911  0.73881122  0.61003369  1  0.055619  0  0.083355  0.123514  0  1.055635  0
H  H20  1  0.78626218  0.81083297  0.55144474  1  0.026226  0  0.087124  0.123616  0  0.998654  0
H  H21  1  0.72592587  0.86998066  0.64853029  1  0.02912  0  0.086693  0.120449  0  1.007655  0
H  H22  1  0.24052086  0.30463357  0.59746052  1  0.126387  0  0.105709  0.168924  0  1.041434  0
H  H23  1  0.14526814  0.35874512  0.68535811  1  0.093112  0  0.1033  0.154408  0  0.972945  0
H  H24  1  0.08280664  0.23878016  0.62651417  1  0.04834  0  0.104359  0.14808  0  0.980419  0
H  H25  1  0.75942626  0.69533007  0.40251276  1  0.126049  0  0.105662  0.168882  0  1.041497  0
H  H26  1  0.91712351  0.76123879  0.37350065  1  0.050166  0  0.104361  0.148135  0  0.980269  0
H  H27  1  0.85477109  0.64126306  0.31463511  1  0.093231  0  0.103288  0.15448  0  0.972823  0
H  H28  1  0.24777716  0.64917470  0.37650962  1  0.126924  0  0.102985  0.1544  0  1.045116  0
H  H29  1  0.16758788  0.54963166  0.30979301  1  0.049678  0  0.104243  0.156329  0  0.969456  0
H  H30  1  0.09466792  0.69762905  0.32498375  1  0.054098  0  0.100249  0.142699  0  1.010605  0
H  H31  1  0.75230769  0.35065796  0.62347583  1  0.127613  0  0.102943  0.154494  0  1.045209  0
H  H32  1  0.90540810  0.30260052  0.67516127  1  0.062761  0  0.100041  0.142751  0  1.010508  0
H  H33  1  0.83210340  0.45051388  0.69014032  1  0.052528  0  0.104487  0.156507  0  0.969872  0
C  C34  1  0.47305154  0.73582444  0.49102879  1  1.545013  0  0.229851  0.623068  0  4.094563  0
C  C35  1  0.52694247  0.26417598  0.50900214  1  1.544923  0  0.229651  0.623316  0  4.094601  0
C  C36  1  0.52554241  0.48773515  0.32873970  1  1.649842  0  0.215143  0.583231  0  4.236707  0
C  C37  1  0.47443612  0.51227922  0.67128543  1  1.650902  0  0.215596  0.583785  0  4.236101  0
C  C38  1  0.50941962  0.39903791  0.81896209  1  0.161361  0  0.010384  -0.012385  0  4.045019  0
C  C39  1  0.49057967  0.60095746  0.18105087  1  0.161006  0  0.010424  -0.012216  0  4.045048  0
C  C40  1  0.48402546  0.51164242  0.76935840  1  0.052456  0  0.020195  -0.049466  0  3.90052  0
C  C41  1  0.51598071  0.48835751  0.23065883  1  0.051586  0  0.020297  -0.049359  0  3.900197  0
C  C42  1  0.46518557  0.62140730  0.81112925  1  0.097845  0  0.014221  0.000875  0  4.014239  0
C  C43  1  0.53484676  0.37859176  0.18889240  1  0.098654  0  0.014162  0.000941  0  4.014757  0
C  C44  1  0.47860187  0.62205504  0.90330309  1  0.032534  0  0.014842  -0.000459  0  3.913007  0
C  C45  1  0.52144550  0.37794603  0.09671642  1  0.023081  0  0.014879  -0.000433  0  3.913258  0
C  C46  1  0.49714615  0.50460900  0.95351450  1  -0.071052  0  0.002704  -0.0041  0  3.950006  0
C  C47  1  0.50291642  0.49538954  0.04649919  1  0.027343  0  0.002731  -0.004247  0  3.950005  0
C  C48  1  0.51072032  0.39308358  0.91137478  1  -0.006766  0  0.008223  0.064012  0  4.034132  0
C  C49  1  0.48932520  0.60691302  0.08863782  1  -0.006793  0  0.00826  0.063986  0  4.034178  0
C  C50  1  0.47500818  0.73407959  0.94802227  1  -0.002076  0  0.006766  0.150801  0  3.944207  0
C  C51  1  0.52502708  0.26592335  0.05199332  1  -0.002579  0  0.006884  0.150912  0  3.944297  0
C  C52  1  0.47813265  0.72252856  0.03758582  1  -0.037603  0  -0.085939  -0.191686  0  3.946429  0
C  C53  1  0.52192085  0.27746988  0.96242924  1  -0.037489  0  -0.085834  -0.191518  0  3.946403  0
C  C54  1  0.38182734  0.95619231  0.46297623  1  0.017203  0  -0.001821  0.10721  0  3.898178  0
C  C55  1  0.61817280  0.04380761  0.53703974  1  0.016555  0  -0.001853  0.107201  0  3.898119  0
C  C56  1  0.40338809  0.08448596  0.46085571  1  0.028697  0  -0.004103  0.096235  0  3.903075  0
C  C57  1  0.59661095  0.91551672  0.53916078  1  0.029315  0  -0.004152  0.09634  0  3.902728  0
C  C58  1  0.51897649  0.12756419  0.50046414  1  -0.023934  0  -0.012897  -0.140037  0  3.894794  0
C  C59  1  0.48102565  0.87243570  0.49955377  1  -0.024214  0  -0.012981  -0.140062  0  3.894588  0
C  C60  1  0.06777899  0.41908682  0.55832796  1  0.519127  0  0.13657  0.233001  0  3.885943  0
C  C61  1  0.93220434  0.58093609  0.44169087  1  0.517987  0  0.136603  0.233012  0  3.886236  0
C  C62  1  0.07224969  0.55992483  0.43371607  1  0.491743  0  0.13552  0.233661  0  3.884916  0
C  C63  1  0.92773690  0.44012199  0.56630999  1  0.484318  0  0.13553  0.233778  0  3.884433  0
C  C64  1  0.53204823  0.28837828  0.77681208  1  0.790168  0  0.183672  0.241543  0  4.016674  0
C  C65  1  0.46793804  0.71161408  0.22320631  1  0.790421  0  0.183613  0.241328  0  4.016928  0
C  C66  1  0.42382850  0.72835867  0.75631267  1  0.815702  0  0.179832  0.228071  0  4.02365  0
C  C67  1  0.57617969  0.27164023  0.24370915  1  0.81573  0  0.179707  0.227907  0  4.023507  0
C  C68  1  0.47414613  0.86262371  0.90209181  1  -0.067561  0  -0.234033  -0.420592  0  3.961799  0
C  C69  1  0.52590000  0.13738581  0.09792273  1  -0.066469  0  -0.234274  -0.421061  0  3.962059  0
C  C70  1  0.25305119  0.91279414  0.42602800  1  -0.063178  0  -0.252196  -0.420167  0  3.979213  0
C  C71  1  0.74695601  0.08720597  0.57398272  1  -0.062778  0  -0.252053  -0.419961  0  3.978976  0
C  C72  1  0.30550762  0.17134532  0.41038237  1  -0.062608  0  -0.24892  -0.405633  0  3.990984  0
C  C73  1  0.69449764  0.82865301  0.58962520  1  -0.062446  0  -0.248859  -0.405632  0  3.990921  0
C  C74  1  0.13869294  0.32564224  0.62011111  1  -0.109667  0  -0.239426  -0.45859  0  3.935959  0
C  C75  1  0.86128021  0.67435422  0.37988896  1  -0.111602  0  -0.239405  -0.45885  0  3.935962  0
C  C76  1  0.14937354  0.61832951  0.35742893  1  -0.061994  0  -0.240751  -0.459934  0  3.947321  0
C  C77  1  0.85059735  0.38173658  0.64260017  1  -0.067391  0  -0.240694  -0.460374  0  3.947579  0
N  N78  1  0.86222200  0.51844070  0.50692625  1  -1.201864  0  -0.294122  -0.274312  0  3.401091  0
N  N79  1  0.13776709  0.48159157  0.49309013  1  -1.202656  0  -0.294057  -0.274633  0  3.401463  0
N  N80  1  0.55286396  0.19601473  0.74450055  1  -1.112909  0  -0.283634  -0.326477  0  2.706392  0
N  N81  1  0.44718539  0.80398834  0.25551365  1  -1.112903  0  -0.283604  -0.32631  0  2.706805  0
N  N82  1  0.38337292  0.81059268  0.70869770  1  -1.083858  0  -0.281929  -0.316828  0  2.69255  0
N  N83  1  0.61663670  0.18939018  0.29133531  1  -1.084008  0  -0.281734  -0.316664  0  2.691895  0
O  O84  1  0.58381818  0.68135202  0.47282776  1  -1.178162  0  -0.312327  -0.558491  0  2.450717  0
O  O85  1  0.41617874  0.31865327  0.52719511  1  -1.177787  0  -0.312315  -0.558804  0  2.450733  0
O  O86  1  0.63856506  0.32027180  0.49962884  1  -1.158276  0  -0.305306  -0.532237  0  2.372477  0
O  O87  1  0.36143003  0.67972470  0.50041073  1  -1.158204  0  -0.305511  -0.532308  0  2.372299  0
O  O88  1  0.64225261  0.49635824  0.35817545  1  -1.142315  0  -0.294111  -0.511536  0  2.287112  0
O  O89  1  0.35772599  0.50361880  0.64186000  1  -1.142764  0  -0.294193  -0.511541  0  2.286913  0
O  O90  1  0.58590886  0.51938496  0.63025283  1  -1.168037  0  -0.301463  -0.551253  0  2.333723  0
O  O91  1  0.41407739  0.48063960  0.36977435  1  -1.168085  0  -0.301237  -0.550875  0  2.334033  0
