# generated using pymatgen
data_H6PbC2N8O3
_symmetry_space_group_name_H-M   'P 1'
_cell_length_a   6.71564748
_cell_length_b   9.35125911
_cell_length_c   14.09598328
_cell_angle_alpha   89.99969241
_cell_angle_beta   90.00076865
_cell_angle_gamma   104.64009035
_symmetry_Int_Tables_number   1
_chemical_formula_structural   H6PbC2N8O3
_chemical_formula_sum   'H24 Pb4 C8 N32 O12'
_cell_volume   856.48339199
_cell_formula_units_Z   4
loop_
 _symmetry_equiv_pos_site_id
 _symmetry_equiv_pos_as_xyz
  1  'x, y, z'
loop_
 _atom_site_type_symbol
 _atom_site_label
 _atom_site_symmetry_multiplicity
 _atom_site_fract_x
 _atom_site_fract_y
 _atom_site_fract_z
 _atom_site_occupancy
 _atom_site_hle17_bader_spin_density
 _atom_site_hle17_ddec_charge
 _atom_site_hle17_ddec_spin_density
 _atom_site_hle17_ddec_sum_bond_order
 _atom_site_hle17_magmom
 _atom_site_hse06_10hf_bader_spin_density
 _atom_site_hse06_10hf_ddec_charge
 _atom_site_hse06_10hf_ddec_spin_density
 _atom_site_hse06_10hf_ddec_sum_bond_order
 _atom_site_hse06_10hf_magmom
 _atom_site_hse06_bader_spin_density
 _atom_site_hse06_ddec_charge
 _atom_site_hse06_ddec_spin_density
 _atom_site_hse06_ddec_sum_bond_order
 _atom_site_hse06_magmom
 _atom_site_pbe_bader_spin_density
 _atom_site_pbe_cm5_charge
 _atom_site_pbe_ddec_charge
 _atom_site_pbe_ddec_spin_density
 _atom_site_pbe_ddec_sum_bond_order
 _atom_site_pbe_magmom
H  H0  1  0.28445159  0.02326626  0.35484452  1  0  0.391112  0  0.925375  0  0  0.343937  0  1.015163  0  0  0.355594  0  0.998836  0  0  0.281718  0.335768  0  1.026531  0
H  H1  1  0.21556181  0.47673982  0.85484048  1  0  0.391198  0  0.925283  0  0  0.344015  0  1.015074  0  0  0.355671  0  0.998747  0  0  0.281746  0.335845  0  1.026441  0
H  H2  1  0.71554026  0.97674460  0.64515022  1  0  0.39113  0  0.925322  0  0  0.343962  0  1.015102  0  0  0.355621  0  0.998772  0  0  0.281761  0.335791  0  1.026471  0
H  H3  1  0.78442684  0.52326221  0.14515284  1  0  0.391137  0  0.925349  0  0  0.343948  0  1.015143  0  0  0.355604  0  0.998818  0  0  0.281702  0.335775  0  1.026514  0
H  H4  1  0.24706925  0.91006295  0.26865575  1  0  0.430175  0  0.850195  0  0  0.398981  0  0.923015  0  0  0.409165  0  0.908084  0  0  0.295401  0.3917  0  0.933678  0
H  H5  1  0.25293652  0.58993422  0.76865130  1  0  0.430199  0  0.850183  0  0  0.39901  0  0.92297  0  0  0.409198  0  0.908031  0  0  0.295411  0.391729  0  0.933633  0
H  H6  1  0.75294289  0.08994226  0.73134183  1  0  0.430182  0  0.850184  0  0  0.398988  0  0.92301  0  0  0.409178  0  0.908069  0  0  0.295372  0.391708  0  0.933672  0
H  H7  1  0.74706357  0.41005002  0.23133777  1  0  0.430212  0  0.850135  0  0  0.398992  0  0.923029  0  0  0.409186  0  0.908078  0  0  0.295368  0.39171  0  0.933691  0
H  H8  1  0.22237470  0.98098204  0.05258619  1  0  0.373086  0  0.954644  0  0  0.328767  0  1.041168  0  0  0.339643  0  1.025761  0  0  0.277783  0.321092  0  1.052014  0
H  H9  1  0.27762086  0.51901575  0.55258074  1  0  0.373079  0  0.954635  0  0  0.328745  0  1.041187  0  0  0.339622  0  1.02578  0  0  0.277746  0.321067  0  1.052037  0
H  H10  1  0.77761870  0.01901663  0.94742133  1  0  0.372989  0  0.954777  0  0  0.32864  0  1.041353  0  0  0.339519  0  1.025942  0  0  0.277702  0.320965  0  1.052198  0
H  H11  1  0.72238969  0.48098505  0.44742607  1  0  0.373  0  0.95475  0  0  0.328661  0  1.041302  0  0  0.33954  0  1.025892  0  0  0.277703  0.320984  0  1.052149  0
H  H12  1  0.04253337  0.83190475  0.05813995  1  0  0.374041  0  0.952418  0  0  0.328742  0  1.040399  0  0  0.339746  0  1.024767  0  0  0.275922  0.321014  0  1.051319  0
H  H13  1  0.45746972  0.66810516  0.55813156  1  0  0.374028  0  0.952457  0  0  0.328718  0  1.040438  0  0  0.339723  0  1.024804  0  0  0.275907  0.320986  0  1.051363  0
H  H14  1  0.95745163  0.16809951  0.94185906  1  0  0.374063  0  0.952422  0  0  0.328754  0  1.040413  0  0  0.33976  0  1.024778  0  0  0.27594  0.321027  0  1.051331  0
H  H15  1  0.54253557  0.33189344  0.44187099  1  0  0.374053  0  0.95242  0  0  0.328742  0  1.040401  0  0  0.339749  0  1.024764  0  0  0.27591  0.321014  0  1.051321  0
H  H16  1  0.50796817  0.13503803  0.23386802  1  0  0.427905  0  0.86487  0  0  0.397629  0  0.926052  0  0  0.408454  0  0.910442  0  0  0.288133  0.389988  0  0.937012  0
H  H17  1  0.99205300  0.36497409  0.73386905  1  0  0.427845  0  0.864949  0  0  0.397556  0  0.926159  0  0  0.408384  0  0.910544  0  0  0.28809  0.38991  0  0.937121  0
H  H18  1  0.49204987  0.86497933  0.76613737  1  0  0.427875  0  0.864942  0  0  0.397599  0  0.926122  0  0  0.408427  0  0.910507  0  0  0.288109  0.389952  0  0.937087  0
H  H19  1  0.00795366  0.63502008  0.26613421  1  0  0.427821  0  0.864976  0  0  0.397598  0  0.926063  0  0  0.408422  0  0.910455  0  0  0.288127  0.389965  0  0.937015  0
H  H20  1  0.58725143  0.21400644  0.13549330  1  0  0.383485  0  0.938482  0  0  0.338785  0  1.024956  0  0  0.350297  0  1.008743  0  0  0.280081  0.330651  0  1.036373  0
H  H21  1  0.91275214  0.28600160  0.63548985  1  0  0.383339  0  0.938626  0  0  0.338634  0  1.025136  0  0  0.350149  0  1.008921  0  0  0.28002  0.3305  0  1.036554  0
H  H22  1  0.41275815  0.78599989  0.86451493  1  0  0.383439  0  0.938499  0  0  0.338745  0  1.024986  0  0  0.350259  0  1.008772  0  0  0.280051  0.33061  0  1.036406  0
H  H23  1  0.08723692  0.71400153  0.36451128  1  0  0.383358  0  0.938591  0  0  0.33866  0  1.025087  0  0  0.350177  0  1.008868  0  0  0.280019  0.330528  0  1.036501  0
Pb  Pb24  1  0.93481720  0.06802067  0.20481304  1  0  1.265297  0  1.423939  0  0  1.062129  0  1.818098  0  0  1.119743  0  1.776505  0  0  0.653575  1.020441  0  1.84731  0
Pb  Pb25  1  0.56518478  0.43196948  0.70480109  1  0  1.265321  0  1.423879  0  0  1.062123  0  1.818053  0  0  1.119745  0  1.776456  0  0  0.653605  1.020434  0  1.847269  0
Pb  Pb26  1  0.06518552  0.93197905  0.79518738  1  0  1.265298  0  1.423955  0  0  1.062138  0  1.818089  0  0  1.119764  0  1.776495  0  0  0.653557  1.020448  0  1.847301  0
Pb  Pb27  1  0.43481542  0.56801919  0.29519082  1  0  1.26523  0  1.423962  0  0  1.062039  0  1.818135  0  0  1.119666  0  1.776549  0  0  0.653533  1.02035  0  1.847348  0
C  C28  1  0.78362356  0.02916140  0.44501225  1  0  0.230905  0  3.821058  0  0  0.203099  0  4.102981  0  0  0.212045  0  4.117713  0  0  0.22418  0.196983  0  4.093158  0
C  C29  1  0.71635710  0.47083379  0.94501037  1  0  0.230966  0  3.820798  0  0  0.203017  0  4.102772  0  0  0.211982  0  4.117475  0  0  0.224124  0.196908  0  4.09295  0
C  C30  1  0.21635755  0.97083623  0.55498533  1  0  0.230941  0  3.821256  0  0  0.203097  0  4.103084  0  0  0.212051  0  4.117805  0  0  0.224188  0.196993  0  4.093266  0
C  C31  1  0.28362847  0.52913502  0.05498864  1  0  0.231105  0  3.821138  0  0  0.203098  0  4.103252  0  0  0.21203  0  4.118013  0  0  0.224162  0.196987  0  4.093423  0
C  C32  1  0.91843855  0.17650978  0.44307640  1  0  0.229338  0  3.83089  0  0  0.203908  0  4.109964  0  0  0.213292  0  4.124443  0  0  0.222891  0.197535  0  4.100388  0
C  C33  1  0.58155818  0.32350526  0.94308342  1  0  0.229006  0  3.830808  0  0  0.20387  0  4.109611  0  0  0.21325  0  4.124085  0  0  0.222852  0.197476  0  4.100067  0
C  C34  1  0.08156394  0.82350988  0.55691551  1  0  0.229248  0  3.830776  0  0  0.204048  0  4.109577  0  0  0.213436  0  4.124049  0  0  0.222907  0.197647  0  4.10004  0
C  C35  1  0.41846397  0.67649879  0.05692339  1  0  0.229001  0  3.831212  0  0  0.203703  0  4.11025  0  0  0.213097  0  4.124731  0  0  0.222836  0.197323  0  4.100678  0
N  N36  1  0.73202947  0.94792054  0.36553734  1  0  -0.320443  0  3.063263  0  0  -0.274263  0  3.338647  0  0  -0.28942  0  3.356538  0  0  -0.195901  -0.263668  0  3.326181  0
N  N37  1  0.76798946  0.55208097  0.86553313  1  0  -0.320428  0  3.062958  0  0  -0.274248  0  3.338379  0  0  -0.28941  0  3.356265  0  0  -0.195896  -0.263659  0  3.325913  0
N  N38  1  0.26797319  0.05209137  0.63445740  1  0  -0.320619  0  3.063461  0  0  -0.274476  0  3.338871  0  0  -0.289634  0  3.356757  0  0  -0.196027  -0.263883  0  3.326405  0
N  N39  1  0.23203355  0.44791310  0.13445807  1  0  -0.320487  0  3.063533  0  0  -0.274283  0  3.338994  0  0  -0.289434  0  3.356893  0  0  -0.195992  -0.263695  0  3.32653  0
N  N40  1  0.61140547  0.81901985  0.39516549  1  0  -0.127134  0  3.110876  0  0  -0.089277  0  3.397742  0  0  -0.097147  0  3.41636  0  0  -0.078558  -0.083637  0  3.384885  0
N  N41  1  0.88863494  0.68097704  0.89516654  1  0  -0.127165  0  3.110717  0  0  -0.089299  0  3.397571  0  0  -0.097166  0  3.41619  0  0  -0.078591  -0.083658  0  3.384712  0
N  N42  1  0.38861125  0.18098977  0.60483493  1  0  -0.126905  0  3.110721  0  0  -0.089024  0  3.397553  0  0  -0.096892  0  3.416168  0  0  -0.078426  -0.083384  0  3.384698  0
N  N43  1  0.11137070  0.31900606  0.10483317  1  0  -0.12708  0  3.109877  0  0  -0.089219  0  3.396689  0  0  -0.097089  0  3.415305  0  0  -0.078486  -0.083579  0  3.383839  0
N  N44  1  0.59102996  0.82168559  0.48824939  1  0  -0.07405  0  3.063269  0  0  -0.049137  0  3.344485  0  0  -0.050273  0  3.358195  0  0  -0.074761  -0.04802  0  3.335016  0
N  N45  1  0.90896749  0.67832127  0.98825767  1  0  -0.073987  0  3.063007  0  0  -0.049066  0  3.34423  0  0  -0.050203  0  3.357942  0  0  -0.074751  -0.047952  0  3.334759  0
N  N46  1  0.40895458  0.17832975  0.51174536  1  0  -0.07417  0  3.063043  0  0  -0.049269  0  3.344279  0  0  -0.05041  0  3.357991  0  0  -0.074838  -0.048153  0  3.334814  0
N  N47  1  0.09101825  0.32166858  0.01172785  1  0  -0.073936  0  3.062202  0  0  -0.048982  0  3.343359  0  0  -0.050115  0  3.357065  0  0  -0.07474  -0.047869  0  3.333895  0
N  N48  1  0.69833355  0.95235570  0.52192007  1  0  -0.273049  0  3.011667  0  0  -0.238249  0  3.284801  0  0  -0.248996  0  3.297406  0  0  -0.196762  -0.230793  0  3.276237  0
N  N49  1  0.80164245  0.54764806  0.02192626  1  0  -0.273207  0  3.011233  0  0  -0.238366  0  3.28435  0  0  -0.249113  0  3.296949  0  0  -0.196795  -0.23091  0  3.275785  0
N  N50  1  0.30164750  0.04765412  0.47808248  1  0  -0.273062  0  3.011513  0  0  -0.238258  0  3.284642  0  0  -0.249003  0  3.297244  0  0  -0.196794  -0.230807  0  3.276082  0
N  N51  1  0.19834306  0.45236174  0.97807061  1  0  -0.273323  0  3.011466  0  0  -0.238448  0  3.284594  0  0  -0.249189  0  3.297203  0  0  -0.196837  -0.230995  0  3.276034  0
N  N52  1  0.97922478  0.26762868  0.51723585  1  0  -0.278901  0  3.010667  0  0  -0.246421  0  3.285883  0  0  -0.257367  0  3.297887  0  0  -0.199506  -0.238683  0  3.277696  0
N  N53  1  0.52074667  0.23236545  0.01724589  1  0  -0.27885  0  3.010086  0  0  -0.246513  0  3.285283  0  0  -0.257465  0  3.297291  0  0  -0.199515  -0.238764  0  3.277096  0
N  N54  1  0.02074862  0.73237232  0.48276032  1  0  -0.278825  0  3.010425  0  0  -0.24649  0  3.285652  0  0  -0.25744  0  3.297657  0  0  -0.199458  -0.238742  0  3.277471  0
N  N55  1  0.47923599  0.76761999  0.98276660  1  0  -0.278726  0  3.010462  0  0  -0.246369  0  3.285752  0  0  -0.257315  0  3.297752  0  0  -0.199473  -0.238627  0  3.277566  0
N  N56  1  0.11194370  0.38629224  0.48055213  1  0  -0.083591  0  3.098362  0  0  -0.058861  0  3.381888  0  0  -0.060786  0  3.395609  0  0  -0.076618  -0.057088  0  3.372215  0
N  N57  1  0.38803933  0.11370261  0.98055130  1  0  -0.083457  0  3.098253  0  0  -0.058726  0  3.381825  0  0  -0.060647  0  3.395546  0  0  -0.076528  -0.056956  0  3.372148  0
N  N58  1  0.88804022  0.61371313  0.51945184  1  0  -0.083564  0  3.098445  0  0  -0.058789  0  3.38195  0  0  -0.060716  0  3.395677  0  0  -0.076582  -0.057017  0  3.372273  0
N  N59  1  0.61195275  0.88628832  0.01945763  1  0  -0.083573  0  3.097803  0  0  -0.058773  0  3.381277  0  0  -0.060693  0  3.394996  0  0  -0.076624  -0.057006  0  3.371608  0
N  N60  1  0.12991122  0.36812227  0.38844797  1  0  -0.119862  0  3.115417  0  0  -0.082318  0  3.399465  0  0  -0.089203  0  3.417086  0  0  -0.077312  -0.077397  0  3.387251  0
N  N61  1  0.37009000  0.13188047  0.88844909  1  0  -0.119986  0  3.115519  0  0  -0.082439  0  3.399587  0  0  -0.089328  0  3.417212  0  0  -0.077356  -0.077516  0  3.387376  0
N  N62  1  0.87011579  0.63188286  0.61155529  1  0  -0.119625  0  3.115422  0  0  -0.082086  0  3.399454  0  0  -0.088975  0  3.417085  0  0  -0.077199  -0.077165  0  3.387236  0
N  N63  1  0.62991101  0.86811041  0.11156339  1  0  -0.119877  0  3.114679  0  0  -0.08235  0  3.398707  0  0  -0.089243  0  3.416332  0  0  -0.077235  -0.077432  0  3.386505  0
N  N64  1  0.00995091  0.23732200  0.36247164  1  0  -0.308343  0  3.077273  0  0  -0.261465  0  3.348103  0  0  -0.276796  0  3.36596  0  0  -0.195418  -0.251235  0  3.336051  0
N  N65  1  0.49004916  0.26269188  0.86247729  1  0  -0.308143  0  3.077066  0  0  -0.261334  0  3.347771  0  0  -0.276667  0  3.36563  0  0  -0.195359  -0.251101  0  3.335727  0
N  N66  1  0.99008868  0.76268084  0.63752666  1  0  -0.308478  0  3.077108  0  0  -0.261677  0  3.347885  0  0  -0.277009  0  3.36574  0  0  -0.19552  -0.251438  0  3.33584  0
N  N67  1  0.50994270  0.73729019  0.13752597  1  0  -0.308158  0  3.07717  0  0  -0.261285  0  3.347922  0  0  -0.27662  0  3.365783  0  0  -0.195376  -0.251054  0  3.335875  0
O  O68  1  0.27698312  0.01680489  0.28355115  1  0  -0.829621  0  1.897947  0  0  -0.755457  0  2.090263  0  0  -0.779856  0  2.059348  0  0  -0.555047  -0.737988  0  2.111456  0
O  O69  1  0.22302896  0.48319474  0.78354643  1  0  -0.829723  0  1.897963  0  0  -0.755555  0  2.090314  0  0  -0.779956  0  2.059399  0  0  -0.555093  -0.738087  0  2.111506  0
O  O70  1  0.72301932  0.98319816  0.71644998  1  0  -0.829681  0  1.897826  0  0  -0.75553  0  2.090155  0  0  -0.779947  0  2.059266  0  0  -0.555086  -0.73806  0  2.111344  0
O  O71  1  0.77696689  0.51679838  0.21645258  1  0  -0.829702  0  1.897857  0  0  -0.755526  0  2.090205  0  0  -0.779951  0  2.059332  0  0  -0.555021  -0.738053  0  2.111413  0
O  O72  1  0.12125617  0.91696265  0.09656375  1  0  -0.840786  0  1.92341  0  0  -0.7715  0  2.129636  0  0  -0.794893  0  2.09967  0  0  -0.587163  -0.754837  0  2.150484  0
O  O73  1  0.37875079  0.58304271  0.59656369  1  0  -0.840784  0  1.92334  0  0  -0.771469  0  2.129621  0  0  -0.794862  0  2.09965  0  0  -0.587127  -0.754804  0  2.150477  0
O  O74  1  0.87872871  0.08303717  0.90343312  1  0  -0.840732  0  1.923428  0  0  -0.771438  0  2.129682  0  0  -0.794831  0  2.099707  0  0  -0.587132  -0.754773  0  2.150526  0
O  O75  1  0.62127153  0.41695359  0.40343673  1  0  -0.840745  0  1.923284  0  0  -0.771412  0  2.129568  0  0  -0.794814  0  2.09961  0  0  -0.58709  -0.754747  0  2.150414  0
O  O76  1  0.62996747  0.20183519  0.20290344  1  0  -0.84953  0  1.891456  0  0  -0.778967  0  2.08244  0  0  -0.803176  0  2.050387  0  0  -0.562592  -0.761754  0  2.104705  0
O  O77  1  0.87003847  0.29816603  0.70290464  1  0  -0.849319  0  1.891605  0  0  -0.77875  0  2.082477  0  0  -0.802975  0  2.050458  0  0  -0.562473  -0.761528  0  2.104754  0
O  O78  1  0.37003628  0.79817561  0.79709698  1  0  -0.849434  0  1.891446  0  0  -0.778891  0  2.082358  0  0  -0.803125  0  2.050357  0  0  -0.562538  -0.761671  0  2.104637  0
O  O79  1  0.12997208  0.70183476  0.29709507  1  0  -0.849346  0  1.89153  0  0  -0.778823  0  2.082417  0  0  -0.803042  0  2.050393  0  0  -0.562534  -0.76162  0  2.104652  0
