# generated using pymatgen
data_CuH16C20S3(NO)4
_symmetry_space_group_name_H-M   'P 1'
_cell_length_a   10.80055026
_cell_length_b   11.83497525
_cell_length_c   12.11402265
_cell_angle_alpha   61.71566709
_cell_angle_beta   68.46295047
_cell_angle_gamma   83.80678574
_symmetry_Int_Tables_number   1
_chemical_formula_structural   CuH16C20S3(NO)4
_chemical_formula_sum   'Cu2 H32 C40 S6 N8 O8'
_cell_volume   1264.25179995
_cell_formula_units_Z   2
loop_
 _symmetry_equiv_pos_site_id
 _symmetry_equiv_pos_as_xyz
  1  'x, y, z'
loop_
 _atom_site_type_symbol
 _atom_site_label
 _atom_site_symmetry_multiplicity
 _atom_site_fract_x
 _atom_site_fract_y
 _atom_site_fract_z
 _atom_site_occupancy
 _atom_site_pbe_bader_charge
 _atom_site_pbe_bader_spin_density
 _atom_site_pbe_cm5_charge
 _atom_site_pbe_ddec_charge
 _atom_site_pbe_ddec_spin_density
 _atom_site_pbe_ddec_sum_bond_order
 _atom_site_pbe_magmom
Cu  Cu0  1  0.49999801  0.50000471  0.49999587  1  1.064247  0.570265  0.780745  0.682097  0.73095  2.283696  0.569
Cu  Cu1  1  0.50000083  0.99999810  0.00000578  1  1.075427  0.581049  0.774726  0.702123  0.74243  2.302278  0.579
H  H2  1  0.26944567  0.60754372  0.41958238  1  0.188662  0.002029  0.120494  0.104344  0.000924  1.056557  0.002
H  H3  1  0.73055561  0.39247181  0.58039530  1  0.18892  0.002028  0.120494  0.10442  0.000924  1.056486  0.002
H  H4  1  0.15379355  0.59247174  0.28494874  1  0.091258  0.001091  0.107979  0.122888  0.000559  1.008767  0.001
H  H5  1  0.84621174  0.40753319  0.71503078  1  0.090991  0.001091  0.107976  0.122952  0.000559  1.008752  0.001
H  H6  1  0.40228136  0.28707139  0.25539740  1  0.096473  0.001068  0.112672  0.133701  0.00054  0.997658  0.001
H  H7  1  0.59770939  0.71291441  0.74461934  1  0.096214  0.001068  0.112637  0.133709  0.00054  0.997622  0.001
H  H8  1  0.50477572  0.31121344  0.39841335  1  0.17554  0.002292  0.125694  0.115992  0.001127  1.013693  0.002
H  H9  1  0.49521620  0.68878390  0.60159804  1  0.175482  0.002292  0.125667  0.115975  0.001126  1.013677  0.002
H  H10  1  0.13937163  0.17333889  0.28324030  1  0.134661  0.001136  0.123872  0.143105  0.000595  0.959995  0.001
H  H11  1  0.86063300  0.82665962  0.71675709  1  0.134612  0.001136  0.12386  0.143081  0.000595  0.960011  0.001
H  H12  1  0.25146075  0.00519249  0.22328847  1  0.190552  0.002086  0.124459  0.098009  0.000981  1.049995  0.002
H  H13  1  0.74854485  0.99480689  0.77670992  1  0.19057  0.002086  0.124448  0.098029  0.000981  1.049951  0.002
H  H14  1  0.52151288  0.27551649  0.86320902  1  0.179923  0.001881  0.119404  0.103947  0.000852  1.037869  0.001
H  H15  1  0.47848587  0.72447945  0.13678617  1  0.179894  0.00188  0.119389  0.103974  0.000852  1.037838  0.001
H  H16  1  0.42353293  0.45809003  0.91206292  1  0.109784  0.001041  0.102123  0.110111  0.000525  1.037705  0.001
H  H17  1  0.57646348  0.54190907  0.08792659  1  0.110002  0.001041  0.102122  0.110102  0.000525  1.037643  0.001
H  H18  1  0.22533264  0.85349783  0.19258956  1  0.18716  0.002093  0.120009  0.10625  0.001003  1.042549  0.002
H  H19  1  0.77465805  0.14649939  0.80742554  1  0.187109  0.002092  0.11996  0.106167  0.001003  1.042537  0.002
H  H20  1  0.03812322  0.76455503  0.17823996  1  0.095916  0.001026  0.10741  0.122977  0.000527  1.006311  0.001
H  H21  1  0.96187598  0.23544329  0.82176565  1  0.095922  0.001026  0.107408  0.122963  0.000527  1.00625  0.001
H  H22  1  0.27297758  0.89007933  0.75633171  1  0.091625  0.001018  0.120549  0.145188  0.000521  0.959852  0.0
H  H23  1  0.72703260  0.10992606  0.24367768  1  0.091777  0.001018  0.120542  0.145142  0.000521  0.959822  0.0
H  H24  1  0.44688130  0.98261094  0.78419474  1  0.211565  0.001875  0.119606  0.111969  0.000888  1.066513  0.002
H  H25  1  0.55312080  0.01738667  0.21582526  1  0.211421  0.001876  0.119558  0.111865  0.000888  1.066585  0.002
H  H26  1  0.82851661  0.86482355  0.08981536  1  0.095285  0.001119  0.1105  0.124543  0.00054  1.001795  0.001
H  H27  1  0.17148651  0.13517798  0.91017865  1  0.095351  0.001119  0.11052  0.124591  0.00054  1.001766  0.001
H  H28  1  0.62582406  0.76054043  0.30027461  1  0.18037  0.002103  0.125578  0.110167  0.000989  1.025443  0.002
H  H29  1  0.37417371  0.23946339  0.69971412  1  0.180285  0.002103  0.125585  0.110272  0.000988  1.025298  0.002
H  H30  1  0.71722417  0.39592827  0.34787042  1  0.185609  0.002306  0.126403  0.116305  0.001125  1.021857  0.002
H  H31  1  0.28277387  0.60407329  0.65212666  1  0.185582  0.002306  0.126406  0.116316  0.001125  1.021849  0.002
H  H32  1  0.92046845  0.48353499  0.13427828  1  0.092562  0.001069  0.095194  0.095809  0.000543  1.067151  0.001
H  H33  1  0.07953493  0.51646429  0.86572409  1  0.092587  0.001068  0.095214  0.095809  0.000543  1.067177  0.001
C  C34  1  0.29677881  0.53751352  0.38169638  1  0.462414  -0.000608  0.045748  0.099862  -0.001056  3.91532  -0.001
C  C35  1  0.70322352  0.46249600  0.61828859  1  0.462291  -0.000608  0.045669  0.099815  -0.001056  3.915264  -0.001
C  C36  1  0.23249384  0.52939461  0.30533554  1  -0.017427  0.006175  -0.090587  -0.175476  0.004062  3.944901  0.005
C  C37  1  0.76751002  0.47061098  0.69465154  1  -0.017771  0.006174  -0.090553  -0.175575  0.004061  3.944965  0.005
C  C38  1  0.27290914  0.44330509  0.25195507  1  -0.256842  -0.003658  0.011819  0.106839  -0.00401  4.043187  -0.003
C  C39  1  0.72709269  0.55669358  0.74804056  1  -0.256478  -0.003657  0.011906  0.10696  -0.004009  4.043043  -0.003
C  C40  1  0.37086962  0.36074080  0.28740788  1  0.082891  0.00643  -0.090924  -0.186996  0.004264  3.953236  0.005
C  C41  1  0.62912744  0.63925384  0.71259662  1  0.082913  0.006428  -0.090904  -0.187019  0.004263  3.953128  0.005
C  C42  1  0.42961195  0.37397566  0.36581345  1  0.429496  -0.000124  0.048636  0.097306  -0.000492  3.916352  0.0
C  C43  1  0.57038461  0.62602381  0.63418910  1  0.429794  -0.000123  0.048609  0.097268  -0.00049  3.916411  0.0
C  C44  1  0.27382919  0.32874189  0.10210115  1  -0.141579  -0.003486  0.002872  0.083319  -0.003786  4.045723  -0.002
C  C45  1  0.72617150  0.67125580  0.89789605  1  -0.141436  -0.003486  0.002875  0.083306  -0.003786  4.045737  -0.002
C  C46  1  0.22382053  0.20076627  0.18923800  1  0.018898  0.006461  -0.07401  -0.16015  0.004316  3.937882  0.005
C  C47  1  0.77618295  0.79923126  0.81076096  1  0.019214  0.00646  -0.073993  -0.160141  0.004316  3.937862  0.005
C  C48  1  0.28640422  0.10623605  0.15549500  1  0.447645  -0.000623  0.061055  0.115994  -0.001093  3.894611  0.0
C  C49  1  0.71360023  0.89376235  0.84450497  1  0.447447  -0.000622  0.061072  0.116004  -0.001093  3.894557  0.0
C  C50  1  0.43848965  0.25952546  0.95538397  1  0.442857  -0.001232  0.045245  0.101035  -0.001644  3.898539  -0.001
C  C51  1  0.56151197  0.74047217  0.04461382  1  0.442886  -0.001232  0.04525  0.100953  -0.001644  3.898674  -0.001
C  C52  1  0.38267759  0.35902687  0.98255659  1  -0.033508  0.005709  -0.089222  -0.173858  0.003734  3.966586  0.004
C  C53  1  0.61732132  0.64097189  0.01743899  1  -0.033708  0.005708  -0.089186  -0.173746  0.003733  3.966417  0.004
C  C54  1  0.23023423  0.86467978  0.09594359  1  0.47207  -0.000171  0.046655  0.093577  -0.000435  3.921911  0.0
C  C55  1  0.76976234  0.13531548  0.90406907  1  0.471854  -0.00017  0.046695  0.093685  -0.000436  3.921894  0.0
C  C56  1  0.12640742  0.81186946  0.08819137  1  -0.036177  0.006343  -0.099425  -0.201182  0.004137  3.981962  0.005
C  C57  1  0.87359256  0.18812781  0.91181614  1  -0.035499  0.00634  -0.099459  -0.201171  0.004137  3.981926  0.005
C  C58  1  0.13976715  0.81804996  0.96587129  1  -0.247453  -0.003447  0.005017  0.091895  -0.003778  4.081289  -0.002
C  C59  1  0.86023792  0.18194910  0.03413484  1  -0.247693  -0.003446  0.005031  0.091856  -0.003777  4.081182  -0.002
C  C60  1  0.25668805  0.88173932  0.85441349  1  0.049378  0.005946  -0.088428  -0.182582  0.00392  3.934947  0.005
C  C61  1  0.74331961  0.11826037  0.14559825  1  0.049533  0.005945  -0.08853  -0.182625  0.00392  3.934793  0.005
C  C62  1  0.35453776  0.93384256  0.86977092  1  0.432606  -0.00045  0.043998  0.098313  -0.000848  3.901171  0.0
C  C63  1  0.64546625  0.06615316  0.13024772  1  0.433653  -0.000448  0.04413  0.098596  -0.000847  3.900903  0.0
C  C64  1  0.89062491  0.68187225  0.09515861  1  -0.196253  -0.003621  0.004168  0.085338  -0.00394  4.029393  -0.002
C  C65  1  0.10938069  0.31812713  0.90483978  1  -0.196248  -0.003621  0.00425  0.08548  -0.00394  4.029321  -0.002
C  C66  1  0.80845765  0.76059281  0.14357230  1  0.048284  0.005813  -0.080203  -0.159214  0.003857  3.936635  0.005
C  C67  1  0.19154457  0.23940970  0.85642154  1  0.048305  0.005813  -0.080301  -0.159405  0.003857  3.936786  0.005
C  C68  1  0.69635219  0.70398873  0.26043350  1  0.466886  -0.00137  0.056026  0.110249  -0.001734  3.879976  -0.001
C  C69  1  0.30364735  0.29601402  0.73955686  1  0.466909  -0.00137  0.056014  0.110191  -0.001734  3.879908  -0.001
C  C70  1  0.74544522  0.49910270  0.28382163  1  0.484602  -0.001079  0.051918  0.102867  -0.001381  3.88351  -0.001
C  C71  1  0.25455387  0.50089887  0.71617432  1  0.484063  -0.001079  0.051961  0.102905  -0.001381  3.883472  -0.001
C  C72  1  0.85852928  0.54873454  0.16706532  1  -0.037759  0.006343  -0.08847  -0.174326  0.004163  3.977023  0.005
C  C73  1  0.14147239  0.45126584  0.83293457  1  -0.037559  0.006343  -0.088514  -0.174363  0.004163  3.977044  0.005
S  S74  1  0.19990569  0.45287410  0.14057918  1  0.141931  -0.000801  0.041042  -0.007037  -0.001252  2.743271  0.0
S  S75  1  0.80009832  0.54712646  0.85941502  1  0.141725  -0.0008  0.041024  -0.007067  -0.001252  2.743224  0.0
S  S76  1  0.02633082  0.74683152  0.93962428  1  0.145196  -0.000873  0.047343  0.004142  -0.001278  2.74815  0.0
S  S77  1  0.97368005  0.25316373  0.06037858  1  0.145414  -0.000873  0.047332  0.004108  -0.001278  2.748063  0.0
S  S78  1  0.36317513  0.82565770  0.36768298  1  3.743783  -0.000364  0.512164  1.400662  -0.000453  6.469593  0.0
S  S79  1  0.63681650  0.17434008  0.63231837  1  3.743449  -0.000364  0.512013  1.400471  -0.000455  6.47017  0.0
N  N80  1  0.39678917  0.46363995  0.40824907  1  -1.21616  0.095862  -0.347215  -0.230001  0.063608  3.593701  0.084
N  N81  1  0.60321047  0.53636647  0.59174380  1  -1.216111  0.095855  -0.347208  -0.230048  0.063604  3.59381  0.084
N  N82  1  0.39141028  0.13555273  0.04109421  1  -1.222494  0.091682  -0.335455  -0.208958  0.060957  3.57721  0.08
N  N83  1  0.60859402  0.86444468  0.95890707  1  -1.222408  0.091673  -0.335475  -0.208988  0.060951  3.577377  0.08
N  N84  1  0.34207184  0.92539355  0.98871975  1  -1.215923  0.091568  -0.340108  -0.23599  0.060829  3.572576  0.08
N  N85  1  0.65792812  0.07460040  0.01129914  1  -1.217573  0.091565  -0.340054  -0.236094  0.060828  3.572486  0.08
N  N86  1  0.66548279  0.57579685  0.32811130  1  -1.214658  0.09249  -0.332233  -0.207339  0.061622  3.571414  0.081
N  N87  1  0.33451574  0.42420681  0.67188060  1  -1.214375  0.09249  -0.332242  -0.207332  0.061621  3.571296  0.081
O  O88  1  0.41426023  0.70946474  0.45972148  1  -1.368739  -0.0016  -0.388967  -0.72826  -0.001792  2.295934  -0.001
O  O89  1  0.58573989  0.29054498  0.54028222  1  -1.368788  -0.0016  -0.388971  -0.728287  -0.001793  2.295934  -0.001
O  O90  1  0.44235777  0.84773233  0.22606326  1  -1.348704  1.8e-05  -0.399194  -0.746864  -0.000509  2.310886  0.001
O  O91  1  0.55764015  0.15226041  0.77394101  1  -1.348722  2.1e-05  -0.399183  -0.746862  -0.000507  2.311016  0.001
O  O92  1  0.21964888  0.79893930  0.39785732  1  -1.348631  0.001558  -0.413054  -0.692675  0.001009  2.047858  0.001
O  O93  1  0.78034582  0.20104612  0.60214359  1  -1.348429  0.001558  -0.413018  -0.692633  0.001009  2.047926  0.001
O  O94  1  0.38541361  0.93921996  0.38071592  1  -1.343404  0.00023  -0.40587  -0.677859  8.2e-05  2.070016  0.0
O  O95  1  0.61456433  0.06078604  0.61927990  1  -1.343217  0.00023  -0.405785  -0.677763  8.1e-05  2.070244  0.0
