# generated using pymatgen
data_CuH8C13N3O5
_symmetry_space_group_name_H-M   'P 1'
_cell_length_a   18.84789783
_cell_length_b   18.84789368
_cell_length_c   23.10406680
_cell_angle_alpha   111.04231219
_cell_angle_beta   111.04241177
_cell_angle_gamma   96.87395506
_symmetry_Int_Tables_number   1
_chemical_formula_structural   CuH8C13N3O5
_chemical_formula_sum   'Cu8 H64 C104 N24 O40'
_cell_volume   6852.05875923
_cell_formula_units_Z   8
loop_
 _symmetry_equiv_pos_site_id
 _symmetry_equiv_pos_as_xyz
  1  'x, y, z'
loop_
 _atom_site_type_symbol
 _atom_site_label
 _atom_site_symmetry_multiplicity
 _atom_site_fract_x
 _atom_site_fract_y
 _atom_site_fract_z
 _atom_site_occupancy
 _atom_site_pbe_bader_charge
 _atom_site_pbe_bader_spin_density
 _atom_site_pbe_cm5_charge
 _atom_site_pbe_ddec_charge
 _atom_site_pbe_ddec_spin_density
 _atom_site_pbe_ddec_sum_bond_order
 _atom_site_pbe_magmom
Cu  Cu0  1  0.50379690  0.94698193  0.45076118  1  1.096715  0.576891  0.677592  0.824789  0.734067  2.32141  0.577
Cu  Cu1  1  0.94698111  0.50379531  0.45075928  1  1.096762  0.576891  0.677582  0.824679  0.734066  2.321533  0.577
Cu  Cu2  1  0.05302152  0.49620608  0.54923468  1  1.095374  0.576844  0.6776  0.824839  0.734083  2.321347  0.577
Cu  Cu3  1  0.49620771  0.05302313  0.54923713  1  1.095369  0.576847  0.677589  0.82478  0.734083  2.321415  0.577
Cu  Cu4  1  0.94186028  0.94186006  0.45449645  1  1.080337  0.576568  0.676211  0.83221  0.732938  2.317891  0.577
Cu  Cu5  1  0.51260155  0.51260159  0.45448498  1  1.081841  0.576714  0.676578  0.833064  0.733045  2.315447  0.577
Cu  Cu6  1  0.05813932  0.05814110  0.54550397  1  1.082381  0.576637  0.676331  0.83225  0.732975  2.31827  0.577
Cu  Cu7  1  0.48740680  0.48740700  0.54550402  1  1.079365  0.576642  0.67664  0.832897  0.733067  2.316169  0.577
H  H8  1  0.26170235  0.83322422  0.30976061  1  0.097737  0.000427  0.115105  0.128108  0.000359  1.003223  0.0
H  H9  1  0.04807147  0.47656189  0.30979090  1  0.106811  0.000422  0.114698  0.127781  0.000359  1.002071  0.0
H  H10  1  0.16677837  0.73829646  0.69023969  1  0.09766  0.000427  0.115089  0.128101  0.000358  1.003302  0.0
H  H11  1  0.52343750  0.95192752  0.69021067  1  0.106915  0.000422  0.114715  0.127775  0.000359  1.002164  0.0
H  H12  1  0.73829684  0.16677413  0.69024000  1  0.097894  0.000426  0.115085  0.128092  0.000358  1.003279  0.0
H  H13  1  0.95192850  0.52343609  0.69021048  1  0.106906  0.000422  0.114686  0.127776  0.000359  1.00214  0.0
H  H14  1  0.83321986  0.26170191  0.30976055  1  0.097713  0.000427  0.115088  0.128073  0.000359  1.003263  0.0
H  H15  1  0.47656213  0.04807126  0.30979038  1  0.106938  0.000422  0.114695  0.127773  0.000359  1.002026  0.0
H  H16  1  0.24200703  0.99475973  0.48586181  1  0.150324  0.000687  0.106238  0.117131  0.000588  1.008662  0.0
H  H17  1  0.24384700  0.49112499  0.48589345  1  0.114455  0.000706  0.106161  0.117026  0.000587  1.007864  0.0
H  H18  1  0.00524213  0.75799772  0.51414084  1  0.15049  0.000688  0.106205  0.11709  0.000588  1.008691  0.0
H  H19  1  0.50889027  0.75616871  0.51410727  1  0.113783  0.000705  0.106201  0.117142  0.000587  1.007922  0.0
H  H20  1  0.75799715  0.00524049  0.51414023  1  0.150421  0.000688  0.106211  0.117097  0.000588  1.008654  0.0
H  H21  1  0.75616811  0.50888863  0.51410707  1  0.11389  0.000705  0.106208  0.117155  0.000587  1.007911  0.0
H  H22  1  0.99475716  0.24200611  0.48586105  1  0.150425  0.000687  0.106229  0.117095  0.000588  1.008684  0.0
H  H23  1  0.49112183  0.24384587  0.48589261  1  0.114454  0.000706  0.106208  0.117117  0.000587  1.007834  0.0
H  H24  1  0.03023553  0.83557561  0.30469246  1  0.146495  0.000382  0.122131  0.138643  0.000316  0.999544  0.0
H  H25  1  0.27446462  0.46908211  0.30470834  1  0.157819  0.000381  0.122035  0.13797  0.000316  0.999366  0.0
H  H26  1  0.16443161  0.96976750  0.69531381  1  0.146139  0.000381  0.122135  0.138645  0.000315  0.999566  0.0
H  H27  1  0.53092456  0.72553041  0.69528388  1  0.157781  0.000381  0.121981  0.137991  0.000316  0.999248  0.0
H  H28  1  0.96976725  0.16442615  0.69531470  1  0.146174  0.000381  0.12209  0.138546  0.000316  0.999638  0.0
H  H29  1  0.72553131  0.53092493  0.69528426  1  0.15777  0.000381  0.122004  0.138032  0.000316  0.999288  0.0
H  H30  1  0.83556970  0.03023337  0.30469188  1  0.146456  0.000382  0.122176  0.138663  0.000316  0.999473  0.0
H  H31  1  0.46908220  0.27446561  0.30470887  1  0.1578  0.000381  0.122035  0.137998  0.000316  0.999348  0.0
H  H32  1  0.19954136  0.73165047  0.20911370  1  0.105992  -2e-06  0.133461  0.139908  -1.3e-05  0.995671  0.0
H  H33  1  0.00958264  0.47746761  0.20914850  1  0.134958  -2e-06  0.133747  0.139885  -1.3e-05  0.995467  0.0
H  H34  1  0.26835317  0.80045063  0.79088550  1  0.10605  -2e-06  0.13351  0.140004  -1.3e-05  0.995593  0.0
H  H35  1  0.52253563  0.99041283  0.79085591  1  0.134888  -2e-06  0.133826  0.140064  -1.3e-05  0.995299  0.0
H  H36  1  0.80044947  0.26834914  0.79088566  1  0.10601  -2e-06  0.133519  0.140039  -1.3e-05  0.995449  0.0
H  H37  1  0.99041368  0.52253564  0.79085695  1  0.134887  -2e-06  0.133804  0.140037  -1.3e-05  0.995324  0.0
H  H38  1  0.73164546  0.19954316  0.20911454  1  0.106241  -2e-06  0.133513  0.139989  -1.3e-05  0.995616  0.0
H  H39  1  0.47746579  0.00958290  0.20914810  1  0.134965  -2e-06  0.133784  0.139941  -1.3e-05  0.995456  0.0
H  H40  1  0.96795707  0.64572278  0.99997803  1  0.109356  2e-06  0.109325  0.116878  2e-06  1.006683  0.0
H  H41  1  0.03203213  0.35428143  0.00002445  1  0.10959  2e-06  0.109307  0.116849  2e-06  1.006746  0.0
H  H42  1  0.35428251  0.03203009  0.00002345  1  0.10966  2e-06  0.109296  0.116869  2e-06  1.006728  0.0
H  H43  1  0.64572107  0.96795744  0.99997857  1  0.109543  2e-06  0.10933  0.116877  2e-06  1.006671  0.0
H  H44  1  0.17418505  0.58904941  0.11058034  1  0.065162  1e-06  0.099357  0.099007  1e-06  1.004365  0.0
H  H45  1  0.93638763  0.52154912  0.11061518  1  0.05693  1e-06  0.099707  0.099131  1e-06  1.004425  0.0
H  H46  1  0.41095513  0.82580113  0.88942248  1  0.065566  1e-06  0.099441  0.099041  1e-06  1.004469  0.0
H  H47  1  0.47845025  0.06359820  0.88938423  1  0.056737  1e-06  0.099671  0.099129  1e-06  1.00422  0.0
H  H48  1  0.82580148  0.41095071  0.88942065  1  0.065571  1e-06  0.099438  0.099033  1e-06  1.004421  0.0
H  H49  1  0.06359870  0.47845065  0.88938620  1  0.056579  1e-06  0.099657  0.099075  1e-06  1.004294  0.0
H  H50  1  0.58904464  0.17418486  0.11057810  1  0.065068  1e-06  0.099363  0.098961  1e-06  1.004384  0.0
H  H51  1  0.52154938  0.93638792  0.11061740  1  0.056867  1e-06  0.099766  0.099291  1e-06  1.004417  0.0
H  H52  1  0.16847567  0.49695695  0.99999021  1  0.076151  0.0  0.109182  0.10944  0.0  0.978887  0.0
H  H53  1  0.83150788  0.50304174  0.00001077  1  0.075876  0.0  0.109179  0.109368  0.0  0.978819  0.0
H  H54  1  0.50304549  0.83150929  0.00001401  1  0.075768  0.0  0.109184  0.109359  0.0  0.978786  0.0
H  H55  1  0.49695441  0.16847554  0.99998729  1  0.076101  0.0  0.109224  0.109517  0.0  0.978831  0.0
H  H56  1  0.79246870  0.84737523  0.39474240  1  0.629819  -9.5e-05  0.327908  0.403229  -0.000127  0.877561  0.0
H  H57  1  0.60228137  0.54738128  0.39483041  1  0.605606  -0.0001  0.328418  0.404038  -0.000126  0.877919  0.0
H  H58  1  0.15263866  0.20754125  0.60528132  1  0.630048  -9.5e-05  0.328013  0.403423  -0.000127  0.877585  0.0
H  H59  1  0.45262785  0.39773044  0.60517359  1  0.605886  -0.0001  0.328402  0.403969  -0.000126  0.877891  0.0
H  H60  1  0.20753887  0.15263485  0.60527846  1  0.630028  -9.5e-05  0.328024  0.403461  -0.000127  0.877487  0.0
H  H61  1  0.39772519  0.45262476  0.60516689  1  0.605758  -0.0001  0.328438  0.403978  -0.000126  0.877968  0.0
H  H62  1  0.84737180  0.79246690  0.39473886  1  0.629967  -9.5e-05  0.32793  0.403289  -0.000127  0.877516  0.0
H  H63  1  0.54738209  0.60227968  0.39482887  1  0.605642  -0.0001  0.328408  0.404028  -0.000126  0.877857  0.0
H  H64  1  0.52925244  0.81053307  0.40131396  1  0.62228  -7.6e-05  0.32175  0.403841  -0.000105  0.882342  0.0
H  H65  1  0.87248110  0.59106972  0.40164436  1  0.59326  -7.9e-05  0.321793  0.403501  -0.000105  0.884284  0.0
H  H66  1  0.18946646  0.47073585  0.59868481  1  0.622255  -7.6e-05  0.32175  0.40384  -0.000105  0.882301  0.0
H  H67  1  0.40893075  0.12751339  0.59836051  1  0.592735  -7.9e-05  0.321757  0.40345  -0.000105  0.884357  0.0
H  H68  1  0.47073738  0.18946794  0.59868617  1  0.622242  -7.6e-05  0.321741  0.403865  -0.000105  0.88225  0.0
H  H69  1  0.12751092  0.40892893  0.59835797  1  0.592694  -7.9e-05  0.321753  0.403383  -0.000105  0.884401  0.0
H  H70  1  0.81053456  0.52925706  0.40131940  1  0.622309  -7.6e-05  0.321763  0.403837  -0.000105  0.882303  0.0
H  H71  1  0.59106644  0.87247924  0.40163928  1  0.593318  -7.9e-05  0.321777  0.403524  -0.000105  0.884262  0.0
C  C72  1  0.08203611  0.95077849  0.43458400  1  1.543701  -0.001772  0.217804  0.586218  -0.002295  4.151093  -0.005
C  C73  1  0.35257992  0.48381243  0.43461996  1  1.527871  -0.001611  0.217687  0.586155  -0.002299  4.149388  -0.005
C  C74  1  0.04922608  0.91796861  0.56542184  1  1.543411  -0.001771  0.217817  0.58626  -0.002294  4.151194  -0.005
C  C75  1  0.51620309  0.64742347  0.56537166  1  1.527236  -0.001599  0.217843  0.586524  -0.002302  4.148855  -0.005
C  C76  1  0.91796895  0.04922344  0.56542247  1  1.543383  -0.00177  0.217813  0.586248  -0.002294  4.151214  -0.005
C  C77  1  0.64742416  0.51620167  0.56537130  1  1.527456  -0.001601  0.217788  0.586387  -0.002301  4.149066  -0.005
C  C78  1  0.95077483  0.08203470  0.43458345  1  1.543234  -0.001771  0.217825  0.586208  -0.002295  4.1511  -0.005
C  C79  1  0.48381160  0.35257926  0.43462013  1  1.528141  -0.00161  0.217706  0.586278  -0.002299  4.149348  -0.005
C  C80  1  0.34842454  0.94616761  0.43818843  1  1.520643  -0.001476  0.216772  0.586084  -0.002109  4.148261  -0.004
C  C81  1  0.08972623  0.49202437  0.43818857  1  1.546353  -0.001653  0.216578  0.584493  -0.002114  4.148928  -0.005
C  C82  1  0.05383079  0.65157594  0.56181048  1  1.520688  -0.001476  0.216769  0.585955  -0.002109  4.148058  -0.005
C  C83  1  0.50798083  0.91027871  0.56181202  1  1.545081  -0.001644  0.216507  0.584463  -0.002112  4.148979  -0.005
C  C84  1  0.65157570  0.05383009  0.56181086  1  1.520633  -0.001475  0.216724  0.585836  -0.002109  4.148341  -0.005
C  C85  1  0.91027760  0.50797793  0.56181015  1  1.545044  -0.001645  0.216565  0.584575  -0.002113  4.148962  -0.005
C  C86  1  0.94616635  0.34842461  0.43818689  1  1.520632  -0.001476  0.216753  0.586013  -0.00211  4.148449  -0.004
C  C87  1  0.49202613  0.08972785  0.43818983  1  1.54551  -0.00165  0.216616  0.58455  -0.002114  4.148911  -0.005
C  C88  1  0.26005215  0.91602240  0.40119533  1  0.001045  0.017015  -0.01494  -0.014019  0.011995  3.991338  0.014
C  C89  1  0.14113801  0.48518143  0.40121826  1  0.064939  0.017088  -0.015235  -0.014394  0.012002  3.989818  0.014
C  C90  1  0.08397824  0.73994934  0.59880539  1  0.001242  0.017016  -0.014913  -0.013955  0.011996  3.991293  0.014
C  C91  1  0.51482851  0.85886899  0.59878179  1  0.064408  0.017083  -0.015129  -0.014039  0.012  3.989849  0.014
C  C92  1  0.73994926  0.08397461  0.59880571  1  0.001312  0.017016  -0.014877  -0.013828  0.011996  3.991454  0.014
C  C93  1  0.85886816  0.51482789  0.59878221  1  0.064458  0.017085  -0.015156  -0.014158  0.012001  3.989989  0.014
C  C94  1  0.91601852  0.26005238  0.40119456  1  0.001217  0.017014  -0.014962  -0.01408  0.011995  3.991403  0.014
C  C95  1  0.48518028  0.14113757  0.40121773  1  0.065244  0.017084  -0.015209  -0.014325  0.012002  3.98979  0.014
C  C96  1  0.22395775  0.85595897  0.33378472  1  0.070778  -8.8e-05  -0.076106  -0.168009  -0.000475  3.917912  0.0
C  C97  1  0.10984129  0.47784750  0.33380608  1  -0.033598  -2.4e-05  -0.075544  -0.167114  -0.000475  3.916944  0.0
C  C98  1  0.14404485  0.77604260  0.66621876  1  0.070513  -8.8e-05  -0.076114  -0.16811  -0.000476  3.917795  0.0
C  C99  1  0.52215776  0.89016222  0.66619240  1  -0.033173  -2.7e-05  -0.075668  -0.167366  -0.000477  3.91711  0.0
C  C100  1  0.77604280  0.14404015  0.66621961  1  0.070295  -8.8e-05  -0.076071  -0.168108  -0.000476  3.917824  0.0
C  C101  1  0.89016130  0.52215611  0.66619259  1  -0.033167  -2.7e-05  -0.075601  -0.167338  -0.000477  3.917152  0.0
C  C102  1  0.85595396  0.22395691  0.33378443  1  0.070818  -8.8e-05  -0.076108  -0.167946  -0.000475  3.91781  0.0
C  C103  1  0.47784691  0.10984121  0.33380598  1  -0.033818  -2.4e-05  -0.075557  -0.167182  -0.000475  3.916865  0.0
C  C104  1  0.14132444  0.82771594  0.29909606  1  0.215786  0.001694  0.105673  0.151892  0.000988  4.018016  0.001
C  C105  1  0.15779460  0.47137756  0.29912253  1  0.292058  0.001683  0.106006  0.153001  0.000989  4.020474  0.001
C  C106  1  0.17228983  0.85867715  0.70090719  1  0.215785  0.001693  0.105708  0.152189  0.000988  4.017949  0.001
C  C107  1  0.52862579  0.84220602  0.70087418  1  0.291967  0.001683  0.1061  0.153204  0.000989  4.020248  0.001
C  C108  1  0.85867819  0.17228512  0.70090856  1  0.21622  0.001693  0.105668  0.152098  0.000988  4.017927  0.001
C  C109  1  0.84220626  0.52862432  0.70087440  1  0.291966  0.001683  0.106109  0.153331  0.000989  4.020177  0.001
C  C110  1  0.82771132  0.14132301  0.29909598  1  0.215463  0.001693  0.105698  0.151946  0.000988  4.017918  0.001
C  C111  1  0.47137705  0.15779444  0.29912236  1  0.292087  0.001683  0.106035  0.153106  0.000989  4.0204  0.001
C  C112  1  0.21392021  0.94798364  0.43358170  1  -0.03253  0.001418  -0.077006  -0.106693  0.00067  3.922694  0.001
C  C113  1  0.21964970  0.48558888  0.43360037  1  -0.053306  0.001473  -0.0769  -0.106415  0.000669  3.92194  0.001
C  C114  1  0.05202090  0.78608454  0.56642326  1  -0.032484  0.001419  -0.076914  -0.106559  0.000671  3.922903  0.001
C  C115  1  0.51442916  0.78036096  0.56640191  1  -0.052123  0.001471  -0.077068  -0.106795  0.000668  3.922076  0.001
C  C116  1  0.78608325  0.05201855  0.56642259  1  -0.032435  0.001419  -0.076939  -0.106642  0.000671  3.922873  0.001
C  C117  1  0.78036007  0.51442903  0.56640193  1  -0.052247  0.001471  -0.077052  -0.106778  0.000668  3.922125  0.001
C  C118  1  0.94797922  0.21391941  0.43358005  1  -0.032517  0.001419  -0.076929  -0.106587  0.000671  3.922665  0.001
C  C119  1  0.48558631  0.21964946  0.43359956  1  -0.053084  0.001472  -0.076901  -0.106427  0.000668  3.921898  0.001
C  C120  1  0.13130743  0.91860965  0.39879275  1  0.000856  0.017274  -0.010844  -0.006861  0.012111  3.969349  0.014
C  C121  1  0.26750078  0.48016556  0.39882741  1  0.023704  0.01714  -0.010887  -0.007473  0.012111  3.969397  0.014
C  C122  1  0.08139373  0.86869654  0.60121350  1  0.001051  0.017275  -0.010977  -0.007014  0.012112  3.969321  0.014
C  C123  1  0.51985113  0.73250447  0.60117346  1  0.024432  0.017137  -0.010744  -0.007435  0.012113  3.968908  0.014
C  C124  1  0.86869625  0.08138948  0.60121353  1  0.001393  0.017273  -0.010892  -0.006898  0.012111  3.969369  0.014
C  C125  1  0.73250497  0.51985046  0.60117384  1  0.024457  0.017138  -0.010753  -0.00736  0.012114  3.968938  0.014
C  C126  1  0.91860446  0.13130618  0.39879204  1  0.000675  0.017275  -0.010858  -0.006878  0.012111  3.969363  0.014
C  C127  1  0.48016345  0.26750009  0.39882652  1  0.023688  0.01714  -0.010875  -0.007511  0.012111  3.969396  0.014
C  C128  1  0.09455043  0.85828492  0.33162099  1  0.048044  -0.00064  -0.063804  -0.148681  -0.00109  3.878523  0.0
C  C129  1  0.23709971  0.47333892  0.33165454  1  0.017407  -0.000642  -0.063794  -0.147606  -0.001085  3.878535  0.0
C  C130  1  0.14172199  0.90545228  0.66838578  1  0.048453  -0.00064  -0.063782  -0.148789  -0.001091  3.878321  0.0
C  C131  1  0.52666031  0.76290086  0.66834000  1  0.017754  -0.000642  -0.063825  -0.147693  -0.001086  3.87851  0.0
C  C132  1  0.90545131  0.14171638  0.66838513  1  0.047771  -0.000639  -0.063804  -0.148723  -0.001091  3.878481  0.0
C  C133  1  0.76290056  0.52665868  0.66834062  1  0.017723  -0.000642  -0.063863  -0.14783  -0.001086  3.878547  0.0
C  C134  1  0.85828160  0.09454876  0.33161923  1  0.048373  -0.00064  -0.06388  -0.148761  -0.00109  3.878433  0.0
C  C135  1  0.47333826  0.23710001  0.33165405  1  0.017413  -0.000642  -0.063861  -0.147755  -0.001085  3.878605  0.0
C  C136  1  0.13671909  0.72590660  0.19059855  1  0.351793  7e-05  0.018381  -0.167939  4.9e-05  3.88434  0.0
C  C137  1  0.05388672  0.46469398  0.19062448  1  0.307416  7e-05  0.017578  -0.167204  4.9e-05  3.884596  0.0
C  C138  1  0.27409346  0.86327427  0.80940214  1  0.351263  7e-05  0.018373  -0.167901  4.9e-05  3.884546  0.0
C  C139  1  0.53530809  0.94610465  0.80937537  1  0.307756  7e-05  0.017554  -0.16737  4.9e-05  3.88451  0.0
C  C140  1  0.86327531  0.27409346  0.80940319  1  0.351388  7e-05  0.018422  -0.167893  4.9e-05  3.884376  0.0
C  C141  1  0.94610565  0.53530803  0.80937523  1  0.307763  7e-05  0.017542  -0.167397  4.9e-05  3.884455  0.0
C  C142  1  0.72590357  0.13671877  0.19059748  1  0.351693  7e-05  0.01838  -0.168017  4.9e-05  3.884352  0.0
C  C143  1  0.46469286  0.05388692  0.19062461  1  0.30735  7e-05  0.01761  -0.167203  4.9e-05  3.88454  0.0
C  C144  1  0.07369377  0.68028121  0.12671682  1  0.415676  1.5e-05  0.091667  0.105075  1.3e-05  4.071717  0.0
C  C145  1  0.05300571  0.44646078  0.12673110  1  0.446019  1.5e-05  0.091727  0.103896  1.3e-05  4.070151  0.0
C  C146  1  0.31972378  0.92629412  0.87328213  1  0.415676  1.5e-05  0.091632  0.105002  1.3e-05  4.071893  0.0
C  C147  1  0.55354020  0.94698132  0.87326633  1  0.445974  1.5e-05  0.091717  0.103821  1.3e-05  4.070503  0.0
C  C148  1  0.92629449  0.31971979  0.87328233  1  0.415614  1.5e-05  0.091643  0.10507  1.3e-05  4.072016  0.0
C  C149  1  0.94698097  0.55354021  0.87326707  1  0.446029  1.5e-05  0.091714  0.103817  1.3e-05  4.070547  0.0
C  C150  1  0.68027690  0.07369449  0.12671699  1  0.415838  1.5e-05  0.091732  0.105236  1.3e-05  4.071526  0.0
C  C151  1  0.44646066  0.05300578  0.12673060  1  0.446118  1.5e-05  0.091682  0.103828  1.3e-05  4.070074  0.0
C  C152  1  0.01250604  0.61385488  0.99998349  1  0.047052  1.5e-05  -0.077863  -0.144225  1e-05  3.886446  0.0
C  C153  1  0.98747845  0.38614320  0.00001308  1  0.047535  1.5e-05  -0.077868  -0.144098  1e-05  3.886434  0.0
C  C154  1  0.38614502  0.98747704  0.00001307  1  0.04755  1.5e-05  -0.077892  -0.14418  1e-05  3.886399  0.0
C  C155  1  0.61385347  0.01250653  0.99998386  1  0.046975  1.5e-05  -0.077844  -0.144184  1e-05  3.886542  0.0
C  C156  1  0.07230313  0.62509730  0.06260532  1  -0.015334  5e-06  -0.009723  0.055536  3e-06  4.042322  0.0
C  C157  1  0.99025961  0.43752471  0.06262037  1  -0.038266  5e-06  -0.009373  0.058101  3e-06  4.039433  0.0
C  C158  1  0.37490682  0.92768131  0.93739362  1  -0.016082  5e-06  -0.009791  0.05555  3e-06  4.04193  0.0
C  C159  1  0.56247553  0.00972685  0.93737606  1  -0.038928  5e-06  -0.009424  0.058058  3e-06  4.039676  0.0
C  C160  1  0.92768281  0.37490380  0.93739331  1  -0.016209  5e-06  -0.009788  0.05548  3e-06  4.042138  0.0
C  C161  1  0.00972635  0.56247528  0.93737589  1  -0.038815  5e-06  -0.009378  0.058171  3e-06  4.039578  0.0
C  C162  1  0.62509373  0.07230319  0.06260537  1  -0.015848  5e-06  -0.009765  0.055482  3e-06  4.042301  0.0
C  C163  1  0.43752566  0.99025945  0.06262120  1  -0.038299  5e-06  -0.009412  0.058111  3e-06  4.03953  0.0
C  C164  1  0.12924824  0.58341465  0.06225418  1  -0.023648  1e-05  -0.089347  -0.129682  7e-06  3.977647  0.0
C  C165  1  0.93295541  0.47883740  0.06227943  1  -0.021426  1e-05  -0.090053  -0.130842  7e-06  3.977038  0.0
C  C166  1  0.41659008  0.87073807  0.93774836  1  -0.02374  1e-05  -0.089397  -0.129863  7e-06  3.977577  0.0
C  C167  1  0.52115943  0.06702963  0.93772029  1  -0.019102  1e-05  -0.090047  -0.130787  7e-06  3.976926  0.0
C  C168  1  0.87073876  0.41658665  0.93774669  1  -0.023536  1e-05  -0.089494  -0.129932  7e-06  3.977642  0.0
C  C169  1  0.06703121  0.52116081  0.93772284  1  -0.019008  1e-05  -0.090014  -0.130761  7e-06  3.977031  0.0
C  C170  1  0.58341049  0.12924829  0.06225244  1  -0.023112  1e-05  -0.089368  -0.129613  7e-06  3.977632  0.0
C  C171  1  0.47883865  0.93295621  0.06228158  1  -0.021464  1e-05  -0.090096  -0.131063  7e-06  3.977209  0.0
C  C172  1  0.12613179  0.53156264  0.99999648  1  -0.050746  0.0  -0.089188  -0.068185  -0.0  4.035059  0.0
C  C173  1  0.87385467  0.46843598  0.00000563  1  -0.04926  0.0  -0.089013  -0.06782  -0.0  4.034642  0.0
C  C174  1  0.46843977  0.87385514  0.00000836  1  -0.048975  0.0  -0.089055  -0.067809  -0.0  4.034455  0.0
C  C175  1  0.53155939  0.12612979  0.99999339  1  -0.050621  0.0  -0.089179  -0.068261  -0.0  4.034956  0.0
N  N176  1  0.10402514  0.76844671  0.23034062  1  -0.851624  0.000365  -0.121897  0.131543  0.000197  3.777892  0.0
N  N177  1  0.12632835  0.46190536  0.23036547  1  -0.852318  0.000366  -0.122199  0.128431  0.000197  3.780574  0.0
N  N178  1  0.23155935  0.89597252  0.76966105  1  -0.851185  0.000365  -0.122031  0.131167  0.000197  3.778227  0.0
N  N179  1  0.53809488  0.87366565  0.76963078  1  -0.852493  0.000365  -0.122293  0.12839  0.000197  3.780355  0.0
N  N180  1  0.89597180  0.23155545  0.76966306  1  -0.850963  0.000365  -0.122087  0.131225  0.000197  3.778098  0.0
N  N181  1  0.87366585  0.53809452  0.76963132  1  -0.852483  0.000365  -0.122263  0.128414  0.000197  3.780333  0.0
N  N182  1  0.76844202  0.10402586  0.23034114  1  -0.851736  0.000365  -0.122013  0.131388  0.000197  3.777997  0.0
N  N183  1  0.46190575  0.12632876  0.23036533  1  -0.852322  0.000366  -0.122214  0.12844  0.000197  3.780685  0.0
N  N184  1  0.02359803  0.74961614  0.19261808  1  -0.070125  8.2e-05  -0.092131  -0.113783  3e-05  3.132762  0.0
N  N185  1  0.16901656  0.44301623  0.19263290  1  -0.104054  8.3e-05  -0.091819  -0.112632  3e-05  3.135413  0.0
N  N186  1  0.25039397  0.97640129  0.80738783  1  -0.070261  8.2e-05  -0.092105  -0.113685  3e-05  3.132937  0.0
N  N187  1  0.55698326  0.83097273  0.80736102  1  -0.10402  8.3e-05  -0.091845  -0.112726  3e-05  3.135331  0.0
N  N188  1  0.97639996  0.25038835  0.80738844  1  -0.070641  8.2e-05  -0.091984  -0.113579  3e-05  3.132732  0.0
N  N189  1  0.83097310  0.55698322  0.80736113  1  -0.104034  8.3e-05  -0.091853  -0.112743  3e-05  3.135375  0.0
N  N190  1  0.74961132  0.02359859  0.19261887  1  -0.070045  8.2e-05  -0.092069  -0.113751  3e-05  3.132834  0.0
N  N191  1  0.44301716  0.16901734  0.19263309  1  -0.104067  8.3e-05  -0.091851  -0.112693  3e-05  3.135516  0.0
N  N192  1  0.00592932  0.69712443  0.13086122  1  -0.538785  0.000256  -0.191717  -0.196962  0.000166  3.244512  0.0
N  N193  1  0.12492401  0.43376355  0.13087863  1  -0.513452  0.000256  -0.191864  -0.196771  0.000166  3.246596  0.0
N  N194  1  0.30288632  0.99406410  0.86914323  1  -0.538771  0.000256  -0.191616  -0.196878  0.000166  3.244852  0.0
N  N195  1  0.56623662  0.87506328  0.86911723  1  -0.513467  0.000256  -0.191763  -0.196557  0.000166  3.24665  0.0
N  N196  1  0.99406515  0.30288223  0.86914416  1  -0.538659  0.000256  -0.191726  -0.197056  0.000166  3.244706  0.0
N  N197  1  0.87506253  0.56623673  0.86911702  1  -0.513483  0.000256  -0.19177  -0.196573  0.000166  3.246736  0.0
N  N198  1  0.69711989  0.00592890  0.13086143  1  -0.53904  0.000256  -0.191737  -0.196982  0.000166  3.24455  0.0
N  N199  1  0.43376422  0.12492409  0.13087849  1  -0.513473  0.000256  -0.191836  -0.196712  0.000166  3.246584  0.0
O  O200  1  0.00983951  0.91011659  0.40755395  1  -1.094815  0.101297  -0.307758  -0.502081  0.064099  2.317901  0.092
O  O201  1  0.39770526  0.49742295  0.40754837  1  -1.089127  0.10127  -0.308292  -0.502209  0.064114  2.315884  0.092
O  O202  1  0.08987871  0.99015951  0.59244256  1  -1.094958  0.101272  -0.307761  -0.502022  0.064083  2.318355  0.092
O  O203  1  0.50259022  0.60229513  0.59244184  1  -1.089256  0.101261  -0.308327  -0.502316  0.064112  2.315935  0.092
O  O204  1  0.99015975  0.08987714  0.59244256  1  -1.09494  0.101273  -0.307746  -0.502014  0.064084  2.318387  0.092
O  O205  1  0.60229554  0.50258914  0.59244139  1  -1.089238  0.101265  -0.308332  -0.50232  0.064115  2.31603  0.092
O  O206  1  0.91011372  0.00983788  0.40755306  1  -1.094492  0.101294  -0.307834  -0.502111  0.064098  2.317906  0.092
O  O207  1  0.49742110  0.39770435  0.40754836  1  -1.089387  0.101267  -0.308304  -0.502277  0.064112  2.31596  0.092
O  O208  1  0.38707039  0.90965011  0.40800345  1  -1.112397  0.100991  -0.312055  -0.510213  0.063859  2.321121  0.092
O  O209  1  0.02093223  0.49840870  0.40799478  1  -1.096514  0.101048  -0.311772  -0.509432  0.063899  2.322547  0.092
O  O210  1  0.09034976  0.61293085  0.59199293  1  -1.112143  0.100988  -0.312097  -0.510208  0.063855  2.321146  0.092
O  O211  1  0.50159511  0.97907216  0.59200292  1  -1.096215  0.101058  -0.311681  -0.5094  0.063906  2.322634  0.092
O  O212  1  0.61293095  0.09034870  0.59199219  1  -1.112162  0.100981  -0.312051  -0.510111  0.063851  2.321317  0.092
O  O213  1  0.97907211  0.50159341  0.59200267  1  -1.096211  0.101059  -0.311694  -0.509453  0.063907  2.322532  0.092
O  O214  1  0.90964976  0.38707111  0.40800385  1  -1.112384  0.100989  -0.312055  -0.510168  0.063857  2.321354  0.092
O  O215  1  0.49840997  0.02093196  0.40799468  1  -1.096092  0.101055  -0.311792  -0.509483  0.063903  2.322427  0.092
O  O216  1  0.11643999  0.01556922  0.48974792  1  -1.107085  0.09321  -0.323361  -0.548823  0.059081  2.33629  0.085
O  O217  1  0.37336252  0.47420831  0.48979738  1  -1.112613  0.093159  -0.322696  -0.54878  0.059032  2.336573  0.085
O  O218  1  0.98443014  0.88355239  0.51025379  1  -1.106651  0.093231  -0.323352  -0.54889  0.059094  2.335984  0.085
O  O219  1  0.52580324  0.62665145  0.51019275  1  -1.112942  0.093159  -0.32273  -0.54896  0.059035  2.336216  0.085
O  O220  1  0.88355407  0.98442851  0.51025467  1  -1.106725  0.093225  -0.323389  -0.548917  0.05909  2.336017  0.085
O  O221  1  0.62665183  0.52580075  0.51019228  1  -1.11317  0.09316  -0.322685  -0.548858  0.059034  2.336255  0.085
O  O222  1  0.01556651  0.11643969  0.48974783  1  -1.107009  0.093213  -0.323314  -0.54876  0.059083  2.336302  0.085
O  O223  1  0.47420865  0.37336209  0.48979860  1  -1.112638  0.093165  -0.322696  -0.548824  0.059036  2.336518  0.085
O  O224  1  0.37867298  0.00616640  0.49700686  1  -1.113918  0.094025  -0.320981  -0.54744  0.059561  2.349708  0.086
O  O225  1  0.11827246  0.49077824  0.49698998  1  -1.113199  0.094062  -0.320984  -0.546732  0.059592  2.34909  0.086
O  O226  1  0.99383328  0.62132726  0.50298837  1  -1.114049  0.094034  -0.320942  -0.547327  0.059568  2.34949  0.086
O  O227  1  0.50922584  0.88173557  0.50301032  1  -1.112757  0.094055  -0.320995  -0.546787  0.059591  2.349087  0.086
O  O228  1  0.62132782  0.99383075  0.50298824  1  -1.113969  0.094038  -0.320965  -0.547362  0.059571  2.349554  0.086
O  O229  1  0.88173615  0.50922558  0.50301055  1  -1.112693  0.094052  -0.321007  -0.54678  0.059589  2.349186  0.086
O  O230  1  0.00616659  0.37867278  0.49700639  1  -1.113884  0.094027  -0.320993  -0.547422  0.059562  2.34963  0.086
O  O231  1  0.49077802  0.11827173  0.49698903  1  -1.113188  0.094054  -0.321008  -0.546763  0.059587  2.349141  0.086
O  O232  1  0.83307345  0.83307498  0.37986697  1  -1.209376  -0.00186  -0.561295  -0.716317  -0.001433  1.970811  0.0
O  O233  1  0.54679291  0.54679172  0.37988726  1  -1.160689  -0.001848  -0.562669  -0.718127  -0.001435  1.971386  0.0
O  O234  1  0.16692378  0.16692334  0.62014235  1  -1.209746  -0.001861  -0.561468  -0.716702  -0.001433  1.970971  0.0
O  O235  1  0.45321341  0.45321652  0.62010446  1  -1.160989  -0.001847  -0.56266  -0.717941  -0.001434  1.971486  0.0
O  O236  1  0.53451769  0.84495442  0.37918140  1  -1.169327  -0.001876  -0.572878  -0.725077  -0.001459  1.932581  -0.001
O  O237  1  0.84495318  0.53452155  0.37918411  1  -1.169309  -0.001876  -0.572911  -0.725043  -0.001458  1.932544  -0.001
O  O238  1  0.15504037  0.46547653  0.62081441  1  -1.168674  -0.001876  -0.572873  -0.724968  -0.001459  1.932647  -0.001
O  O239  1  0.46547868  0.15504124  0.62081579  1  -1.168707  -0.001876  -0.572857  -0.725051  -0.001459  1.932591  -0.001
