# generated using pymatgen
data_MgH12(C7O3)2
_symmetry_space_group_name_H-M   'P 1'
_cell_length_a   6.66683765
_cell_length_b   7.14605521
_cell_length_c   26.79829024
_cell_angle_alpha   89.99947023
_cell_angle_beta   89.99818368
_cell_angle_gamma   90.00000066
_symmetry_Int_Tables_number   1
_chemical_formula_structural   MgH12(C7O3)2
_chemical_formula_sum   'Mg4 H48 C56 O24'
_cell_volume   1276.71315385
_cell_formula_units_Z   4
loop_
 _symmetry_equiv_pos_site_id
 _symmetry_equiv_pos_as_xyz
  1  'x, y, z'
loop_
 _atom_site_type_symbol
 _atom_site_label
 _atom_site_symmetry_multiplicity
 _atom_site_fract_x
 _atom_site_fract_y
 _atom_site_fract_z
 _atom_site_occupancy
 _atom_site_hle17_bader_spin_density
 _atom_site_hle17_ddec_charge
 _atom_site_hle17_ddec_spin_density
 _atom_site_hle17_ddec_sum_bond_order
 _atom_site_hle17_magmom
 _atom_site_hse06_10hf_bader_spin_density
 _atom_site_hse06_10hf_ddec_charge
 _atom_site_hse06_10hf_ddec_spin_density
 _atom_site_hse06_10hf_ddec_sum_bond_order
 _atom_site_hse06_10hf_magmom
 _atom_site_hse06_bader_spin_density
 _atom_site_hse06_ddec_charge
 _atom_site_hse06_ddec_spin_density
 _atom_site_hse06_ddec_sum_bond_order
 _atom_site_hse06_magmom
 _atom_site_pbe_bader_spin_density
 _atom_site_pbe_cm5_charge
 _atom_site_pbe_ddec_charge
 _atom_site_pbe_ddec_spin_density
 _atom_site_pbe_ddec_sum_bond_order
 _atom_site_pbe_magmom
Mg  Mg0  1  0.00000217  0.50000004  0.99999899  1  0  1.519034  0  1.102836  0  0  1.410246  0  1.355693  0  0  1.433239  0  1.320216  0  0  0.81107  1.393931  0  1.380581  0
Mg  Mg1  1  0.49999677  0.99999492  0.50000070  1  0  1.51902  0  1.102955  0  0  1.410268  0  1.355779  0  0  1.43326  0  1.320306  0  0  0.811066  1.393951  0  1.380665  0
Mg  Mg2  1  0.99999994  0.49999738  0.50000159  1  0  1.519026  0  1.102901  0  0  1.410267  0  1.355727  0  0  1.43326  0  1.320251  0  0  0.811077  1.393953  0  1.380607  0
Mg  Mg3  1  0.49999935  0.00000037  0.99999864  1  0  1.519019  0  1.102954  0  0  1.410253  0  1.355789  0  0  1.433244  0  1.320315  0  0  0.811035  1.393937  0  1.380679  0
H  H4  1  0.56391600  0.85076193  0.14960216  1  0  0.099503  0  0.95801  0  0  0.10935  0  1.019813  0  0  0.112123  0  1.018556  0  0  0.104671  0.107345  0  1.020746  0
H  H5  1  0.93608003  0.64926040  0.64959553  1  0  0.099567  0  0.957879  0  0  0.10932  0  1.019783  0  0  0.112097  0  1.018528  0  0  0.104653  0.107312  0  1.020723  0
H  H6  1  0.43608846  0.85075150  0.35040017  1  0  0.09957  0  0.95786  0  0  0.109387  0  1.019697  0  0  0.112168  0  1.018446  0  0  0.104659  0.107379  0  1.020637  0
H  H7  1  0.06392058  0.64927096  0.85040282  1  0  0.099458  0  0.958115  0  0  0.109308  0  1.01989  0  0  0.112086  0  1.018637  0  0  0.104649  0.107299  0  1.020828  0
H  H8  1  0.43608803  0.14924823  0.85039638  1  0  0.099639  0  0.957923  0  0  0.109459  0  1.019734  0  0  0.112234  0  1.018477  0  0  0.104698  0.107454  0  1.020663  0
H  H9  1  0.06392100  0.35073158  0.35040749  1  0  0.099481  0  0.957975  0  0  0.109254  0  1.019855  0  0  0.112023  0  1.018593  0  0  0.104661  0.10725  0  1.020787  0
H  H10  1  0.56390507  0.14924047  0.64960210  1  0  0.099551  0  0.957974  0  0  0.109436  0  1.019741  0  0  0.112219  0  1.018486  0  0  0.104682  0.107429  0  1.020679  0
H  H11  1  0.93608345  0.35073920  0.14959684  1  0  0.099533  0  0.957904  0  0  0.109328  0  1.01977  0  0  0.112106  0  1.018515  0  0  0.104654  0.10732  0  1.020707  0
H  H12  1  0.66521470  0.84120408  0.23885635  1  0  0.084631  0  0.971154  0  0  0.095268  0  1.035978  0  0  0.097933  0  1.035169  0  0  0.097081  0.093359  0  1.036678  0
H  H13  1  0.83479243  0.65879000  0.73885385  1  0  0.084633  0  0.97093  0  0  0.095293  0  1.035744  0  0  0.09795  0  1.03496  0  0  0.097161  0.093384  0  1.036442  0
H  H14  1  0.33480025  0.84120790  0.26114489  1  0  0.084741  0  0.971054  0  0  0.0954  0  1.035855  0  0  0.098064  0  1.035048  0  0  0.097192  0.09349  0  1.036554  0
H  H15  1  0.16521718  0.65879662  0.76114559  1  0  0.084569  0  0.971097  0  0  0.095219  0  1.035938  0  0  0.097884  0  1.035133  0  0  0.097072  0.093308  0  1.036638  0
H  H16  1  0.33478782  0.15879909  0.76114182  1  0  0.084709  0  0.971098  0  0  0.095372  0  1.035892  0  0  0.098035  0  1.035087  0  0  0.097158  0.093462  0  1.036594  0
H  H17  1  0.16520560  0.34122016  0.26114991  1  0  0.084605  0  0.971035  0  0  0.095248  0  1.035883  0  0  0.097912  0  1.035079  0  0  0.097128  0.093338  0  1.036584  0
H  H18  1  0.66520827  0.15879527  0.73885626  1  0  0.084732  0  0.971088  0  0  0.095388  0  1.035885  0  0  0.098054  0  1.035073  0  0  0.097176  0.093479  0  1.036584  0
H  H19  1  0.83478835  0.34121354  0.23885369  1  0  0.08462  0  0.970987  0  0  0.095263  0  1.035817  0  0  0.097919  0  1.035035  0  0  0.097132  0.093353  0  1.036519  0
H  H20  1  0.25866642  0.66579337  0.19506395  1  0  0.0929  0  0.955945  0  0  0.105058  0  1.014902  0  0  0.107843  0  1.014613  0  0  0.100783  0.103068  0  1.015168  0
H  H21  1  0.24134595  0.83422461  0.69507071  1  0  0.092891  0  0.95596  0  0  0.105015  0  1.014952  0  0  0.107815  0  1.014653  0  0  0.100757  0.103026  0  1.015215  0
H  H22  1  0.74134853  0.66578309  0.30493250  1  0  0.092862  0  0.956026  0  0  0.105014  0  1.014991  0  0  0.107811  0  1.014683  0  0  0.100784  0.103025  0  1.015259  0
H  H23  1  0.75866817  0.83421153  0.80493053  1  0  0.092872  0  0.955965  0  0  0.104977  0  1.014991  0  0  0.107791  0  1.014663  0  0  0.100749  0.102987  0  1.015255  0
H  H24  1  0.74134510  0.33422519  0.80493160  1  0  0.09289  0  0.955995  0  0  0.105022  0  1.014984  0  0  0.107818  0  1.014677  0  0  0.100779  0.103025  0  1.015269  0
H  H25  1  0.75865508  0.16578416  0.30493044  1  0  0.092862  0  0.955958  0  0  0.104994  0  1.014948  0  0  0.107783  0  1.014662  0  0  0.100765  0.103006  0  1.015215  0
H  H26  1  0.25865550  0.33421028  0.69506306  1  0  0.092857  0  0.955926  0  0  0.105039  0  1.014857  0  0  0.107795  0  1.014612  0  0  0.100785  0.10305  0  1.015124  0
H  H27  1  0.24133886  0.16579583  0.19506875  1  0  0.09284  0  0.956001  0  0  0.105007  0  1.014949  0  0  0.107777  0  1.014682  0  0  0.100769  0.103017  0  1.015215  0
H  H28  1  0.15761217  0.67898818  0.10641353  1  0  0.113143  0  0.957805  0  0  0.121724  0  1.019212  0  0  0.125495  0  1.016082  0  0  0.109637  0.118984  0  1.021523  0
H  H29  1  0.34237402  0.82101884  0.60641654  1  0  0.11307  0  0.957908  0  0  0.121756  0  1.019176  0  0  0.125527  0  1.016045  0  0  0.109657  0.119018  0  1.021486  0
H  H30  1  0.84238178  0.67898047  0.39358438  1  0  0.113071  0  0.957889  0  0  0.121727  0  1.019201  0  0  0.125497  0  1.016071  0  0  0.109642  0.118987  0  1.02151  0
H  H31  1  0.65762960  0.82102652  0.89358436  1  0  0.113111  0  0.95778  0  0  0.121752  0  1.019101  0  0  0.125521  0  1.015974  0  0  0.109665  0.119013  0  1.021409  0
H  H32  1  0.84239035  0.32102758  0.89358352  1  0  0.113072  0  0.957861  0  0  0.121733  0  1.019148  0  0  0.125504  0  1.016017  0  0  0.109661  0.118994  0  1.021458  0
H  H33  1  0.65762851  0.17896894  0.39358461  1  0  0.113136  0  0.957777  0  0  0.121783  0  1.019075  0  0  0.125551  0  1.015947  0  0  0.109701  0.119046  0  1.021384  0
H  H34  1  0.15760425  0.32101430  0.60641192  1  0  0.113092  0  0.9579  0  0  0.121744  0  1.01922  0  0  0.125522  0  1.016067  0  0  0.109653  0.119004  0  1.021533  0
H  H35  1  0.34237893  0.17897665  0.10641529  1  0  0.113121  0  0.95777  0  0  0.121731  0  1.019133  0  0  0.1255  0  1.016006  0  0  0.109643  0.118993  0  1.021444  0
H  H36  1  0.63295246  0.59313601  0.96049536  1  0  0.435667  0  0.861238  0  0  0.404506  0  0.924288  0  0  0.414417  0  0.909842  0  0  0.303573  0.397525  0  0.934456  0
H  H37  1  0.86703838  0.90687429  0.46049573  1  0  0.435595  0  0.861294  0  0  0.404426  0  0.924348  0  0  0.414336  0  0.909905  0  0  0.303503  0.397446  0  0.934514  0
H  H38  1  0.36704215  0.59313061  0.53950761  1  0  0.435629  0  0.861276  0  0  0.404455  0  0.924329  0  0  0.414367  0  0.909883  0  0  0.303541  0.397475  0  0.934496  0
H  H39  1  0.13295858  0.90687729  0.03950571  1  0  0.435589  0  0.861315  0  0  0.404411  0  0.924378  0  0  0.414322  0  0.909933  0  0  0.303509  0.397433  0  0.934542  0
H  H40  1  0.36704707  0.40686156  0.03950504  1  0  0.435598  0  0.861344  0  0  0.40446  0  0.924358  0  0  0.414372  0  0.909911  0  0  0.303537  0.397479  0  0.934527  0
H  H41  1  0.13295815  0.09312468  0.53950654  1  0  0.435574  0  0.861334  0  0  0.404401  0  0.924391  0  0  0.414312  0  0.909947  0  0  0.303488  0.397421  0  0.934558  0
H  H42  1  0.63295587  0.40686836  0.46049653  1  0  0.435616  0  0.861281  0  0  0.404449  0  0.924322  0  0  0.41436  0  0.909878  0  0  0.303539  0.397469  0  0.934491  0
H  H43  1  0.86703945  0.09313148  0.96049432  1  0  0.435688  0  0.861186  0  0  0.404528  0  0.924244  0  0  0.41444  0  0.909798  0  0  0.303543  0.397548  0  0.934412  0
H  H44  1  0.64862403  0.39142291  0.98436461  1  0  0.419159  0  0.888748  0  0  0.384206  0  0.960839  0  0  0.395671  0  0.94388  0  0  0.300553  0.376091  0  0.972838  0
H  H45  1  0.85138024  0.10858450  0.48436547  1  0  0.419134  0  0.888679  0  0  0.384182  0  0.960864  0  0  0.395649  0  0.943899  0  0  0.300569  0.376063  0  0.97287  0
H  H46  1  0.35137508  0.39142113  0.51563662  1  0  0.4191  0  0.888784  0  0  0.384127  0  0.960949  0  0  0.395592  0  0.943988  0  0  0.300525  0.376006  0  0.972956  0
H  H47  1  0.14861219  0.10858831  0.01563647  1  0  0.419112  0  0.88871  0  0  0.384162  0  0.960891  0  0  0.395628  0  0.943928  0  0  0.300563  0.376041  0  0.9729  0
H  H48  1  0.35138450  0.60857046  0.01563393  1  0  0.419203  0  0.88871  0  0  0.384225  0  0.96083  0  0  0.395691  0  0.943867  0  0  0.300587  0.376109  0  0.972831  0
H  H49  1  0.14861478  0.89141447  0.51563791  1  0  0.419145  0  0.888657  0  0  0.384187  0  0.960852  0  0  0.395654  0  0.943888  0  0  0.300566  0.376069  0  0.972855  0
H  H50  1  0.64862295  0.60857504  0.48436677  1  0  0.419157  0  0.888733  0  0  0.384176  0  0.960885  0  0  0.395642  0  0.943924  0  0  0.300566  0.37606  0  0.972885  0
H  H51  1  0.85138134  0.89141625  0.98436244  1  0  0.419063  0  0.888796  0  0  0.384094  0  0.960994  0  0  0.395562  0  0.944027  0  0  0.300521  0.375977  0  0.972997  0
C  C52  1  0.79347074  0.79146205  0.06927381  1  0  0.702032  0  3.833928  0  0  0.644522  0  4.131152  0  0  0.679313  0  4.120643  0  0  0.234224  0.62093  0  4.137683  0
C  C53  1  0.70654605  0.70853223  0.56927444  1  0  0.702454  0  3.834182  0  0  0.644886  0  4.131411  0  0  0.679681  0  4.120889  0  0  0.234391  0.621293  0  4.137953  0
C  C54  1  0.20652472  0.79145728  0.43072568  1  0  0.70229  0  3.83409  0  0  0.644822  0  4.131272  0  0  0.679616  0  4.120756  0  0  0.234385  0.621224  0  4.137806  0
C  C55  1  0.29345157  0.70854565  0.93072562  1  0  0.702403  0  3.834297  0  0  0.644822  0  4.131562  0  0  0.679618  0  4.121044  0  0  0.23433  0.621228  0  4.138102  0
C  C56  1  0.20652729  0.20853832  0.93072286  1  0  0.702248  0  3.833902  0  0  0.644827  0  4.131015  0  0  0.67962  0  4.120499  0  0  0.234298  0.621236  0  4.137552  0
C  C57  1  0.29345198  0.29145414  0.43072783  1  0  0.702287  0  3.834366  0  0  0.644793  0  4.131628  0  0  0.679587  0  4.121109  0  0  0.234309  0.621194  0  4.13817  0
C  C58  1  0.79346431  0.20853050  0.56927547  1  0  0.70208  0  3.833871  0  0  0.644459  0  4.13118  0  0  0.679251  0  4.12067  0  0  0.234206  0.620866  0  4.137716  0
C  C59  1  0.70655546  0.29145332  0.06927329  1  0  0.702288  0  3.834168  0  0  0.644729  0  4.131442  0  0  0.67952  0  4.120927  0  0  0.23434  0.621132  0  4.137985  0
C  C60  1  0.85448128  0.76958054  0.12240162  1  0  -0.084372  0  3.747565  0  0  -0.063802  0  3.987727  0  0  -0.073845  0  4.011887  0  0  -0.020262  -0.057282  0  3.971403  0
C  C61  1  0.64551372  0.73042732  0.62240118  1  0  -0.084673  0  3.747598  0  0  -0.064054  0  3.987733  0  0  -0.074098  0  4.011891  0  0  -0.020329  -0.057533  0  3.971415  0
C  C62  1  0.14551867  0.76956779  0.37759830  1  0  -0.084468  0  3.747662  0  0  -0.063976  0  3.987918  0  0  -0.07402  0  4.012084  0  0  -0.020308  -0.057449  0  3.97159  0
C  C63  1  0.35448989  0.73043975  0.87759920  1  0  -0.084735  0  3.747598  0  0  -0.064164  0  3.98779  0  0  -0.074211  0  4.011951  0  0  -0.020319  -0.057642  0  3.971468  0
C  C64  1  0.14551675  0.23041983  0.87759580  1  0  -0.084427  0  3.747714  0  0  -0.063882  0  3.987868  0  0  -0.073923  0  4.012027  0  0  -0.02029  -0.057366  0  3.971548  0
C  C65  1  0.35448581  0.26955905  0.37760072  1  0  -0.084645  0  3.74735  0  0  -0.064183  0  3.987654  0  0  -0.07423  0  4.011814  0  0  -0.020328  -0.057657  0  3.971329  0
C  C66  1  0.85447335  0.23041579  0.62240173  1  0  -0.084558  0  3.747719  0  0  -0.063852  0  3.98777  0  0  -0.073896  0  4.011934  0  0  -0.020268  -0.057335  0  3.971452  0
C  C67  1  0.64551413  0.26957041  0.12240195  1  0  -0.084704  0  3.747518  0  0  -0.064029  0  3.987581  0  0  -0.074072  0  4.011743  0  0  -0.020336  -0.057509  0  3.97126  0
C  C68  1  0.71520294  0.80948583  0.16014967  1  0  -0.048019  0  3.737767  0  0  -0.073651  0  3.985711  0  0  -0.072171  0  4.00701  0  0  -0.079171  -0.074367  0  3.971155  0
C  C69  1  0.78480074  0.69052774  0.66014973  1  0  -0.047877  0  3.737589  0  0  -0.073414  0  3.985455  0  0  -0.07194  0  4.006754  0  0  -0.079118  -0.074132  0  3.970902  0
C  C70  1  0.28480601  0.80947296  0.33985052  1  0  -0.047914  0  3.737548  0  0  -0.073472  0  3.985449  0  0  -0.072009  0  4.006761  0  0  -0.079121  -0.07419  0  3.970895  0
C  C71  1  0.21519988  0.69054566  0.83985038  1  0  -0.04776  0  3.737517  0  0  -0.073321  0  3.985368  0  0  -0.07185  0  4.00667  0  0  -0.07911  -0.074041  0  3.970812  0
C  C72  1  0.28479808  0.19051594  0.83984812  1  0  -0.048151  0  3.737799  0  0  -0.073743  0  3.985734  0  0  -0.072266  0  4.007032  0  0  -0.079155  -0.07446  0  3.971177  0
C  C73  1  0.21519579  0.30946003  0.33985179  1  0  -0.047765  0  3.737214  0  0  -0.073256  0  3.98515  0  0  -0.071768  0  4.006436  0  0  -0.079099  -0.073976  0  3.970599  0
C  C74  1  0.71519352  0.19051621  0.66014988  1  0  -0.047995  0  3.737781  0  0  -0.073676  0  3.985643  0  0  -0.072211  0  4.006951  0  0  -0.079172  -0.074393  0  3.97109  0
C  C75  1  0.78480115  0.30947150  0.16015003  1  0  -0.047871  0  3.737537  0  0  -0.073457  0  3.985405  0  0  -0.071986  0  4.006707  0  0  -0.079145  -0.074174  0  3.970848  0
C  C76  1  0.77228080  0.80265464  0.20990375  1  0  -0.118805  0  3.744227  0  0  -0.13692  0  3.994208  0  0  -0.141945  0  4.016287  0  0  -0.090225  -0.133588  0  3.979243  0
C  C77  1  0.72772403  0.69735443  0.70990200  1  0  -0.118955  0  3.744044  0  0  -0.137037  0  3.994085  0  0  -0.142067  0  4.016163  0  0  -0.090376  -0.133704  0  3.979118  0
C  C78  1  0.22772815  0.80265467  0.29009646  1  0  -0.119175  0  3.744153  0  0  -0.137293  0  3.994191  0  0  -0.14232  0  4.016275  0  0  -0.090469  -0.13396  0  3.97923  0
C  C79  1  0.27228259  0.69736146  0.79009734  1  0  -0.11887  0  3.744108  0  0  -0.136987  0  3.99418  0  0  -0.142014  0  4.01626  0  0  -0.090302  -0.133654  0  3.979213  0
C  C80  1  0.22772322  0.19734713  0.79009441  1  0  -0.118944  0  3.744151  0  0  -0.137059  0  3.994182  0  0  -0.142083  0  4.016258  0  0  -0.090393  -0.133729  0  3.97922  0
C  C81  1  0.27227850  0.30264733  0.29009915  1  0  -0.118959  0  3.744018  0  0  -0.137066  0  3.994042  0  0  -0.142091  0  4.016115  0  0  -0.090388  -0.133735  0  3.979081  0
C  C82  1  0.77227288  0.19734570  0.70990357  1  0  -0.119039  0  3.744134  0  0  -0.137155  0  3.994212  0  0  -0.14218  0  4.016293  0  0  -0.090421  -0.133824  0  3.979247  0
C  C83  1  0.72771544  0.30265290  0.20990306  1  0  -0.118946  0  3.744051  0  0  -0.137014  0  3.994067  0  0  -0.14204  0  4.016144  0  0  -0.090324  -0.133684  0  3.979104  0
C  C84  1  0.96955487  0.75467269  0.22354719  1  0  0.057842  0  3.78461  0  0  0.071014  0  4.016368  0  0  0.072923  0  4.039238  0  0  -0.00325  0.069869  0  4.00069  0
C  C85  1  0.53045122  0.74535131  0.72354687  1  0  0.057797  0  3.78447  0  0  0.070828  0  4.016472  0  0  0.072738  0  4.039346  0  0  -0.00328  0.069687  0  4.000792  0
C  C86  1  0.03045858  0.75466479  0.27645239  1  0  0.057819  0  3.784598  0  0  0.070867  0  4.016483  0  0  0.072775  0  4.039356  0  0  -0.003294  0.069724  0  4.000807  0
C  C87  1  0.46955690  0.74534481  0.77645310  1  0  0.057816  0  3.784624  0  0  0.070864  0  4.016621  0  0  0.072769  0  4.03951  0  0  -0.003285  0.069718  0  4.000941  0
C  C88  1  0.03044915  0.24533748  0.77645135  1  0  0.057711  0  3.784691  0  0  0.070803  0  4.016597  0  0  0.072713  0  4.039465  0  0  -0.003316  0.069659  0  4.000914  0
C  C89  1  0.46954831  0.25465466  0.27645465  1  0  0.057843  0  3.784522  0  0  0.070933  0  4.01642  0  0  0.072843  0  4.039297  0  0  -0.003249  0.069789  0  4.000741  0
C  C90  1  0.96954845  0.24533558  0.72354614  1  0  0.057832  0  3.784682  0  0  0.070871  0  4.016633  0  0  0.072783  0  4.039497  0  0  -0.003291  0.069731  0  4.000949  0
C  C91  1  0.53044263  0.25465976  0.22354768  1  0  0.057757  0  3.784606  0  0  0.070793  0  4.016557  0  0  0.0727  0  4.039433  0  0  -0.003331  0.06965  0  4.000876  0
C  C92  1  0.10695043  0.71021804  0.18540865  1  0  -0.124478  0  3.731716  0  0  -0.140804  0  3.979423  0  0  -0.146006  0  4.000744  0  0  -0.089554  -0.13731  0  3.964914  0
C  C93  1  0.39304967  0.78980026  0.68540948  1  0  -0.124388  0  3.731853  0  0  -0.140654  0  3.979647  0  0  -0.145876  0  4.00095  0  0  -0.089525  -0.137161  0  3.965141  0
C  C94  1  0.89305402  0.71021024  0.31458918  1  0  -0.124443  0  3.731697  0  0  -0.140743  0  3.979454  0  0  -0.14595  0  4.000765  0  0  -0.089547  -0.13725  0  3.964948  0
C  C95  1  0.60695394  0.78980225  0.81459038  1  0  -0.124403  0  3.731903  0  0  -0.140657  0  3.97968  0  0  -0.145881  0  4.000984  0  0  -0.089505  -0.137165  0  3.965173  0
C  C96  1  0.89304760  0.28979352  0.81458764  1  0  -0.124401  0  3.73184  0  0  -0.140697  0  3.979606  0  0  -0.145905  0  4.000923  0  0  -0.089535  -0.137207  0  3.965094  0
C  C97  1  0.60694835  0.21019871  0.31459130  1  0  -0.124404  0  3.7317  0  0  -0.140687  0  3.979452  0  0  -0.145899  0  4.000763  0  0  -0.089563  -0.137195  0  3.964948  0
C  C98  1  0.10694551  0.28978314  0.68540787  1  0  -0.124448  0  3.731731  0  0  -0.140761  0  3.979516  0  0  -0.145947  0  4.000839  0  0  -0.089548  -0.137268  0  3.96501  0
C  C99  1  0.39305009  0.21020791  0.18540965  1  0  -0.124285  0  3.731872  0  0  -0.140581  0  3.979632  0  0  -0.145772  0  4.000951  0  0  -0.089497  -0.137089  0  3.965126  0
C  C100  1  0.05061207  0.71712900  0.13545307  1  0  -0.044772  0  3.705562  0  0  -0.070188  0  3.955094  0  0  -0.068031  0  3.973573  0  0  -0.075995  -0.071367  0  3.942493  0
C  C101  1  0.44938242  0.78288541  0.63545608  1  0  -0.044698  0  3.705835  0  0  -0.070178  0  3.955301  0  0  -0.068017  0  3.973778  0  0  -0.075961  -0.071364  0  3.942709  0
C  C102  1  0.94938789  0.71712089  0.36454586  1  0  -0.044655  0  3.705517  0  0  -0.070097  0  3.955047  0  0  -0.067936  0  3.97352  0  0  -0.075936  -0.071278  0  3.942445  0
C  C103  1  0.55062270  0.78288989  0.86454455  1  0  -0.044726  0  3.705785  0  0  -0.07015  0  3.95526  0  0  -0.067987  0  3.973738  0  0  -0.076028  -0.071337  0  3.942663  0
C  C104  1  0.94938746  0.28287556  0.86454398  1  0  -0.044627  0  3.70557  0  0  -0.070064  0  3.955032  0  0  -0.067911  0  3.973519  0  0  -0.075931  -0.071248  0  3.942433  0
C  C105  1  0.55061861  0.21711496  0.36454619  1  0  -0.04481  0  3.705689  0  0  -0.070197  0  3.955198  0  0  -0.068039  0  3.973683  0  0  -0.076037  -0.071383  0  3.942601  0
C  C106  1  0.05060864  0.28286689  0.63545230  1  0  -0.044636  0  3.705595  0  0  -0.070106  0  3.955013  0  0  -0.067945  0  3.973484  0  0  -0.07598  -0.071288  0  3.942418  0
C  C107  1  0.44938133  0.21712307  0.13545474  1  0  -0.044767  0  3.705721  0  0  -0.070205  0  3.955193  0  0  -0.068048  0  3.973671  0  0  -0.076011  -0.07139  0  3.942598  0
O  O108  1  0.92504807  0.75488302  0.03472860  1  0  -0.782572  0  2.112642  0  0  -0.702884  0  2.337511  0  0  -0.72853  0  2.324367  0  0  -0.351265  -0.684972  0  2.346177  0
O  O109  1  0.57495363  0.74510965  0.53472719  1  0  -0.7827  0  2.112332  0  0  -0.703025  0  2.337237  0  0  -0.72867  0  2.324087  0  0  -0.351356  -0.685115  0  2.345906  0
O  O110  1  0.07495039  0.75488126  0.46527173  1  0  -0.782583  0  2.112763  0  0  -0.702967  0  2.337689  0  0  -0.728611  0  2.324539  0  0  -0.351247  -0.685055  0  2.346354  0
O  O111  1  0.42504399  0.74512048  0.96527316  1  0  -0.782729  0  2.112466  0  0  -0.703043  0  2.337376  0  0  -0.728689  0  2.324227  0  0  -0.351295  -0.685133  0  2.346048  0
O  O112  1  0.07494996  0.24511735  0.96526919  1  0  -0.782561  0  2.112464  0  0  -0.702985  0  2.337381  0  0  -0.728626  0  2.324229  0  0  -0.351236  -0.685076  0  2.346053  0
O  O113  1  0.42503990  0.25488512  0.46527508  1  0  -0.782656  0  2.112645  0  0  -0.703086  0  2.337602  0  0  -0.72873  0  2.324449  0  0  -0.351306  -0.685171  0  2.346274  0
O  O114  1  0.92504014  0.24510931  0.53472867  1  0  -0.782552  0  2.112525  0  0  -0.702887  0  2.337482  0  0  -0.728532  0  2.324337  0  0  -0.351262  -0.684977  0  2.346152  0
O  O115  1  0.57496604  0.25487849  0.03472650  1  0  -0.782598  0  2.112438  0  0  -0.70307  0  2.337439  0  0  -0.728711  0  2.324283  0  0  -0.351285  -0.685154  0  2.34611  0
O  O116  1  0.72450387  0.48502175  0.96425209  1  0  -0.884799  0  1.850824  0  0  -0.832804  0  2.038788  0  0  -0.849468  0  2.005721  0  0  -0.611385  -0.821032  0  2.061899  0
O  O117  1  0.77549097  0.01499195  0.46425117  1  0  -0.884739  0  1.850869  0  0  -0.832761  0  2.038907  0  0  -0.849424  0  2.005841  0  0  -0.611309  -0.820991  0  2.062018  0
O  O118  1  0.27548924  0.48501508  0.53574965  1  0  -0.884735  0  1.850919  0  0  -0.832716  0  2.038963  0  0  -0.849385  0  2.005894  0  0  -0.611314  -0.820941  0  2.062074  0
O  O119  1  0.22450596  0.01499647  0.03574951  1  0  -0.884717  0  1.850934  0  0  -0.832713  0  2.03896  0  0  -0.849377  0  2.005896  0  0  -0.611297  -0.820941  0  2.062071  0
O  O120  1  0.27549866  0.51497302  0.03574719  1  0  -0.884789  0  1.850849  0  0  -0.832806  0  2.038804  0  0  -0.84947  0  2.005735  0  0  -0.61138  -0.821033  0  2.061918  0
O  O121  1  0.22450555  0.98500422  0.53575072  1  0  -0.884721  0  1.850936  0  0  -0.832738  0  2.038995  0  0  -0.849402  0  2.005929  0  0  -0.611286  -0.820968  0  2.062106  0
O  O122  1  0.72450729  0.51497829  0.46425299  1  0  -0.884748  0  1.850811  0  0  -0.832747  0  2.038882  0  0  -0.849411  0  2.005814  0  0  -0.611374  -0.820977  0  2.061994  0
O  O123  1  0.77549207  0.98500949  0.96424865  1  0  -0.884773  0  1.850917  0  0  -0.8328  0  2.038882  0  0  -0.849466  0  2.005817  0  0  -0.611313  -0.821028  0  2.061992  0
O  O124  1  0.62002032  0.85153033  0.05944432  1  0  -0.676532  0  1.991228  0  0  -0.61956  0  2.22906  0  0  -0.642179  0  2.218198  0  0  -0.334935  -0.604048  0  2.236206  0
O  O125  1  0.87997373  0.64847829  0.55944672  1  0  -0.676622  0  1.991986  0  0  -0.619702  0  2.229989  0  0  -0.642322  0  2.21912  0  0  -0.334933  -0.604191  0  2.237134  0
O  O126  1  0.37997514  0.85153221  0.44055577  1  0  -0.676697  0  1.991352  0  0  -0.619754  0  2.229214  0  0  -0.642377  0  2.218348  0  0  -0.335062  -0.60424  0  2.236362  0
O  O127  1  0.12002089  0.64848577  0.94055350  1  0  -0.676535  0  1.99192  0  0  -0.619619  0  2.229961  0  0  -0.642241  0  2.2191  0  0  -0.334897  -0.604107  0  2.237103  0
O  O128  1  0.37997621  0.14846584  0.94055198  1  0  -0.676666  0  1.991384  0  0  -0.619761  0  2.229264  0  0  -0.642388  0  2.218409  0  0  -0.335002  -0.604248  0  2.236406  0
O  O129  1  0.12002280  0.35150949  0.44055518  1  0  -0.676483  0  1.991932  0  0  -0.619548  0  2.229849  0  0  -0.642164  0  2.218978  0  0  -0.334873  -0.604043  0  2.237007  0
O  O130  1  0.62001389  0.14845696  0.55944687  1  0  -0.676426  0  1.991258  0  0  -0.619489  0  2.229236  0  0  -0.642115  0  2.218384  0  0  -0.33489  -0.603974  0  2.236373  0
O  O131  1  0.87998164  0.35151320  0.05944653  1  0  -0.676458  0  1.99183  0  0  -0.619532  0  2.229848  0  0  -0.642151  0  2.218983  0  0  -0.33489  -0.604022  0  2.237  0
