# generated using pymatgen
data_CdH7C11(N2O)2
_symmetry_space_group_name_H-M   'P 1'
_cell_length_a   8.47077135
_cell_length_b   10.17991145
_cell_length_c   12.53994264
_cell_angle_alpha   89.99997228
_cell_angle_beta   97.36069190
_cell_angle_gamma   90.00002528
_symmetry_Int_Tables_number   1
_chemical_formula_structural   CdH7C11(N2O)2
_chemical_formula_sum   'Cd4 H28 C44 N16 O8'
_cell_volume   1072.42958526
_cell_formula_units_Z   4
loop_
 _symmetry_equiv_pos_site_id
 _symmetry_equiv_pos_as_xyz
  1  'x, y, z'
loop_
 _atom_site_type_symbol
 _atom_site_label
 _atom_site_symmetry_multiplicity
 _atom_site_fract_x
 _atom_site_fract_y
 _atom_site_fract_z
 _atom_site_occupancy
 _atom_site_hle17_bader_spin_density
 _atom_site_hle17_ddec_charge
 _atom_site_hle17_ddec_spin_density
 _atom_site_hle17_ddec_sum_bond_order
 _atom_site_hle17_magmom
 _atom_site_hse06_10hf_bader_spin_density
 _atom_site_hse06_10hf_ddec_charge
 _atom_site_hse06_10hf_ddec_spin_density
 _atom_site_hse06_10hf_ddec_sum_bond_order
 _atom_site_hse06_10hf_magmom
 _atom_site_hse06_bader_spin_density
 _atom_site_hse06_ddec_charge
 _atom_site_hse06_ddec_spin_density
 _atom_site_hse06_ddec_sum_bond_order
 _atom_site_hse06_magmom
 _atom_site_pbe_bader_spin_density
 _atom_site_pbe_cm5_charge
 _atom_site_pbe_ddec_charge
 _atom_site_pbe_ddec_spin_density
 _atom_site_pbe_ddec_sum_bond_order
 _atom_site_pbe_magmom
Cd  Cd0  1  0.76716420  0.67719636  0.82377883  1  0  1.108727  0  1.693272  0  0  0.900014  0  2.153466  0  0  0.956858  0  2.104961  0  0  0.79104  0.858382  0  2.187581  0
Cd  Cd1  1  0.73283583  0.17719710  0.17622134  1  0  1.108742  0  1.69329  0  0  0.900031  0  2.153486  0  0  0.956873  0  2.104982  0  0  0.791036  0.858398  0  2.187604  0
Cd  Cd2  1  0.23283560  0.32280241  0.17622157  1  0  1.108737  0  1.693292  0  0  0.900021  0  2.153479  0  0  0.956866  0  2.104975  0  0  0.791038  0.858389  0  2.187595  0
Cd  Cd3  1  0.26716397  0.82280264  0.82377985  1  0  1.108702  0  1.693278  0  0  0.899991  0  2.153466  0  0  0.956837  0  2.104959  0  0  0.791022  0.858358  0  2.187581  0
H  H4  1  0.61843565  0.49653094  0.06656008  1  0  0.096086  0  0.929601  0  0  0.106314  0  0.993302  0  0  0.108425  0  0.990649  0  0  0.132536  0.10481  0  0.995192  0
H  H5  1  0.88156809  0.99653213  0.93343948  1  0  0.096118  0  0.929516  0  0  0.106304  0  0.993272  0  0  0.108412  0  0.99062  0  0  0.132544  0.104805  0  0.995163  0
H  H6  1  0.38156653  0.50346783  0.93344051  1  0  0.096122  0  0.929578  0  0  0.106355  0  0.993272  0  0  0.108469  0  0.990618  0  0  0.132552  0.10485  0  0.995162  0
H  H7  1  0.11843408  0.00346762  0.06656112  1  0  0.096106  0  0.929567  0  0  0.106338  0  0.993264  0  0  0.108452  0  0.990611  0  0  0.132543  0.104834  0  0.995155  0
H  H8  1  0.11153357  0.23823563  0.87561726  1  0  0.120443  0  0.966086  0  0  0.126309  0  1.031492  0  0  0.129435  0  1.031183  0  0  0.110745  0.124098  0  1.031743  0
H  H9  1  0.38846833  0.73823632  0.12438120  1  0  0.120464  0  0.966091  0  0  0.126328  0  1.031496  0  0  0.129456  0  1.031183  0  0  0.110769  0.124117  0  1.031747  0
H  H10  1  0.88846980  0.76176314  0.12438264  1  0  0.120477  0  0.966112  0  0  0.126337  0  1.031518  0  0  0.129469  0  1.031191  0  0  0.110775  0.124126  0  1.031769  0
H  H11  1  0.61153147  0.26176343  0.87561840  1  0  0.120446  0  0.966106  0  0  0.126309  0  1.031513  0  0  0.129441  0  1.031187  0  0  0.110761  0.124097  0  1.031765  0
H  H12  1  0.98015944  0.60082939  0.62078641  1  0  0.082395  0  0.943052  0  0  0.091958  0  1.005097  0  0  0.094286  0  1.003177  0  0  0.116647  0.090268  0  1.00651  0
H  H13  1  0.51984054  0.10082797  0.37921220  1  0  0.082394  0  0.943073  0  0  0.091963  0  1.005103  0  0  0.09429  0  1.003184  0  0  0.116638  0.090273  0  1.006515  0
H  H14  1  0.01984154  0.39917232  0.37921329  1  0  0.0824  0  0.943067  0  0  0.091951  0  1.005112  0  0  0.094279  0  1.003192  0  0  0.116636  0.090261  0  1.006525  0
H  H15  1  0.48016044  0.89917079  0.62078750  1  0  0.082366  0  0.943111  0  0  0.091906  0  1.005169  0  0  0.094231  0  1.003252  0  0  0.116624  0.090217  0  1.00658  0
H  H16  1  0.12924316  0.03989801  0.68637461  1  0  0.088546  0  0.977168  0  0  0.094321  0  1.049351  0  0  0.097624  0  1.047265  0  0  0.097661  0.092023  0  1.050727  0
H  H17  1  0.37075627  0.53989563  0.31362691  1  0  0.088536  0  0.977247  0  0  0.094293  0  1.049445  0  0  0.097609  0  1.047319  0  0  0.097643  0.092  0  1.050801  0
H  H18  1  0.87075664  0.96010370  0.31362738  1  0  0.088541  0  0.97722  0  0  0.094296  0  1.049421  0  0  0.097613  0  1.047294  0  0  0.097654  0.092004  0  1.050778  0
H  H19  1  0.62924472  0.46010411  0.68637359  1  0  0.088552  0  0.977182  0  0  0.094319  0  1.04937  0  0  0.097632  0  1.047251  0  0  0.097659  0.092025  0  1.050725  0
H  H20  1  0.25806350  0.25501286  0.71350190  1  0  0.089206  0  0.9529  0  0  0.103523  0  1.007468  0  0  0.10522  0  1.007411  0  0  0.106286  0.102264  0  1.007598  0
H  H21  1  0.24193720  0.75501242  0.28649565  1  0  0.089207  0  0.952855  0  0  0.103523  0  1.007427  0  0  0.105219  0  1.007372  0  0  0.106282  0.102265  0  1.007556  0
H  H22  1  0.74193747  0.74498787  0.28649700  1  0  0.089205  0  0.952895  0  0  0.10352  0  1.00746  0  0  0.105217  0  1.007404  0  0  0.106282  0.102262  0  1.007589  0
H  H23  1  0.75806260  0.24498732  0.71350474  1  0  0.089162  0  0.95292  0  0  0.103501  0  1.00747  0  0  0.105197  0  1.007415  0  0  0.106275  0.102243  0  1.007598  0
H  H24  1  0.20646654  0.17362025  0.53283734  1  0  0.098822  0  0.954369  0  0  0.107608  0  1.017442  0  0  0.111283  0  1.015212  0  0  0.102349  0.104938  0  1.0192  0
H  H25  1  0.29353413  0.67362071  0.46716184  1  0  0.098812  0  0.95434  0  0  0.107594  0  1.017418  0  0  0.111267  0  1.015192  0  0  0.102345  0.104926  0  1.019175  0
H  H26  1  0.79353563  0.82637949  0.46716166  1  0  0.098853  0  0.954302  0  0  0.107597  0  1.017426  0  0  0.11127  0  1.015199  0  0  0.102342  0.104928  0  1.019181  0
H  H27  1  0.70646685  0.32638100  0.53283786  1  0  0.098841  0  0.954351  0  0  0.107635  0  1.017414  0  0  0.111309  0  1.015189  0  0  0.102356  0.104962  0  1.019182  0
H  H28  1  0.18342673  0.43617654  0.58032017  1  0  0.102622  0  0.9611  0  0  0.114781  0  1.017767  0  0  0.117146  0  1.01846  0  0  0.106349  0.113012  0  1.017623  0
H  H29  1  0.31657526  0.93617409  0.41967901  1  0  0.102644  0  0.961094  0  0  0.114801  0  1.017769  0  0  0.117165  0  1.018463  0  0  0.106378  0.11303  0  1.017625  0
H  H30  1  0.81657426  0.56382615  0.41967953  1  0  0.102636  0  0.961073  0  0  0.114801  0  1.017736  0  0  0.117166  0  1.018429  0  0  0.106362  0.113031  0  1.017592  0
H  H31  1  0.68342573  0.06382467  0.58032148  1  0  0.102651  0  0.961076  0  0  0.114809  0  1.017752  0  0  0.117174  0  1.018445  0  0  0.10637  0.113039  0  1.017607  0
C  C32  1  0.71016625  0.44972113  0.02704323  1  0  0.219985  0  3.716592  0  0  0.16091  0  3.996226  0  0  0.174549  0  4.010704  0  0  0.138561  0.15176  0  3.986219  0
C  C33  1  0.78983748  0.94972226  0.97295794  1  0  0.219908  0  3.716542  0  0  0.160853  0  3.996193  0  0  0.174496  0  4.010666  0  0  0.138487  0.151696  0  3.986193  0
C  C34  1  0.28983473  0.55027862  0.97295647  1  0  0.219979  0  3.716526  0  0  0.160899  0  3.99616  0  0  0.174535  0  4.01064  0  0  0.138561  0.15175  0  3.986152  0
C  C35  1  0.21016351  0.05027748  0.02704335  1  0  0.219904  0  3.716542  0  0  0.160818  0  3.996181  0  0  0.174455  0  4.010658  0  0  0.138487  0.151668  0  3.986174  0
C  C36  1  0.88089622  0.40437767  0.92262224  1  0  0.227679  0  3.857909  0  0  0.206577  0  4.124811  0  0  0.215024  0  4.143098  0  0  0.190866  0.201086  0  4.11199  0
C  C37  1  0.61910748  0.90437731  0.07737656  1  0  0.227653  0  3.858044  0  0  0.206598  0  4.124878  0  0  0.215047  0  4.143163  0  0  0.190903  0.201106  0  4.112057  0
C  C38  1  0.11910358  0.59562109  0.07737816  1  0  0.227667  0  3.857917  0  0  0.206568  0  4.124816  0  0  0.215016  0  4.143102  0  0  0.190853  0.201076  0  4.111995  0
C  C39  1  0.38089231  0.09562342  0.92262224  1  0  0.227546  0  3.858023  0  0  0.206485  0  4.12488  0  0  0.214933  0  4.143163  0  0  0.190848  0.200993  0  4.112058  0
C  C40  1  0.08686788  0.31608897  0.81651888  1  0  -0.134212  0  3.681617  0  0  -0.154039  0  3.9301  0  0  -0.160326  0  3.949375  0  0  -0.079666  -0.149947  0  3.917163  0
C  C41  1  0.41313643  0.81608767  0.18347976  1  0  -0.134203  0  3.681595  0  0  -0.154025  0  3.930045  0  0  -0.160313  0  3.949331  0  0  -0.079666  -0.149933  0  3.917109  0
C  C42  1  0.91313548  0.68391176  0.18348022  1  0  -0.134238  0  3.681595  0  0  -0.154051  0  3.93005  0  0  -0.16034  0  3.949338  0  0  -0.079672  -0.149959  0  3.917116  0
C  C43  1  0.58686336  0.18391109  0.81651905  1  0  -0.134177  0  3.681604  0  0  -0.153985  0  3.930059  0  0  -0.160273  0  3.949348  0  0  -0.07964  -0.149892  0  3.917121  0
C  C44  1  0.90954652  0.84416645  0.67618505  1  0  0.638711  0  3.913287  0  0  0.587245  0  4.202366  0  0  0.622279  0  4.195653  0  0  0.199122  0.563482  0  4.205862  0
C  C45  1  0.59045120  0.34416705  0.32381407  1  0  0.63894  0  3.912852  0  0  0.587477  0  4.201993  0  0  0.62251  0  4.195278  0  0  0.199217  0.563714  0  4.205493  0
C  C46  1  0.09045208  0.15583330  0.32381525  1  0  0.638684  0  3.913158  0  0  0.587243  0  4.202269  0  0  0.622279  0  4.195556  0  0  0.199106  0.563481  0  4.205768  0
C  C47  1  0.40954621  0.65583466  0.67618453  1  0  0.63859  0  3.913284  0  0  0.587179  0  4.202381  0  0  0.622213  0  4.195671  0  0  0.199094  0.563416  0  4.20588  0
C  C48  1  0.01244279  0.51845716  0.67455340  1  0  0.147137  0  3.708375  0  0  0.115683  0  3.961912  0  0  0.123251  0  3.979905  0  0  0.049287  0.110686  0  3.949544  0
C  C49  1  0.48755901  0.01845497  0.32544674  1  0  0.147144  0  3.708412  0  0  0.115692  0  3.961948  0  0  0.123261  0  3.97994  0  0  0.049276  0.110693  0  3.949583  0
C  C50  1  0.98755939  0.48154455  0.32544800  1  0  0.147097  0  3.708395  0  0  0.115663  0  3.961918  0  0  0.123232  0  3.979911  0  0  0.04928  0.110666  0  3.949552  0
C  C51  1  0.51244078  0.98154380  0.67455286  1  0  0.147171  0  3.70842  0  0  0.11573  0  3.961956  0  0  0.1233  0  3.979945  0  0  0.049283  0.110731  0  3.949588  0
C  C52  1  0.07362800  0.02257862  0.60442371  1  0  -0.074546  0  3.744246  0  0  -0.097342  0  3.99392  0  0  -0.098553  0  4.014613  0  0  -0.087891  -0.096339  0  3.97985  0
C  C53  1  0.42636785  0.52257720  0.39557592  1  0  -0.074559  0  3.744209  0  0  -0.09729  0  3.9939  0  0  -0.098497  0  4.014602  0  0  -0.087862  -0.096283  0  3.979833  0
C  C54  1  0.92636942  0.97742408  0.39557728  1  0  -0.074566  0  3.744295  0  0  -0.097298  0  3.993994  0  0  -0.098504  0  4.014694  0  0  -0.087893  -0.096293  0  3.979929  0
C  C55  1  0.57363075  0.47742451  0.60442358  1  0  -0.074597  0  3.744252  0  0  -0.097308  0  3.993966  0  0  -0.098516  0  4.014667  0  0  -0.087862  -0.096299  0  3.979896  0
C  C56  1  0.16565946  0.32552426  0.72628641  1  0  -0.002241  0  3.734806  0  0  -0.018067  0  3.980418  0  0  -0.014614  0  3.999276  0  0  -0.067338  -0.020165  0  3.967631  0
C  C57  1  0.33434367  0.82552288  0.27371292  1  0  -0.002252  0  3.734774  0  0  -0.018079  0  3.980403  0  0  -0.014629  0  3.999265  0  0  -0.067357  -0.020178  0  3.967618  0
C  C58  1  0.83434391  0.67447647  0.27371429  1  0  -0.002251  0  3.734831  0  0  -0.018072  0  3.980441  0  0  -0.014622  0  3.999306  0  0  -0.067324  -0.02017  0  3.967657  0
C  C59  1  0.66565612  0.17447490  0.72628668  1  0  -0.002233  0  3.734886  0  0  -0.018074  0  3.980487  0  0  -0.014623  0  3.999351  0  0  -0.067346  -0.020171  0  3.967698  0
C  C60  1  0.95793400  0.92416128  0.58541327  1  0  -0.050643  0  3.749377  0  0  -0.025908  0  3.976885  0  0  -0.031645  0  3.997478  0  0  -0.014374  -0.02222  0  3.963121  0
C  C61  1  0.54206377  0.42416084  0.41458821  1  0  -0.050553  0  3.749269  0  0  -0.025957  0  3.976991  0  0  -0.031701  0  3.997593  0  0  -0.014366  -0.022271  0  3.963229  0
C  C62  1  0.04206342  0.07584043  0.41458853  1  0  -0.050518  0  3.74928  0  0  -0.025945  0  3.976999  0  0  -0.031689  0  3.997601  0  0  -0.014356  -0.022258  0  3.963234  0
C  C63  1  0.45793483  0.57583989  0.58541209  1  0  -0.050364  0  3.749134  0  0  -0.025854  0  3.976923  0  0  -0.031587  0  3.997507  0  0  -0.01434  -0.022168  0  3.963161  0
C  C64  1  0.97232466  0.41100645  0.83201240  1  0  0.171742  0  3.793738  0  0  0.171154  0  4.030644  0  0  0.178785  0  4.049432  0  0  0.121551  0.16592  0  4.017842  0
C  C65  1  0.52767784  0.91100601  0.16798549  1  0  0.171652  0  3.793918  0  0  0.171082  0  4.030782  0  0  0.178707  0  4.049575  0  0  0.121533  0.16585  0  4.017979  0
C  C66  1  0.02767632  0.58899231  0.16798730  1  0  0.171712  0  3.793715  0  0  0.171122  0  4.030612  0  0  0.17875  0  4.049403  0  0  0.121526  0.165888  0  4.017813  0
C  C67  1  0.47232076  0.08899276  0.83201321  1  0  0.171752  0  3.793685  0  0  0.171141  0  4.030608  0  0  0.17877  0  4.049398  0  0  0.121518  0.165908  0  4.017805  0
C  C68  1  0.11567705  0.09756162  0.51976285  1  0  -0.079433  0  3.736314  0  0  -0.102338  0  3.985969  0  0  -0.103294  0  4.005607  0  0  -0.086578  -0.101622  0  3.972831  0
C  C69  1  0.38432241  0.59756112  0.48023785  1  0  -0.079509  0  3.736256  0  0  -0.102398  0  3.985929  0  0  -0.103357  0  4.005572  0  0  -0.086642  -0.101684  0  3.972795  0
C  C70  1  0.88432275  0.90244009  0.48023755  1  0  -0.079474  0  3.736327  0  0  -0.102395  0  3.985944  0  0  -0.103353  0  4.005584  0  0  -0.086626  -0.101679  0  3.97281  0
C  C71  1  0.61567619  0.40243961  0.51976165  1  0  -0.079539  0  3.736474  0  0  -0.102467  0  3.986137  0  0  -0.103426  0  4.005779  0  0  -0.086668  -0.101754  0  3.973  0
C  C72  1  0.12568817  0.42663517  0.65258574  1  0  -0.126143  0  3.730457  0  0  -0.138043  0  3.977652  0  0  -0.14513  0  3.99932  0  0  -0.087023  -0.133568  0  3.963346  0
C  C73  1  0.37431262  0.92663180  0.34741255  1  0  -0.12614  0  3.730496  0  0  -0.138038  0  3.977699  0  0  -0.145126  0  3.999371  0  0  -0.087044  -0.13357  0  3.963411  0
C  C74  1  0.87431282  0.57336752  0.34741396  1  0  -0.12609  0  3.730451  0  0  -0.138005  0  3.977639  0  0  -0.145091  0  3.999307  0  0  -0.087033  -0.133533  0  3.96334  0
C  C75  1  0.62568717  0.07336696  0.65258625  1  0  -0.126153  0  3.73049  0  0  -0.138056  0  3.977697  0  0  -0.145141  0  3.999362  0  0  -0.087049  -0.133587  0  3.963404  0
N  N76  1  0.78066168  0.33602859  0.06063572  1  0  -0.30687  0  3.235803  0  0  -0.229821  0  3.534226  0  0  -0.250937  0  3.553625  0  0  -0.261758  -0.214874  0  3.520717  0
N  N77  1  0.71934080  0.83602972  0.93936380  1  0  -0.306822  0  3.235795  0  0  -0.229767  0  3.534222  0  0  -0.250882  0  3.553623  0  0  -0.261729  -0.21482  0  3.520712  0
N  N78  1  0.21933930  0.66397017  0.93936478  1  0  -0.306876  0  3.235837  0  0  -0.229825  0  3.534254  0  0  -0.25094  0  3.553656  0  0  -0.261787  -0.214877  0  3.520742  0
N  N79  1  0.28066019  0.16397003  0.06063670  1  0  -0.306828  0  3.235765  0  0  -0.229777  0  3.534201  0  0  -0.250894  0  3.553602  0  0  -0.261727  -0.21483  0  3.520691  0
N  N80  1  0.89121205  0.30618917  0.99412482  1  0  -0.285233  0  2.9249  0  0  -0.2689  0  3.20559  0  0  -0.276408  0  3.222525  0  0  -0.238237  -0.263762  0  3.194473  0
N  N81  1  0.60879041  0.80618885  0.00587391  1  0  -0.285195  0  2.925017  0  0  -0.268885  0  3.205705  0  0  -0.276395  0  3.22264  0  0  -0.238227  -0.263746  0  3.194585  0
N  N82  1  0.10878894  0.69380959  0.00587568  1  0  -0.285217  0  2.92491  0  0  -0.268883  0  3.2056  0  0  -0.276392  0  3.222536  0  0  -0.238198  -0.263745  0  3.194482  0
N  N83  1  0.39121057  0.19380991  0.99412579  1  0  -0.285176  0  2.925011  0  0  -0.26886  0  3.205698  0  0  -0.276368  0  3.222633  0  0  -0.23822  -0.263721  0  3.19458  0
N  N84  1  0.93828294  0.51188456  0.76275350  1  0  -0.3741  0  3.226783  0  0  -0.301833  0  3.486081  0  0  -0.321547  0  3.504109  0  0  -0.324269  -0.28803  0  3.473346  0
N  N85  1  0.56171939  0.01188226  0.23724613  1  0  -0.374091  0  3.226921  0  0  -0.30186  0  3.486275  0  0  -0.321574  0  3.504306  0  0  -0.324257  -0.288056  0  3.473537  0
N  N86  1  0.06171805  0.48811617  0.23724700  1  0  -0.374108  0  3.226817  0  0  -0.301841  0  3.486097  0  0  -0.321554  0  3.504126  0  0  -0.324271  -0.288038  0  3.473363  0
N  N87  1  0.43827921  0.98811650  0.76275257  1  0  -0.374092  0  3.226748  0  0  -0.301827  0  3.486081  0  0  -0.321542  0  3.504113  0  0  -0.324212  -0.288021  0  3.473341  0
N  N88  1  0.76961515  0.49634897  0.93988491  1  0  -0.47221  0  3.161709  0  0  -0.398456  0  3.441543  0  0  -0.421587  0  3.456336  0  0  -0.358987  -0.381832  0  3.430962  0
N  N89  1  0.73038740  0.99634965  0.06011455  1  0  -0.472179  0  3.161729  0  0  -0.398436  0  3.441539  0  0  -0.421567  0  3.456329  0  0  -0.358975  -0.381813  0  3.430962  0
N  N90  1  0.23038464  0.50365077  0.06011469  1  0  -0.472227  0  3.16167  0  0  -0.398477  0  3.441508  0  0  -0.42161  0  3.456302  0  0  -0.358983  -0.381852  0  3.430926  0
N  N91  1  0.26961239  0.00365010  0.93988585  1  0  -0.472134  0  3.161681  0  0  -0.398384  0  3.441499  0  0  -0.421515  0  3.456289  0  0  -0.35895  -0.381759  0  3.430917  0
O  O92  1  0.99213642  0.84841303  0.76885604  1  0  -0.658176  0  2.017615  0  0  -0.585777  0  2.280428  0  0  -0.614597  0  2.267125  0  0  -0.3329  -0.565352  0  2.288966  0
O  O93  1  0.50786131  0.34841465  0.23114466  1  0  -0.658297  0  2.017558  0  0  -0.585865  0  2.280361  0  0  -0.614685  0  2.267059  0  0  -0.332947  -0.565442  0  2.288901  0
O  O94  1  0.00786219  0.15158573  0.23114425  1  0  -0.658196  0  2.017635  0  0  -0.585775  0  2.280429  0  0  -0.614597  0  2.26713  0  0  -0.33291  -0.56535  0  2.288968  0
O  O95  1  0.49213610  0.65158706  0.76885553  1  0  -0.658155  0  2.017641  0  0  -0.585749  0  2.280439  0  0  -0.614572  0  2.267139  0  0  -0.332888  -0.565325  0  2.288976  0
O  O96  1  0.78353741  0.77496150  0.65713858  1  0  -0.628315  0  1.981889  0  0  -0.565834  0  2.230661  0  0  -0.59549  0  2.222916  0  0  -0.323949  -0.544979  0  2.235171  0
O  O97  1  0.71646147  0.27496313  0.34286066  1  0  -0.628454  0  1.981707  0  0  -0.565959  0  2.230481  0  0  -0.595614  0  2.222733  0  0  -0.323987  -0.545103  0  2.234991  0
O  O98  1  0.21646238  0.22503726  0.34286102  1  0  -0.628341  0  1.981842  0  0  -0.565853  0  2.230606  0  0  -0.59551  0  2.22286  0  0  -0.323939  -0.544998  0  2.235116  0
O  O99  1  0.28353713  0.72503858  0.65713804  1  0  -0.628286  0  1.981921  0  0  -0.565795  0  2.230668  0  0  -0.595451  0  2.222924  0  0  -0.323931  -0.544942  0  2.235178  0
