# generated using pymatgen
data_CdH13C14(NO2)2
_symmetry_space_group_name_H-M   'P 1'
_cell_length_a   10.22776535
_cell_length_b   10.34889459
_cell_length_c   13.75989442
_cell_angle_alpha   109.25682720
_cell_angle_beta   89.99996700
_cell_angle_gamma   90.00011505
_symmetry_Int_Tables_number   1
_chemical_formula_structural   CdH13C14(NO2)2
_chemical_formula_sum   'Cd4 H52 C56 N8 O16'
_cell_volume   1374.94299444
_cell_formula_units_Z   4
loop_
 _symmetry_equiv_pos_site_id
 _symmetry_equiv_pos_as_xyz
  1  'x, y, z'
loop_
 _atom_site_type_symbol
 _atom_site_label
 _atom_site_symmetry_multiplicity
 _atom_site_fract_x
 _atom_site_fract_y
 _atom_site_fract_z
 _atom_site_occupancy
 _atom_site_hle17_bader_spin_density
 _atom_site_hle17_ddec_charge
 _atom_site_hle17_ddec_spin_density
 _atom_site_hle17_ddec_sum_bond_order
 _atom_site_hle17_magmom
 _atom_site_hse06_10hf_bader_spin_density
 _atom_site_hse06_10hf_ddec_charge
 _atom_site_hse06_10hf_ddec_spin_density
 _atom_site_hse06_10hf_ddec_sum_bond_order
 _atom_site_hse06_10hf_magmom
 _atom_site_hse06_bader_spin_density
 _atom_site_hse06_ddec_charge
 _atom_site_hse06_ddec_spin_density
 _atom_site_hse06_ddec_sum_bond_order
 _atom_site_hse06_magmom
 _atom_site_pbe_bader_spin_density
 _atom_site_pbe_cm5_charge
 _atom_site_pbe_ddec_charge
 _atom_site_pbe_ddec_spin_density
 _atom_site_pbe_ddec_sum_bond_order
 _atom_site_pbe_magmom
Cd  Cd0  1  0.63041022  0.98029051  0.59813128  1  0  1.166549  0  1.61625  0  0  0.978837  0  2.057237  0  0  1.040722  0  2.001239  0  0  0.781046  0.934667  0  2.095618  0
Cd  Cd1  1  0.13041135  0.01971036  0.90186881  1  0  1.166523  0  1.616326  0  0  0.978807  0  2.057308  0  0  1.040688  0  2.001312  0  0  0.781047  0.934642  0  2.095692  0
Cd  Cd2  1  0.36958989  0.01970987  0.40186809  1  0  1.166575  0  1.616261  0  0  0.978862  0  2.057249  0  0  1.040743  0  2.001253  0  0  0.781072  0.934702  0  2.095636  0
Cd  Cd3  1  0.86958876  0.98029108  0.09813373  1  0  1.166567  0  1.616289  0  0  0.978858  0  2.057285  0  0  1.040738  0  2.00129  0  0  0.781074  0.934705  0  2.095667  0
H  H4  1  0.99544938  0.49266254  0.61010723  1  0  0.071684  0  0.939754  0  0  0.089143  0  1.00189  0  0  0.089076  0  1.004462  0  0  0.090003  0.089164  0  1.000134  0
H  H5  1  0.49544955  0.50733498  0.88989188  1  0  0.071655  0  0.939735  0  0  0.089164  0  1.001817  0  0  0.08909  0  1.004408  0  0  0.089997  0.089184  0  1.000059  0
H  H6  1  0.00455170  0.50733479  0.38989212  1  0  0.071692  0  0.939767  0  0  0.089158  0  1.001882  0  0  0.089088  0  1.00446  0  0  0.089997  0.089176  0  1.000126  0
H  H7  1  0.50455055  0.49266234  0.11010674  1  0  0.071623  0  0.939733  0  0  0.089089  0  1.001887  0  0  0.089026  0  1.004449  0  0  0.089982  0.089107  0  1.000136  0
H  H8  1  0.86219251  0.46113423  0.52424886  1  0  0.060038  0  0.960205  0  0  0.078583  0  1.023103  0  0  0.0783  0  1.025114  0  0  0.087997  0.07873  0  1.021775  0
H  H9  1  0.36219073  0.53886199  0.97574999  1  0  0.06005  0  0.960147  0  0  0.078572  0  1.023075  0  0  0.078289  0  1.025085  0  0  0.087969  0.07872  0  1.021742  0
H  H10  1  0.13780759  0.53886412  0.47575074  1  0  0.060038  0  0.960223  0  0  0.078583  0  1.023104  0  0  0.078299  0  1.025115  0  0  0.088003  0.078734  0  1.021772  0
H  H11  1  0.63780743  0.46113533  0.02424936  1  0  0.060019  0  0.960212  0  0  0.078572  0  1.023112  0  0  0.078288  0  1.025122  0  0  0.08799  0.078718  0  1.021783  0
H  H12  1  0.99016460  0.26674906  0.39762276  1  0  0.09219  0  0.959963  0  0  0.105529  0  1.022963  0  0  0.107247  0  1.02206  0  0  0.108943  0.104073  0  1.024022  0
H  H13  1  0.49016154  0.73325110  0.10237736  1  0  0.092235  0  0.959962  0  0  0.105537  0  1.022957  0  0  0.107271  0  1.022033  0  0  0.108927  0.104089  0  1.024002  0
H  H14  1  0.00983453  0.73325031  0.60237709  1  0  0.092239  0  0.959938  0  0  0.105563  0  1.022936  0  0  0.107283  0  1.022032  0  0  0.108965  0.104112  0  1.023987  0
H  H15  1  0.50983661  0.26674827  0.89762249  1  0  0.092236  0  0.959922  0  0  0.105553  0  1.022927  0  0  0.10729  0  1.022001  0  0  0.108946  0.104106  0  1.023975  0
H  H16  1  0.11955409  0.29833770  0.48801797  1  0  0.077408  0  0.922343  0  0  0.094186  0  0.982999  0  0  0.094685  0  0.983376  0  0  0.109845  0.093779  0  0.982822  0
H  H17  1  0.61955246  0.70166171  0.01198213  1  0  0.07742  0  0.922385  0  0  0.094167  0  0.983023  0  0  0.094665  0  0.983403  0  0  0.109845  0.093758  0  0.98286  0
H  H18  1  0.88044602  0.70166166  0.51198043  1  0  0.077425  0  0.922367  0  0  0.094186  0  0.983014  0  0  0.094684  0  0.983392  0  0  0.109855  0.093781  0  0.982838  0
H  H19  1  0.38044764  0.29833664  0.98801820  1  0  0.077427  0  0.922366  0  0  0.094196  0  0.98301  0  0  0.094693  0  0.983392  0  0  0.109857  0.093796  0  0.98283  0
H  H20  1  0.93147304  0.03420686  0.68364544  1  0  0.116075  0  0.957643  0  0  0.124909  0  1.018609  0  0  0.127492  0  1.017433  0  0  0.117107  0.123011  0  1.019638  0
H  H21  1  0.43147419  0.96579153  0.81635101  1  0  0.116112  0  0.957482  0  0  0.124947  0  1.018459  0  0  0.127531  0  1.017281  0  0  0.117106  0.123049  0  1.01949  0
H  H22  1  0.06853000  0.96579144  0.31634833  1  0  0.116089  0  0.957432  0  0  0.124934  0  1.018406  0  0  0.127517  0  1.017229  0  0  0.1171  0.123031  0  1.019439  0
H  H23  1  0.56852689  0.03420782  0.18364593  1  0  0.116101  0  0.957626  0  0  0.12493  0  1.018603  0  0  0.127513  0  1.017426  0  0  0.117109  0.123036  0  1.019636  0
H  H24  1  0.11573198  0.18940790  0.62079481  1  0  0.109857  0  0.9851  0  0  0.11795  0  1.050255  0  0  0.11965  0  1.050716  0  0  0.117612  0.116579  0  1.050343  0
H  H25  1  0.61573029  0.81058576  0.87920135  1  0  0.109908  0  0.98493  0  0  0.117988  0  1.050102  0  0  0.119751  0  1.050491  0  0  0.117628  0.116606  0  1.050208  0
H  H26  1  0.88426911  0.81058632  0.37920015  1  0  0.109896  0  0.984844  0  0  0.117958  0  1.050045  0  0  0.119688  0  1.050472  0  0  0.117604  0.116568  0  1.050149  0
H  H27  1  0.38426981  0.18940744  0.12079409  1  0  0.109865  0  0.985103  0  0  0.117973  0  1.050238  0  0  0.119673  0  1.0507  0  0  0.117604  0.116594  0  1.050337  0
H  H28  1  0.63969787  0.14570069  0.44922958  1  0  0.128151  0  0.967225  0  0  0.148171  0  1.031177  0  0  0.150014  0  1.030001  0  0  0.097321  0.146811  0  1.03206  0
H  H29  1  0.13969803  0.85430184  0.05077272  1  0  0.128175  0  0.96718  0  0  0.148154  0  1.031187  0  0  0.149996  0  1.03001  0  0  0.097313  0.14679  0  1.032064  0
H  H30  1  0.36030126  0.85430176  0.55077247  1  0  0.128172  0  0.967184  0  0  0.148177  0  1.031161  0  0  0.150018  0  1.029983  0  0  0.097313  0.1468  0  1.032044  0
H  H31  1  0.86030208  0.14570061  0.94922933  1  0  0.128149  0  0.967222  0  0  0.14817  0  1.031177  0  0  0.150012  0  1.029999  0  0  0.097302  0.146796  0  1.032055  0
H  H32  1  0.76749221  0.15817752  0.36585017  1  0  0.152868  0  0.924779  0  0  0.175177  0  0.977942  0  0  0.177871  0  0.976466  0  0  0.107956  0.173265  0  0.979064  0
H  H33  1  0.26749325  0.84182628  0.13415094  1  0  0.152849  0  0.924792  0  0  0.175163  0  0.977958  0  0  0.177857  0  0.976484  0  0  0.107946  0.173247  0  0.979086  0
H  H34  1  0.23250692  0.84182594  0.63415068  1  0  0.152837  0  0.924782  0  0  0.175151  0  0.977951  0  0  0.177845  0  0.976477  0  0  0.107948  0.173239  0  0.97908  0
H  H35  1  0.73250881  0.15817718  0.86584991  1  0  0.152832  0  0.924803  0  0  0.175142  0  0.977968  0  0  0.177835  0  0.976493  0  0  0.107944  0.173236  0  0.979095  0
H  H36  1  0.71309041  0.30727970  0.46590333  1  0  0.115609  0  0.957455  0  0  0.134482  0  1.021802  0  0  0.136437  0  1.020703  0  0  0.094878  0.133172  0  1.022479  0
H  H37  1  0.21309025  0.69272299  0.03409971  1  0  0.115616  0  0.957471  0  0  0.134487  0  1.021818  0  0  0.136442  0  1.02072  0  0  0.094867  0.133167  0  1.022494  0
H  H38  1  0.28690970  0.69272378  0.53409970  1  0  0.115627  0  0.957457  0  0  0.1345  0  1.021803  0  0  0.136457  0  1.020702  0  0  0.094868  0.133171  0  1.022487  0
H  H39  1  0.78691181  0.30727947  0.96590235  1  0  0.11559  0  0.957442  0  0  0.134458  0  1.021803  0  0  0.136416  0  1.020702  0  0  0.094878  0.133146  0  1.02248  0
H  H40  1  0.10666664  0.46023171  0.86717587  1  0  0.094387  0  0.960816  0  0  0.104246  0  1.023478  0  0  0.107549  0  1.021036  0  0  0.102126  0.101772  0  1.025359  0
H  H41  1  0.60666850  0.53976809  0.63282396  1  0  0.094369  0  0.960764  0  0  0.104236  0  1.023429  0  0  0.107539  0  1.020984  0  0  0.102105  0.101768  0  1.025308  0
H  H42  1  0.89333347  0.53976767  0.13282470  1  0  0.094396  0  0.960733  0  0  0.104256  0  1.023406  0  0  0.10756  0  1.020962  0  0  0.102114  0.101786  0  1.025285  0
H  H43  1  0.39333258  0.46023331  0.36717493  1  0  0.094451  0  0.960766  0  0  0.10433  0  1.023404  0  0  0.107632  0  1.020964  0  0  0.102144  0.101862  0  1.025285  0
H  H44  1  0.15948289  0.64646210  0.79295752  1  0  0.094154  0  0.968854  0  0  0.102485  0  1.032891  0  0  0.105117  0  1.032498  0  0  0.098869  0.10063  0  1.033359  0
H  H45  1  0.65948334  0.35353885  0.70704476  1  0  0.09416  0  0.968823  0  0  0.102458  0  1.032892  0  0  0.105105  0  1.03248  0  0  0.098865  0.100605  0  1.033358  0
H  H46  1  0.84051917  0.35353831  0.20704477  1  0  0.094145  0  0.968786  0  0  0.102419  0  1.032887  0  0  0.105066  0  1.032476  0  0  0.098851  0.100562  0  1.033355  0
H  H47  1  0.34051579  0.64646463  0.29295755  1  0  0.094139  0  0.968815  0  0  0.102414  0  1.032917  0  0  0.10506  0  1.032507  0  0  0.098861  0.100559  0  1.033378  0
H  H48  1  0.32867235  0.60468408  0.65695194  1  0  0.088633  0  0.95679  0  0  0.102989  0  1.011622  0  0  0.105435  0  1.010551  0  0  0.104044  0.10122  0  1.012406  0
H  H49  1  0.82867376  0.39531822  0.84304914  1  0  0.088637  0  0.956825  0  0  0.103017  0  1.011632  0  0  0.105464  0  1.01056  0  0  0.104066  0.101251  0  1.012413  0
H  H50  1  0.67132971  0.39531735  0.34304914  1  0  0.088621  0  0.956885  0  0  0.10298  0  1.011707  0  0  0.105425  0  1.010636  0  0  0.104043  0.101206  0  1.012495  0
H  H51  1  0.17132634  0.60468524  0.15695171  1  0  0.088631  0  0.956784  0  0  0.103006  0  1.011599  0  0  0.105452  0  1.010527  0  0  0.10405  0.101235  0  1.012381  0
H  H52  1  0.44335996  0.38028112  0.59413454  1  0  0.102336  0  0.944064  0  0  0.116035  0  0.999049  0  0  0.118973  0  0.997654  0  0  0.105758  0.113703  0  1.000556  0
H  H53  1  0.94336177  0.61972242  0.90586534  1  0  0.102301  0  0.944096  0  0  0.115995  0  0.999093  0  0  0.118933  0  0.997698  0  0  0.105766  0.113663  0  1.000593  0
H  H54  1  0.55663917  0.61971825  0.40586604  1  0  0.102339  0  0.944041  0  0  0.116036  0  0.999034  0  0  0.118974  0  0.997638  0  0  0.10576  0.113705  0  1.00054  0
H  H55  1  0.05663931  0.38028104  0.09413551  1  0  0.102328  0  0.944089  0  0  0.116026  0  0.999075  0  0  0.118964  0  0.997679  0  0  0.105761  0.113693  0  1.000584  0
C  C56  1  0.96931366  0.45484851  0.52790962  1  0  -0.122918  0  3.686247  0  0  -0.163355  0  3.94499  0  0  -0.165252  0  3.960441  0  0  -0.164874  -0.1621  0  3.934896  0
C  C57  1  0.46931384  0.54514998  0.97209047  1  0  -0.122883  0  3.686241  0  0  -0.163342  0  3.944956  0  0  -0.165242  0  3.960407  0  0  -0.164823  -0.162072  0  3.93484  0
C  C58  1  0.03068645  0.54515188  0.47209048  1  0  -0.12297  0  3.686397  0  0  -0.163377  0  3.945081  0  0  -0.165267  0  3.960526  0  0  -0.164879  -0.162122  0  3.934983  0
C  C59  1  0.53068627  0.45484837  0.02790913  1  0  -0.122834  0  3.68625  0  0  -0.163316  0  3.945044  0  0  -0.165207  0  3.960498  0  0  -0.164873  -0.162062  0  3.934942  0
C  C60  1  0.01319558  0.30629592  0.48024126  1  0  -0.001076  0  3.611521  0  0  -0.058937  0  3.863803  0  0  -0.055072  0  3.874463  0  0  -0.056623  -0.061503  0  3.857029  0
C  C61  1  0.51319393  0.69370326  0.01975737  1  0  -0.001223  0  3.611716  0  0  -0.058913  0  3.86378  0  0  -0.055055  0  3.874432  0  0  -0.056614  -0.061479  0  3.857003  0
C  C62  1  0.98680453  0.69370240  0.51975616  1  0  -0.001115  0  3.61168  0  0  -0.058922  0  3.863863  0  0  -0.05506  0  3.874522  0  0  -0.056644  -0.061481  0  3.857087  0
C  C63  1  0.48680422  0.30629508  0.98024150  1  0  -0.001144  0  3.611581  0  0  -0.058938  0  3.863791  0  0  -0.055084  0  3.874445  0  0  -0.056598  -0.061504  0  3.857017  0
C  C64  1  0.82794623  0.16897355  0.51720436  1  0  0.375599  0  3.691084  0  0  0.351678  0  3.958695  0  0  0.367786  0  3.974755  0  0  0.219034  0.341301  0  3.947157  0
C  C65  1  0.32794502  0.83102976  0.98279478  1  0  0.375607  0  3.691256  0  0  0.3517  0  3.958858  0  0  0.36781  0  3.974915  0  0  0.219097  0.341321  0  3.947313  0
C  C66  1  0.17205486  0.83102889  0.48279551  1  0  0.375579  0  3.691305  0  0  0.35167  0  3.958892  0  0  0.367779  0  3.974951  0  0  0.219068  0.3413  0  3.947348  0
C  C67  1  0.67205410  0.16897267  0.01720436  1  0  0.375576  0  3.69121  0  0  0.351666  0  3.958798  0  0  0.367774  0  3.974858  0  0  0.219057  0.341298  0  3.947255  0
C  C68  1  0.92300499  0.09115155  0.63043485  1  0  0.001889  0  3.768395  0  0  -0.036516  0  4.043005  0  0  -0.034  0  4.063743  0  0  -0.012783  -0.038317  0  4.029104  0
C  C69  1  0.42300892  0.90884175  0.86956545  1  0  0.001791  0  3.768476  0  0  -0.036618  0  4.043081  0  0  -0.034105  0  4.063833  0  0  -0.012769  -0.038385  0  4.029176  0
C  C70  1  0.07699316  0.90884272  0.36956521  1  0  0.001794  0  3.768443  0  0  -0.036624  0  4.043062  0  0  -0.034109  0  4.063808  0  0  -0.012797  -0.038425  0  4.029166  0
C  C71  1  0.57699705  0.09115150  0.13043509  1  0  0.0018  0  3.768365  0  0  -0.036606  0  4.042978  0  0  -0.034091  0  4.063716  0  0  -0.012749  -0.038367  0  4.029077  0
C  C72  1  0.01407535  0.16747494  0.60052561  1  0  -0.052084  0  3.691789  0  0  -0.096282  0  3.959494  0  0  -0.094657  0  3.979352  0  0  -0.002496  -0.097517  0  3.946597  0
C  C73  1  0.51406880  0.83252568  0.89947228  1  0  -0.052092  0  3.692017  0  0  -0.096266  0  3.959731  0  0  -0.094692  0  3.979546  0  0  -0.00249  -0.097503  0  3.946865  0
C  C74  1  0.98593258  0.83252748  0.39947207  1  0  -0.05201  0  3.691925  0  0  -0.096175  0  3.95963  0  0  -0.094574  0  3.979468  0  0  -0.002447  -0.097415  0  3.946752  0
C  C75  1  0.48592544  0.16747571  0.10052515  1  0  -0.052064  0  3.691765  0  0  -0.096269  0  3.959466  0  0  -0.094644  0  3.979322  0  0  -0.002486  -0.097511  0  3.946593  0
C  C76  1  0.73215507  0.19705867  0.44571247  1  0  -0.382953  0  3.69127  0  0  -0.464653  0  3.927816  0  0  -0.467981  0  3.932593  0  0  -0.230685  -0.462239  0  3.924297  0
C  C77  1  0.23215610  0.80294506  0.05428863  1  0  -0.382957  0  3.691295  0  0  -0.464636  0  3.927868  0  0  -0.467962  0  3.932645  0  0  -0.230711  -0.462234  0  3.924347  0
C  C78  1  0.26784210  0.80294479  0.55428837  1  0  -0.382948  0  3.691306  0  0  -0.464657  0  3.927868  0  0  -0.467982  0  3.932642  0  0  -0.230718  -0.462264  0  3.924363  0
C  C79  1  0.76784498  0.19705738  0.94571197  1  0  -0.38289  0  3.691268  0  0  -0.464598  0  3.92783  0  0  -0.467925  0  3.932605  0  0  -0.230687  -0.462197  0  3.92431  0
C  C80  1  0.34728117  0.29967604  0.70100890  1  0  -0.057146  0  3.713002  0  0  -0.040794  0  3.94686  0  0  -0.043868  0  3.965065  0  0  -0.005334  -0.038609  0  3.934637  0
C  C81  1  0.84728030  0.70032528  0.79899266  1  0  -0.057118  0  3.713144  0  0  -0.040839  0  3.947067  0  0  -0.043923  0  3.965291  0  0  -0.005296  -0.038649  0  3.93484  0
C  C82  1  0.65271796  0.70032231  0.29899216  1  0  -0.057296  0  3.713302  0  0  -0.040869  0  3.947071  0  0  -0.043951  0  3.965292  0  0  -0.005359  -0.038679  0  3.934837  0
C  C83  1  0.15272176  0.29967513  0.20100962  1  0  -0.057184  0  3.713129  0  0  -0.040899  0  3.947046  0  0  -0.043984  0  3.965268  0  0  -0.005338  -0.038713  0  3.934823  0
C  C84  1  0.24951788  0.32175076  0.77690139  1  0  -0.078947  0  3.746959  0  0  -0.062935  0  3.977581  0  0  -0.069558  0  3.998797  0  0  -0.014136  -0.058735  0  3.963231  0
C  C85  1  0.74951897  0.67825036  0.72310016  1  0  -0.07896  0  3.747022  0  0  -0.062955  0  3.97768  0  0  -0.069581  0  3.99891  0  0  -0.014171  -0.058753  0  3.963338  0
C  C86  1  0.75048028  0.67825066  0.22309969  1  0  -0.078856  0  3.746949  0  0  -0.062878  0  3.977571  0  0  -0.0695  0  3.998794  0  0  -0.014136  -0.058676  0  3.963214  0
C  C87  1  0.25048015  0.32174899  0.27689823  1  0  -0.078949  0  3.747132  0  0  -0.062923  0  3.977772  0  0  -0.069542  0  3.99899  0  0  -0.014146  -0.058719  0  3.96342  0
C  C88  1  0.18281427  0.44681758  0.80935650  1  0  -0.076037  0  3.750901  0  0  -0.103206  0  4.007189  0  0  -0.103025  0  4.026637  0  0  -0.084359  -0.102708  0  3.993709  0
C  C89  1  0.68281514  0.55318342  0.69064505  1  0  -0.075935  0  3.750838  0  0  -0.103109  0  4.007099  0  0  -0.102929  0  4.026553  0  0  -0.084253  -0.102604  0  3.99362  0
C  C90  1  0.81718584  0.55317977  0.19064504  1  0  -0.076067  0  3.75079  0  0  -0.103241  0  4.00708  0  0  -0.103063  0  4.026535  0  0  -0.084286  -0.102738  0  3.993596  0
C  C91  1  0.31718790  0.44682005  0.30935580  1  0  -0.076185  0  3.750808  0  0  -0.103383  0  4.007093  0  0  -0.103205  0  4.026547  0  0  -0.084374  -0.10288  0  3.993615  0
C  C92  1  0.21142377  0.54921617  0.76753403  1  0  -0.066873  0  3.751729  0  0  -0.081676  0  4.006786  0  0  -0.08353  0  4.026894  0  0  -0.089932  -0.080809  0  3.993458  0
C  C93  1  0.71142537  0.45078591  0.73246849  1  0  -0.06688  0  3.751741  0  0  -0.081638  0  4.006784  0  0  -0.083502  0  4.026883  0  0  -0.089944  -0.080769  0  3.993455  0
C  C94  1  0.78857536  0.45078627  0.23246729  1  0  -0.066819  0  3.751754  0  0  -0.081557  0  4.006781  0  0  -0.083423  0  4.026884  0  0  -0.089932  -0.080687  0  3.993451  0
C  C95  1  0.28857278  0.54921652  0.26752992  1  0  -0.06667  0  3.751519  0  0  -0.081407  0  4.006541  0  0  -0.08327  0  4.026643  0  0  -0.089852  -0.080541  0  3.993209  0
C  C96  1  0.30579336  0.52536723  0.69023111  1  0  -0.045139  0  3.741485  0  0  -0.060089  0  3.991171  0  0  -0.059722  0  4.01016  0  0  -0.081809  -0.060316  0  3.978302  0
C  C97  1  0.80579398  0.47463299  0.80977093  1  0  -0.045236  0  3.741481  0  0  -0.060223  0  3.991179  0  0  -0.059856  0  4.010164  0  0  -0.081854  -0.060455  0  3.978311  0
C  C98  1  0.69420968  0.47462806  0.30976993  1  0  -0.045103  0  3.741411  0  0  -0.060064  0  3.991079  0  0  -0.059691  0  4.010059  0  0  -0.081772  -0.060291  0  3.978219  0
C  C99  1  0.19420613  0.52536639  0.19023038  1  0  -0.045242  0  3.741571  0  0  -0.060213  0  3.991254  0  0  -0.059849  0  4.010248  0  0  -0.081842  -0.060428  0  3.978375  0
C  C100  1  0.37193966  0.40060691  0.65616094  1  0  -0.087904  0  3.737419  0  0  -0.112286  0  3.989795  0  0  -0.114353  0  4.009564  0  0  -0.085077  -0.110985  0  3.976736  0
C  C101  1  0.87193953  0.59939753  0.84384137  1  0  -0.087818  0  3.737341  0  0  -0.112181  0  3.989739  0  0  -0.114246  0  4.00951  0  0  -0.085102  -0.110872  0  3.976667  0
C  C102  1  0.62806142  0.59939350  0.34384135  1  0  -0.087882  0  3.73736  0  0  -0.112287  0  3.98972  0  0  -0.114353  0  4.009493  0  0  -0.085081  -0.110978  0  3.976656  0
C  C103  1  0.12805862  0.40060797  0.15615852  1  0  -0.087868  0  3.737328  0  0  -0.11224  0  3.98973  0  0  -0.114302  0  4.0095  0  0  -0.08509  -0.110931  0  3.976673  0
C  C104  1  0.43590159  0.17735131  0.67073198  1  0  0.676589  0  3.892088  0  0  0.616747  0  4.195152  0  0  0.653647  0  4.185192  0  0  0.208569  0.591588  0  4.201089  0
C  C105  1  0.93590095  0.82265223  0.82926863  1  0  0.676524  0  3.892246  0  0  0.616747  0  4.195238  0  0  0.653649  0  4.185273  0  0  0.208504  0.591585  0  4.201179  0
C  C106  1  0.56409754  0.82264908  0.32926812  1  0  0.676634  0  3.891965  0  0  0.616767  0  4.195031  0  0  0.653669  0  4.185068  0  0  0.208547  0.59161  0  4.200973  0
C  C107  1  0.06409818  0.17735124  0.17073222  1  0  0.676633  0  3.892062  0  0  0.61685  0  4.195055  0  0  0.653754  0  4.185089  0  0  0.208596  0.59169  0  4.200997  0
C  C108  1  0.20857332  0.20918685  0.81606587  1  0  0.61868  0  3.954043  0  0  0.571204  0  4.243114  0  0  0.605367  0  4.238741  0  0  0.189165  0.548113  0  4.244979  0
C  C109  1  0.70857272  0.79081109  0.68393129  1  0  0.618635  0  3.954106  0  0  0.5712  0  4.243127  0  0  0.605361  0  4.238756  0  0  0.189205  0.548108  0  4.244988  0
C  C110  1  0.79142679  0.79081047  0.18393276  1  0  0.61863  0  3.954118  0  0  0.571179  0  4.243166  0  0  0.605342  0  4.238792  0  0  0.189183  0.54809  0  4.245022  0
C  C111  1  0.29142836  0.20919237  0.31606883  1  0  0.618719  0  3.954142  0  0  0.571261  0  4.243176  0  0  0.605425  0  4.238795  0  0  0.189197  0.548168  0  4.245041  0
N  N112  1  0.95323561  0.21600556  0.52987517  1  0  -0.109243  0  3.527176  0  0  -0.018194  0  3.74228  0  0  -0.033695  0  3.767754  0  0  -0.239424  -0.007903  0  3.725127  0
N  N113  1  0.45323335  0.78399388  0.97012079  1  0  -0.10924  0  3.527308  0  0  -0.018277  0  3.742437  0  0  -0.033783  0  3.767928  0  0  -0.239469  -0.007989  0  3.725286  0
N  N114  1  0.04676645  0.78399583  0.47012226  1  0  -0.10931  0  3.527335  0  0  -0.018283  0  3.742433  0  0  -0.033786  0  3.767914  0  0  -0.239442  -0.007995  0  3.725277  0
N  N115  1  0.54676676  0.21600546  0.02987541  1  0  -0.109245  0  3.527295  0  0  -0.018219  0  3.74239  0  0  -0.033722  0  3.767869  0  0  -0.239462  -0.00793  0  3.725235  0
N  N116  1  0.80772959  0.09300505  0.57816548  1  0  -0.481446  0  3.268335  0  0  -0.403312  0  3.553894  0  0  -0.428893  0  3.571537  0  0  -0.372201  -0.385518  0  3.541044  0
N  N117  1  0.30772859  0.90699824  0.92183657  1  0  -0.481384  0  3.268187  0  0  -0.403245  0  3.553744  0  0  -0.428825  0  3.571383  0  0  -0.372232  -0.385459  0  3.540896  0
N  N118  1  0.19227345  0.90699740  0.42183585  1  0  -0.4814  0  3.268207  0  0  -0.403254  0  3.553755  0  0  -0.428834  0  3.571398  0  0  -0.372265  -0.385471  0  3.540913  0
N  N119  1  0.69227054  0.09300524  0.07816573  1  0  -0.481389  0  3.268331  0  0  -0.403251  0  3.553869  0  0  -0.428832  0  3.571514  0  0  -0.3722  -0.385464  0  3.541029  0
O  O120  1  0.52049873  0.16486825  0.73410201  1  0  -0.615703  0  1.949127  0  0  -0.555935  0  2.186888  0  0  -0.584215  0  2.176631  0  0  -0.306967  -0.536143  0  2.193615  0
O  O121  1  0.02049574  0.83513754  0.76590222  1  0  -0.615656  0  1.949199  0  0  -0.555904  0  2.186959  0  0  -0.584179  0  2.176697  0  0  -0.3069  -0.536105  0  2.193684  0
O  O122  1  0.47950138  0.83513316  0.26589833  1  0  -0.615719  0  1.949073  0  0  -0.555944  0  2.186851  0  0  -0.584222  0  2.176593  0  0  -0.306947  -0.536148  0  2.193578  0
O  O123  1  0.97950339  0.16486696  0.23410033  1  0  -0.615686  0  1.949165  0  0  -0.555944  0  2.18693  0  0  -0.58422  0  2.176667  0  0  -0.30696  -0.536144  0  2.193654  0
O  O124  1  0.43548992  0.09556106  0.57723294  1  0  -0.691062  0  2.095572  0  0  -0.607061  0  2.367034  0  0  -0.641936  0  2.353461  0  0  -0.335282  -0.582435  0  2.375524  0
O  O125  1  0.93548644  0.90444148  0.92277106  1  0  -0.691079  0  2.095643  0  0  -0.607095  0  2.367054  0  0  -0.641968  0  2.35348  0  0  -0.335317  -0.582494  0  2.37558  0
O  O126  1  0.56450921  0.90443831  0.42276764  1  0  -0.691086  0  2.095564  0  0  -0.60709  0  2.367053  0  0  -0.641965  0  2.353478  0  0  -0.335292  -0.582453  0  2.375531  0
O  O127  1  0.06451074  0.09555894  0.07723195  1  0  -0.691101  0  2.095562  0  0  -0.607112  0  2.36699  0  0  -0.641987  0  2.353416  0  0  -0.335304  -0.582478  0  2.375474  0
O  O128  1  0.24337749  0.08763810  0.76649127  1  0  -0.618408  0  1.941668  0  0  -0.555961  0  2.168242  0  0  -0.584209  0  2.161038  0  0  -0.316  -0.53598  0  2.17231  0
O  O129  1  0.74337613  0.91236401  0.73350689  1  0  -0.618411  0  1.941652  0  0  -0.555979  0  2.168202  0  0  -0.584231  0  2.161003  0  0  -0.316009  -0.535976  0  2.172262  0
O  O130  1  0.75662163  0.91236332  0.23350908  1  0  -0.618421  0  1.941579  0  0  -0.556  0  2.168164  0  0  -0.584249  0  2.160958  0  0  -0.31603  -0.53601  0  2.172226  0
O  O131  1  0.25662398  0.08763533  0.26648932  1  0  -0.618471  0  1.941585  0  0  -0.55603  0  2.168146  0  0  -0.584285  0  2.160942  0  0  -0.316015  -0.536031  0  2.172208  0
O  O132  1  0.13689002  0.23901571  0.89754289  1  0  -0.655747  0  1.935628  0  0  -0.591156  0  2.175329  0  0  -0.621403  0  2.165058  0  0  -0.342307  -0.569783  0  2.181498  0
O  O133  1  0.63688942  0.76098313  0.60245743  1  0  -0.655724  0  1.935717  0  0  -0.591141  0  2.175401  0  0  -0.621386  0  2.165128  0  0  -0.342313  -0.569769  0  2.181568  0
O  O134  1  0.86311009  0.76098469  0.10245794  1  0  -0.655716  0  1.935714  0  0  -0.591122  0  2.175403  0  0  -0.621369  0  2.165131  0  0  -0.342296  -0.569749  0  2.18157  0
O  O135  1  0.36310971  0.23901520  0.39753998  1  0  -0.655751  0  1.935871  0  0  -0.591167  0  2.175579  0  0  -0.62141  0  2.165301  0  0  -0.34232  -0.569798  0  2.181753  0
