# generated using pymatgen
data_AlH12C27(NO4)3
_symmetry_space_group_name_H-M   'P 1'
_cell_length_a   4.14712267
_cell_length_b   15.74026123
_cell_length_c   15.77444003
_cell_angle_alpha   60.07330889
_cell_angle_beta   85.87244048
_cell_angle_gamma   87.47349617
_symmetry_Int_Tables_number   1
_chemical_formula_structural   AlH12C27(NO4)3
_chemical_formula_sum   'Al1 H12 C27 N3 O12'
_cell_volume   890.05415099
_cell_formula_units_Z   1
loop_
 _symmetry_equiv_pos_site_id
 _symmetry_equiv_pos_as_xyz
  1  'x, y, z'
loop_
 _atom_site_type_symbol
 _atom_site_label
 _atom_site_symmetry_multiplicity
 _atom_site_fract_x
 _atom_site_fract_y
 _atom_site_fract_z
 _atom_site_occupancy
 _atom_site_pbe_bader_charge
 _atom_site_pbe_bader_spin_density
 _atom_site_pbe_cm5_charge
 _atom_site_pbe_ddec_charge
 _atom_site_pbe_ddec_spin_density
 _atom_site_pbe_ddec_sum_bond_order
 _atom_site_pbe_magmom
Al  Al0  1  0.01817360  0.49700796  0.50123262  1  2.514  0  0.443669  1.626135  0  2.536932  0
H  H1  1  0.44487164  0.95367256  0.13726351  1  0.117993  0  0.117585  0.124262  0  0.997532  0
H  H2  1  0.70245121  0.39891875  0.94771402  1  0.085937  0  0.114448  0.121608  0  0.994494  0
H  H3  1  0.78726397  0.15006782  0.39059383  1  0.130906  0  0.113166  0.119619  0  0.991051  0
H  H4  1  0.33170255  0.48855267  0.24787984  1  0.125369  0  0.119541  0.133057  0  0.972176  0
H  H5  1  0.34813252  0.40001301  0.15235709  1  0.113571  0  0.112968  0.11711  0  0.991308  0
H  H6  1  0.25450811  0.24585008  0.77211638  1  0.102403  0  0.11747  0.126248  0  0.972838  0
H  H7  1  0.26577975  0.15214415  0.95522537  1  0.085574  0  0.114354  0.119258  0  0.989964  0
H  H8  1  0.50868730  0.76731480  0.49932490  1  0.111572  0  0.114291  0.125178  0  0.977422  0
H  H9  1  0.50465502  0.95058022  0.41014253  1  0.081766  0  0.112183  0.113598  0  0.997709  0
H  H10  1  0.08375477  0.67715330  0.29508129  1  0.628497  0  0.314813  0.35131  0  0.949766  0
H  H11  1  0.39069395  0.20066179  0.57354093  1  0.65963  0  0.313755  0.378625  0  0.960431  0
H  H12  1  0.33070193  0.57969664  0.71483922  1  0.656628  0  0.313453  0.378743  0  0.962351  0
C  C13  1  0.50526391  0.64909930  0.42411227  1  1.58057  0  0.278116  0.659477  0  4.067842  0
C  C14  1  0.54571753  0.42487076  0.42487301  1  1.582382  0  0.279276  0.664118  0  4.055307  0
C  C15  1  0.48990637  0.42434295  0.64913054  1  1.54847  0  0.27989  0.663768  0  4.053895  0
C  C16  1  0.47861959  0.75848789  0.36791002  1  -0.089016  0  -0.00451  -0.056219  0  3.954059  0
C  C17  1  0.47705256  0.37346261  0.75779288  1  0.05969  0  -0.000149  -0.055379  0  3.938343  0
C  C18  1  0.55547543  0.36949294  0.37134502  1  0.01487  0  -0.000844  -0.055591  0  3.935039  0
C  C19  1  0.45305929  0.81081277  0.26567420  1  -0.045782  0  -0.012191  -0.080653  0  3.989927  0
C  C20  1  0.45671729  0.91311813  0.21662874  1  0.031546  0  -0.06316  -0.092206  0  3.908233  0
C  C21  1  0.60330979  0.41759542  0.80698534  1  -0.056082  0  0.000844  -0.043738  0  3.949571  0
C  C22  1  0.60523519  0.36572173  0.90878484  1  0.065245  0  -0.06761  -0.112179  0  3.912767  0
C  C23  1  0.68736932  0.27407511  0.41196841  1  -0.064526  0  0.000895  -0.044471  0  3.95487  0
C  C24  1  0.69211936  0.22469622  0.35910114  1  0.00905  0  -0.068813  -0.113371  0  3.918371  0
C  C25  1  0.43265547  0.41466343  0.27794937  1  -0.027222  0  -0.068148  -0.072315  0  3.931815  0
C  C26  1  0.44298067  0.36582312  0.22489775  1  0.03759  0  -0.071206  -0.093231  0  3.944517  0
C  C27  1  0.35110587  0.27861232  0.81152922  1  -0.05756  0  -0.069741  -0.075164  0  3.94691  0
C  C28  1  0.35782978  0.22655300  0.91305234  1  0.032336  0  -0.069995  -0.09247  0  3.941669  0
C  C29  1  0.49234590  0.80886969  0.41999907  1  -0.050049  0  -0.077836  -0.091301  0  3.952781  0
C  C30  1  0.49198867  0.91071783  0.37053035  1  0.111273  0  -0.069331  -0.080214  0  3.944738  0
C  C31  1  0.47818303  0.96365347  0.26806131  1  -0.001228  0  -0.00433  0.000165  0  3.974509  0
C  C32  1  0.49306058  0.07179431  0.21409640  1  1.053891  0  0.258204  0.38486  0  4.014607  0
C  C33  1  0.48362609  0.27023682  0.96225096  1  -0.010081  0  0.001361  0.016315  0  3.965372  0
C  C34  1  0.49300941  0.21611772  0.07011210  1  1.035443  0  0.258816  0.382386  0  4.018609  0
C  C35  1  0.56776606  0.26984250  0.26601599  1  -0.050295  0  0.001461  0.014489  0  3.972261  0
C  C36  1  0.55110549  0.21554066  0.21251677  1  1.053314  0  0.258399  0.38406  0  4.018121  0
C  C37  1  0.43180156  0.76233406  0.20475081  1  1.546447  0  0.226634  0.568925  0  4.130008  0
C  C38  1  0.81844276  0.22174355  0.51225539  1  1.606487  0  0.252348  0.623488  0  4.081418  0
C  C39  1  0.74549362  0.51871484  0.75486505  1  1.588164  0  0.253545  0.626342  0  4.075102  0
N  N40  1  0.45882105  0.11834865  0.11681746  1  -1.173987  0  -0.304599  -0.405487  0  3.201688  0
N  N41  1  0.53609847  0.26842433  0.11462566  1  -1.181945  0  -0.307736  -0.411959  0  3.204421  0
N  N42  1  0.54286872  0.11708689  0.26524849  1  -1.160034  0  -0.306546  -0.410779  0  3.198232  0
O  O43  1  0.26959770  0.40631156  0.60810194  1  -1.254312  0  -0.234078  -0.593352  0  2.342762  0
O  O44  1  0.27298379  0.60359663  0.48568263  1  -1.256187  0  -0.233464  -0.589975  0  2.359909  0
O  O45  1  0.31023717  0.48464496  0.41002994  1  -1.268498  0  -0.237298  -0.611979  0  2.417817  0
O  O46  1  0.72684158  0.48263784  0.60471147  1  -1.26299  0  -0.234339  -0.614235  0  2.42024  0
O  O47  1  0.77450853  0.40958891  0.48105152  1  -1.256399  0  -0.231764  -0.603357  0  2.394363  0
O  O48  1  0.76305508  0.61029926  0.40771475  1  -1.246391  0  -0.226846  -0.591304  0  2.354259  0
O  O49  1  0.23213756  0.68449736  0.24012284  1  -1.124089  0  -0.331923  -0.460321  0  2.278718  0
O  O50  1  0.58849361  0.79065461  0.12737611  1  -1.098459  0  -0.277839  -0.437332  0  2.041099  0
O  O51  1  0.62522830  0.19765340  0.59076625  1  -1.145614  0  -0.322201  -0.461602  0  2.241013  0
O  O52  1  0.10816457  0.19924552  0.51926485  1  -1.174685  0  -0.276198  -0.502929  0  2.27123  0
O  O53  1  0.57107768  0.59689747  0.70045790  1  -1.144066  0  -0.322493  -0.46617  0  2.253747  0
O  O54  1  0.03013894  0.52625747  0.76830462  1  -1.171119  0  -0.276295  -0.503861  0  2.280128  0
