# generated using pymatgen
data_ZnH7C11SNO4
_symmetry_space_group_name_H-M   'P 1'
_cell_length_a   7.56693434
_cell_length_b   9.68437220
_cell_length_c   16.37265026
_cell_angle_alpha   89.99983926
_cell_angle_beta   89.99983523
_cell_angle_gamma   97.21843137
_symmetry_Int_Tables_number   1
_chemical_formula_structural   ZnH7C11SNO4
_chemical_formula_sum   'Zn4 H28 C44 S4 N4 O16'
_cell_volume   1190.29507243
_cell_formula_units_Z   4
loop_
 _symmetry_equiv_pos_site_id
 _symmetry_equiv_pos_as_xyz
  1  'x, y, z'
loop_
 _atom_site_type_symbol
 _atom_site_label
 _atom_site_symmetry_multiplicity
 _atom_site_fract_x
 _atom_site_fract_y
 _atom_site_fract_z
 _atom_site_occupancy
 _atom_site_hle17_bader_spin_density
 _atom_site_hle17_ddec_charge
 _atom_site_hle17_ddec_spin_density
 _atom_site_hle17_ddec_sum_bond_order
 _atom_site_hle17_magmom
 _atom_site_hse06_10hf_bader_charge
 _atom_site_hse06_10hf_bader_spin_density
 _atom_site_hse06_10hf_ddec_charge
 _atom_site_hse06_10hf_ddec_spin_density
 _atom_site_hse06_10hf_ddec_sum_bond_order
 _atom_site_hse06_10hf_magmom
 _atom_site_hse06_bader_spin_density
 _atom_site_hse06_ddec_charge
 _atom_site_hse06_ddec_spin_density
 _atom_site_hse06_ddec_sum_bond_order
 _atom_site_hse06_magmom
 _atom_site_pbe_bader_spin_density
 _atom_site_pbe_cm5_charge
 _atom_site_pbe_ddec_charge
 _atom_site_pbe_ddec_spin_density
 _atom_site_pbe_ddec_sum_bond_order
 _atom_site_pbe_magmom
Zn  Zn0  1  0.84318805  0.40057051  0.47598557  1  0  1.049123  0  1.844801  0  1.332023  0  0.875431  0  2.314477  0  0  0.92806  0  2.248597  0  0  0.676426  0.83877  0  2.359575  0
Zn  Zn1  1  0.65680670  0.09942870  0.97598563  1  0  1.049068  0  1.844952  0  1.331991  0  0.875381  0  2.314658  0  0  0.928016  0  2.248767  0  0  0.676425  0.838716  0  2.359756  0
Zn  Zn2  1  0.15680691  0.59942827  0.52401352  1  0  1.049116  0  1.844859  0  1.331827  0  0.875425  0  2.314548  0  0  0.928066  0  2.248646  0  0  0.676414  0.838756  0  2.359646  0
Zn  Zn3  1  0.34319733  0.90056900  0.02401407  1  0  1.049066  0  1.844932  0  1.331718  0  0.875399  0  2.314634  0  0  0.928039  0  2.24873  0  0  0.676429  0.83873  0  2.359732  0
H  H4  1  0.46095181  0.51630081  0.66676364  1  0  0.124751  0  0.97305  0  0.168999  0  0.128521  0  1.044567  0  0  0.132856  0  1.040339  0  0  0.102647  0.125358  0  1.047678  0
H  H5  1  0.03905820  0.98369671  0.16676141  1  0  0.124771  0  0.973048  0  0.168921  0  0.128571  0  1.044544  0  0  0.132863  0  1.040363  0  0  0.102656  0.125409  0  1.047651  0
H  H6  1  0.53905726  0.48368751  0.33324278  1  0  0.124812  0  0.973004  0  0.169081  0  0.128652  0  1.044464  0  0  0.13296  0  1.040265  0  0  0.102706  0.125495  0  1.047557  0
H  H7  1  0.96094176  0.01630830  0.83324318  1  0  0.124776  0  0.972967  0  0.169042  0  0.128612  0  1.04444  0  0  0.132918  0  1.040241  0  0  0.102692  0.125447  0  1.047554  0
H  H8  1  0.21888301  0.14599154  0.52206182  1  0  0.108137  0  0.954064  0  0.126344  0  0.119513  0  1.00954  0  0  0.121874  0  1.009986  0  0  0.108695  0.117837  0  1.009285  0
H  H9  1  0.28110501  0.35401140  0.02206375  1  0  0.108078  0  0.954122  0  0.126181  0  0.119508  0  1.009535  0  0  0.121873  0  1.009978  0  0  0.108712  0.117833  0  1.009281  0
H  H10  1  0.78110936  0.85401557  0.47793483  1  0  0.108084  0  0.95414  0  0.126132  0  0.119493  0  1.009574  0  0  0.121858  0  1.010017  0  0  0.108725  0.117817  0  1.009322  0
H  H11  1  0.71889816  0.64598110  0.97793656  1  0  0.108086  0  0.954072  0  0.126251  0  0.119545  0  1.009451  0  0  0.12191  0  1.009893  0  0  0.108721  0.117868  0  1.009202  0
H  H12  1  0.23525615  0.96800549  0.41283568  1  0  0.10059  0  0.946503  0  0.129965  0  0.11191  0  1.005457  0  0  0.114759  0  1.002891  0  0  0.109049  0.109773  0  1.007368  0
H  H13  1  0.26472772  0.53199493  0.91283755  1  0  0.100493  0  0.946748  0  0.130047  0  0.111808  0  1.005683  0  0  0.11465  0  1.003132  0  0  0.109026  0.109675  0  1.007583  0
H  H14  1  0.76472910  0.03199852  0.58716219  1  0  0.100559  0  0.946664  0  0.13003  0  0.111863  0  1.005617  0  0  0.114706  0  1.003065  0  0  0.109051  0.10973  0  1.007519  0
H  H15  1  0.73527728  0.46800069  0.08716521  1  0  0.100629  0  0.946712  0  0.130035  0  0.111931  0  1.005658  0  0  0.11478  0  1.003095  0  0  0.109042  0.109796  0  1.007566  0
H  H16  1  0.34738741  0.63029813  0.80077492  1  0  0.114378  0  0.945681  0  0.087615  0  0.126857  0  1.002273  0  0  0.130054  0  1.000119  0  0  0.108967  0.124496  0  1.003972  0
H  H17  1  0.15262614  0.86970177  0.30077089  1  0  0.114292  0  0.945698  0  0.087401  0  0.126762  0  1.002342  0  0  0.129953  0  1.000199  0  0  0.108933  0.124409  0  1.004029  0
H  H18  1  0.65262661  0.36968809  0.19923151  1  0  0.114289  0  0.945696  0  0.087445  0  0.126795  0  1.002304  0  0  0.129989  0  1.000159  0  0  0.108949  0.12444  0  1.003991  0
H  H19  1  0.84737204  0.13030845  0.69923310  1  0  0.114273  0  0.945699  0  0.087446  0  0.126773  0  1.002312  0  0  0.129967  0  1.000166  0  0  0.10894  0.12442  0  1.003998  0
H  H20  1  0.48115859  0.32842038  0.54390585  1  0  0.093953  0  0.944138  0  0.140234  0  0.100071  0  1.011563  0  0  0.103082  0  1.008557  0  0  0.11881  0.097818  0  1.013763  0
H  H21  1  0.01882726  0.17157828  0.04390721  1  0  0.093931  0  0.944144  0  0.140208  0  0.100096  0  1.011478  0  0  0.103098  0  1.008482  0  0  0.118778  0.097838  0  1.013686  0
H  H22  1  0.51883556  0.67158152  0.45609080  1  0  0.093891  0  0.944198  0  0.140187  0  0.100054  0  1.011555  0  0  0.103065  0  1.008549  0  0  0.118803  0.097801  0  1.013758  0
H  H23  1  0.98117378  0.82841735  0.95609066  1  0  0.093896  0  0.944063  0  0.140264  0  0.100067  0  1.011396  0  0  0.10307  0  1.008401  0  0  0.118745  0.097808  0  1.013606  0
H  H24  1  0.76260655  0.17185783  0.35537309  1  0  0.090851  0  0.931083  0  0.125182  0  0.100435  0  0.98989  0  0  0.103296  0  0.987385  0  0  0.119937  0.098327  0  0.991701  0
H  H25  1  0.73737830  0.32814102  0.85537755  1  0  0.090853  0  0.931006  0  0.125373  0  0.100419  0  0.989814  0  0  0.10328  0  0.987309  0  0  0.119941  0.098313  0  0.99162  0
H  H26  1  0.23737783  0.82814098  0.64462051  1  0  0.090877  0  0.931016  0  0.125431  0  0.100446  0  0.98983  0  0  0.103305  0  0.987331  0  0  0.119955  0.09834  0  0.991636  0
H  H27  1  0.26262315  0.67186502  0.14462521  1  0  0.090883  0  0.931119  0  0.125339  0  0.100445  0  0.9899  0  0  0.103306  0  0.987394  0  0  0.119986  0.098341  0  0.991704  0
H  H28  1  0.51235454  0.98394937  0.32497066  1  0  0.098002  0  0.961416  0  0.094714  0  0.104687  0  1.026278  0  0  0.10723  0  1.026751  0  0  0.102274  0.102846  0  1.026136  0
H  H29  1  0.98763211  0.51605133  0.82497286  1  0  0.098127  0  0.961439  0  0.094604  0  0.104771  0  1.02634  0  0  0.107315  0  1.02681  0  0  0.102313  0.102931  0  1.026201  0
H  H30  1  0.48762887  0.01605153  0.67502477  1  0  0.098164  0  0.961427  0  0.09464  0  0.104802  0  1.026323  0  0  0.107349  0  1.026787  0  0  0.102336  0.102962  0  1.026187  0
H  H31  1  0.01237180  0.48395367  0.17503051  1  0  0.09816  0  0.961514  0  0.094515  0  0.104806  0  1.026399  0  0  0.10735  0  1.026871  0  0  0.102337  0.102968  0  1.026261  0
C  C32  1  0.71952659  0.63570462  0.68900534  1  0  -0.15209  0  3.726778  0  -0.27871  0  -0.133618  0  3.993024  0  0  -0.140738  0  4.013036  0  0  -0.028221  -0.129094  0  3.979733  0
C  C33  1  0.78048463  0.86429571  0.18900176  1  0  -0.152174  0  3.726696  0  -0.278775  0  -0.133828  0  3.99313  0  0  -0.140971  0  4.013164  0  0  -0.028312  -0.129275  0  3.979803  0
C  C34  1  0.28047100  0.36429415  0.31099498  1  0  -0.152252  0  3.726902  0  -0.278435  0  -0.133754  0  3.993159  0  0  -0.140904  0  4.013205  0  0  -0.028306  -0.12922  0  3.979855  0
C  C35  1  0.21952486  0.13570302  0.81099734  1  0  -0.152291  0  3.726897  0  -0.27879  0  -0.133869  0  3.993224  0  0  -0.141017  0  4.013266  0  0  -0.028303  -0.129318  0  3.979899  0
C  C36  1  0.82313422  0.59570568  0.61831669  1  0  0.668049  0  3.94215  0  1.644717  0  0.61612  0  4.233948  0  0  0.652092  0  4.226205  0  0  0.205469  0.591728  0  4.238544  0
C  C37  1  0.67687089  0.90429505  0.11831562  1  0  0.668119  0  3.94233  0  1.644695  0  0.616235  0  4.234103  0  0  0.652214  0  4.226359  0  0  0.205528  0.591833  0  4.238701  0
C  C38  1  0.17686539  0.40429725  0.38168180  1  0  0.66814  0  3.942093  0  1.644648  0  0.616188  0  4.233933  0  0  0.652168  0  4.226191  0  0  0.205531  0.591792  0  4.238529  0
C  C39  1  0.32313129  0.09569954  0.88168408  1  0  0.668131  0  3.9422  0  1.644408  0  0.616251  0  4.233957  0  0  0.65223  0  4.226213  0  0  0.205527  0.59185  0  4.238553  0
C  C40  1  0.54315630  0.58845289  0.70612063  1  0  -0.07728  0  3.753438  0  0.073656  0  -0.109995  0  4.021674  0  0  -0.108818  0  4.039099  0  0  -0.099274  -0.110707  0  4.009836  0
C  C41  1  0.95685382  0.91154943  0.20611856  1  0  -0.077308  0  3.753478  0  0.073582  0  -0.110042  0  4.021765  0  0  -0.108824  0  4.039221  0  0  -0.099309  -0.110762  0  4.009919  0
C  C42  1  0.45684801  0.41153857  0.29388397  1  0  -0.077349  0  3.753392  0  0.073186  0  -0.110138  0  4.021613  0  0  -0.108937  0  4.039077  0  0  -0.099308  -0.110852  0  4.009783  0
C  C43  1  0.04315194  0.08845869  0.79388542  1  0  -0.077272  0  3.753487  0  0.073444  0  -0.110045  0  4.021722  0  0  -0.108842  0  4.039189  0  0  -0.099307  -0.110768  0  4.009886  0
C  C44  1  0.33716097  0.14773872  0.48409049  1  0  -0.113069  0  3.723861  0  -0.013067  0  -0.124697  0  3.975517  0  0  -0.132635  0  3.99882  0  0  -0.081532  -0.119676  0  3.959883  0
C  C45  1  0.16282828  0.35226483  0.98409135  1  0  -0.112964  0  3.723726  0  -0.013041  0  -0.12467  0  3.975429  0  0  -0.132611  0  3.99873  0  0  -0.081541  -0.119651  0  3.959798  0
C  C46  1  0.66283272  0.85226840  0.51590677  1  0  -0.112917  0  3.723706  0  -0.013111  0  -0.124577  0  3.975405  0  0  -0.132517  0  3.998709  0  0  -0.081513  -0.11956  0  3.959777  0
C  C47  1  0.83717690  0.64773184  0.01590897  1  0  -0.112851  0  3.723608  0  -0.013117  0  -0.124579  0  3.975307  0  0  -0.13252  0  3.998612  0  0  -0.081516  -0.11956  0  3.959674  0
C  C48  1  0.58933063  0.82871276  0.88683579  1  0  0.661489  0  3.949404  0  1.645347  0  0.610475  0  4.24336  0  0  0.646032  0  4.235098  0  0  0.204134  0.586396  0  4.248154  0
C  C49  1  0.91067329  0.67129067  0.38683419  1  0  0.661531  0  3.949234  0  1.645341  0  0.610542  0  4.243145  0  0  0.646106  0  4.234882  0  0  0.204211  0.586462  0  4.247941  0
C  C50  1  0.41067093  0.17128599  0.11316330  1  0  0.661441  0  3.949291  0  1.645385  0  0.610418  0  4.243259  0  0  0.645976  0  4.234998  0  0  0.204106  0.586338  0  4.248054  0
C  C51  1  0.08932764  0.32871225  0.61316491  1  0  0.661561  0  3.949231  0  1.645375  0  0.610552  0  4.243173  0  0  0.646117  0  4.234907  0  0  0.204166  0.586469  0  4.247967  0
C  C52  1  0.61295675  0.74211630  0.81396371  1  0  -0.152244  0  3.729635  0  -0.25728  0  -0.134887  0  4.000112  0  0  -0.141081  0  4.019569  0  0  -0.027828  -0.130887  0  3.986859  0
C  C53  1  0.88705129  0.75788544  0.31396078  1  0  -0.152192  0  3.729647  0  -0.257318  0  -0.134826  0  4.000085  0  0  -0.141039  0  4.019562  0  0  -0.027792  -0.130824  0  3.986832  0
C  C54  1  0.38704429  0.25787934  0.18603721  1  0  -0.152181  0  3.729542  0  -0.257403  0  -0.134849  0  4.000066  0  0  -0.141045  0  4.019527  0  0  -0.02783  -0.13085  0  3.986817  0
C  C55  1  0.11295262  0.24211956  0.68604015  1  0  -0.152209  0  3.729541  0  -0.257308  0  -0.134882  0  4.000063  0  0  -0.141093  0  4.019537  0  0  -0.027797  -0.130874  0  3.986803  0
C  C56  1  0.34604187  0.04996281  0.42225940  1  0  -0.001814  0  3.708511  0  -0.061833  0  -0.02312  0  3.959005  0  0  -0.019058  0  3.977643  0  0  -0.062226  -0.025358  0  3.946206  0
C  C57  1  0.15394649  0.45004107  0.92226255  1  0  -0.001759  0  3.7085  0  -0.063145  0  -0.023048  0  3.959023  0  0  -0.018985  0  3.977664  0  0  -0.062236  -0.025287  0  3.946227  0
C  C58  1  0.65394654  0.95004432  0.57773603  1  0  -0.001847  0  3.708536  0  -0.063077  0  -0.023135  0  3.959044  0  0  -0.019076  0  3.977687  0  0  -0.062254  -0.025373  0  3.946248  0
C  C59  1  0.84605903  0.54995767  0.07774082  1  0  -0.002088  0  3.70863  0  -0.063422  0  -0.023379  0  3.95917  0  0  -0.01932  0  3.977814  0  0  -0.062308  -0.025619  0  3.946374  0
C  C60  1  0.48269542  0.64891170  0.77743650  1  0  -0.081832  0  3.753813  0  0.004373  0  -0.113387  0  4.018173  0  0  -0.112946  0  4.035848  0  0  -0.098584  -0.113156  0  4.005763  0
C  C61  1  0.01731548  0.85108729  0.27743268  1  0  -0.081782  0  3.753862  0  0.00445  0  -0.113328  0  4.018229  0  0  -0.112884  0  4.035909  0  0  -0.098547  -0.113105  0  4.005816  0
C  C62  1  0.51730987  0.35107767  0.22256748  1  0  -0.081746  0  3.753657  0  0.004638  0  -0.113327  0  4.018079  0  0  -0.112888  0  4.03575  0  0  -0.098531  -0.1131  0  4.005665  0
C  C63  1  0.98268712  0.14891771  0.72257008  1  0  -0.081718  0  3.753801  0  0.004561  0  -0.113294  0  4.018214  0  0  -0.112846  0  4.035882  0  0  -0.098545  -0.113071  0  4.005796  0
C  C64  1  0.48197538  0.24903675  0.49677732  1  0  0.13717  0  3.659142  0  0.460444  0  0.102645  0  3.911945  0  0  0.109746  0  3.930789  0  0  0.052023  0.098157  0  3.899163  0
C  C65  1  0.01801343  0.25096464  0.99677854  1  0  0.137162  0  3.659067  0  0.460934  0  0.102679  0  3.911858  0  0  0.109791  0  3.930703  0  0  0.052054  0.098188  0  3.899076  0
C  C66  1  0.51801895  0.75096620  0.50321994  1  0  0.137235  0  3.659024  0  0.460847  0  0.102687  0  3.911876  0  0  0.109791  0  3.930719  0  0  0.051994  0.098193  0  3.899098  0
C  C67  1  0.98199324  0.74903306  0.00322300  1  0  0.137185  0  3.659091  0  0.461059  0  0.102705  0  3.911897  0  0  0.109816  0  3.930745  0  0  0.052113  0.098214  0  3.899114  0
C  C68  1  0.63913269  0.16157427  0.39045913  1  0  0.128712  0  3.679094  0  0.500073  0  0.100124  0  3.921212  0  0  0.10641  0  3.941237  0  0  0.051283  0.096146  0  3.907596  0
C  C69  1  0.86085146  0.33842961  0.89046280  1  0  0.128881  0  3.678863  0  0.499272  0  0.100352  0  3.920933  0  0  0.106636  0  3.940963  0  0  0.051377  0.096372  0  3.907315  0
C  C70  1  0.36085239  0.83842871  0.60953447  1  0  0.128905  0  3.679034  0  0.499435  0  0.100336  0  3.921115  0  0  0.106619  0  3.941145  0  0  0.05138  0.096356  0  3.907498  0
C  C71  1  0.13914947  0.66157331  0.10954057  1  0  0.128824  0  3.678986  0  0.49956  0  0.100339  0  3.921022  0  0  0.106623  0  3.941049  0  0  0.05134  0.096359  0  3.907406  0
C  C72  1  0.49928548  0.05777996  0.37416812  1  0  -0.124205  0  3.758381  0  -0.054092  0  -0.13437  0  4.010156  0  0  -0.142766  0  4.034916  0  0  -0.082168  -0.129096  0  3.993543  0
C  C73  1  0.00069874  0.44222107  0.87417026  1  0  -0.124526  0  3.758361  0  -0.052243  0  -0.134664  0  4.010147  0  0  -0.143061  0  4.034907  0  0  -0.082283  -0.129393  0  3.993541  0
C  C74  1  0.50069828  0.94222302  0.62582792  1  0  -0.124564  0  3.758453  0  -0.052375  0  -0.134681  0  4.010234  0  0  -0.143077  0  4.034996  0  0  -0.08233  -0.129411  0  3.993627  0
C  C75  1  0.99930713  0.55777976  0.12583372  1  0  -0.124373  0  3.758415  0  -0.052229  0  -0.13453  0  4.010182  0  0  -0.142926  0  4.034945  0  0  -0.08224  -0.129263  0  3.99358  0
S  S76  1  0.80979613  0.75610942  0.75984283  1  0  0.165274  0  2.609488  0  0.249067  0  0.164515  0  2.923098  0  0  0.16377  0  2.931132  0  0  0.105655  0.164769  0  2.917998  0
S  S77  1  0.69021115  0.74389366  0.25983957  1  0  0.165344  0  2.609294  0  0.249346  0  0.164626  0  2.922948  0  0  0.163894  0  2.930997  0  0  0.105711  0.164867  0  2.917836  0
S  S78  1  0.19020452  0.24389976  0.24015566  1  0  0.165319  0  2.609594  0  0.249274  0  0.164567  0  2.923207  0  0  0.163834  0  2.931253  0  0  0.105674  0.164817  0  2.918104  0
S  S79  1  0.30979667  0.25610299  0.74015709  1  0  0.165343  0  2.60939  0  0.249295  0  0.164614  0  2.923012  0  0  0.163883  0  2.931066  0  0  0.105673  0.164856  0  2.9179  0
N  N80  1  0.63091884  0.25490346  0.45111509  1  0  -0.320819  0  3.27657  0  -1.312603  0  -0.233863  0  3.545348  0  0  -0.254744  0  3.561727  0  0  -0.327674  -0.21986  0  3.534087  0
N  N81  1  0.86906631  0.24509279  0.95111646  1  0  -0.320755  0  3.276474  0  -1.31276  0  -0.23391  0  3.545374  0  0  -0.254795  0  3.561755  0  0  -0.327664  -0.219897  0  3.534101  0
N  N82  1  0.36907330  0.74509428  0.54888095  1  0  -0.320896  0  3.27654  0  -1.312723  0  -0.233977  0  3.545418  0  0  -0.254867  0  3.561815  0  0  -0.327671  -0.219963  0  3.534143  0
N  N83  1  0.13093903  0.75490491  0.04888508  1  0  -0.320843  0  3.276741  0  -1.312861  0  -0.234001  0  3.54558  0  0  -0.254883  0  3.561956  0  0  -0.32774  -0.219989  0  3.534308  0
O  O84  1  0.74228848  0.50522627  0.57058294  1  0  -0.621301  0  2.083317  0  -1.195417  0  -0.551237  0  2.344346  0  0  -0.580432  0  2.331487  0  0  -0.30901  -0.530873  0  2.3522  0
O  O85  1  0.75771863  0.99477680  0.07058284  1  0  -0.621363  0  2.083397  0  -1.195485  0  -0.55127  0  2.344386  0  0  -0.580467  0  2.331527  0  0  -0.309041  -0.530901  0  2.352235  0
O  O86  1  0.25771009  0.49477042  0.42941615  1  0  -0.62123  0  2.083286  0  -1.195322  0  -0.551195  0  2.344367  0  0  -0.580384  0  2.331496  0  0  -0.309011  -0.530835  0  2.35223  0
O  O87  1  0.24228740  0.00522507  0.92941748  1  0  -0.621222  0  2.083388  0  -1.195152  0  -0.551195  0  2.344415  0  0  -0.580392  0  2.331562  0  0  -0.308996  -0.530827  0  2.352267  0
O  O88  1  0.45594609  0.78823034  0.93211325  1  0  -0.630528  0  2.044528  0  -1.200374  0  -0.568642  0  2.302913  0  0  -0.596519  0  2.289274  0  0  -0.316641  -0.549138  0  2.311436  0
O  O89  1  0.04405430  0.71176680  0.43211146  1  0  -0.630579  0  2.044578  0  -1.20036  0  -0.568682  0  2.302939  0  0  -0.596555  0  2.289293  0  0  -0.316691  -0.54918  0  2.311468  0
O  O90  1  0.54405432  0.21176946  0.06788645  1  0  -0.630475  0  2.044411  0  -1.200397  0  -0.568588  0  2.30281  0  0  -0.596461  0  2.289171  0  0  -0.316634  -0.549086  0  2.311336  0
O  O91  1  0.95593836  0.28823406  0.56788824  1  0  -0.630613  0  2.044413  0  -1.20037  0  -0.56871  0  2.302768  0  0  -0.596584  0  2.289122  0  0  -0.31671  -0.549216  0  2.31131  0
O  O92  1  0.70274505  0.93620013  0.89781552  1  0  -0.628136  0  2.059777  0  -1.210116  0  -0.561136  0  2.318672  0  0  -0.589287  0  2.305074  0  0  -0.312343  -0.541562  0  2.327273  0
O  O93  1  0.79726039  0.56379699  0.39781364  1  0  -0.62817  0  2.059598  0  -1.210053  0  -0.561168  0  2.318454  0  0  -0.589321  0  2.304854  0  0  -0.312356  -0.541595  0  2.327056  0
O  O94  1  0.29726207  0.06379236  0.10218540  1  0  -0.628172  0  2.059812  0  -1.210132  0  -0.561121  0  2.318667  0  0  -0.589274  0  2.305065  0  0  -0.312324  -0.541546  0  2.327267  0
O  O95  1  0.20273922  0.43620594  0.60218729  1  0  -0.628167  0  2.059834  0  -1.210102  0  -0.561106  0  2.31866  0  0  -0.589265  0  2.305066  0  0  -0.312277  -0.541532  0  2.327262  0
O  O96  1  0.98314879  0.65471319  0.61097685  1  0  -0.637116  0  2.061701  0  -1.199224  0  -0.572334  0  2.323967  0  0  -0.600207  0  2.308819  0  0  -0.319878  -0.552985  0  2.333629  0
O  O97  1  0.51685902  0.84528757  0.11097915  1  0  -0.637101  0  2.061844  0  -1.198957  0  -0.572355  0  2.324121  0  0  -0.600227  0  2.308968  0  0  -0.31991  -0.553016  0  2.333804  0
O  O98  1  0.01684933  0.34528870  0.38901980  1  0  -0.637198  0  2.061591  0  -1.199241  0  -0.572409  0  2.323865  0  0  -0.600282  0  2.308714  0  0  -0.319931  -0.553062  0  2.333535  0
O  O99  1  0.48315075  0.15470491  0.88901872  1  0  -0.637193  0  2.061663  0  -1.199171  0  -0.572401  0  2.323888  0  0  -0.600273  0  2.308736  0  0  -0.319926  -0.553059  0  2.333568  0
