# generated using pymatgen
data_CuH15C26N5O4
_symmetry_space_group_name_H-M   'P 1'
_cell_length_a   8.14181589
_cell_length_b   10.11647850
_cell_length_c   13.37794274
_cell_angle_alpha   92.08200510
_cell_angle_beta   103.60401330
_cell_angle_gamma   101.90797834
_symmetry_Int_Tables_number   1
_chemical_formula_structural   CuH15C26N5O4
_chemical_formula_sum   'Cu2 H30 C52 N10 O8'
_cell_volume   1043.75256583
_cell_formula_units_Z   2
loop_
 _symmetry_equiv_pos_site_id
 _symmetry_equiv_pos_as_xyz
  1  'x, y, z'
loop_
 _atom_site_type_symbol
 _atom_site_label
 _atom_site_symmetry_multiplicity
 _atom_site_fract_x
 _atom_site_fract_y
 _atom_site_fract_z
 _atom_site_occupancy
 _atom_site_hle17_ddec_charge
 _atom_site_hle17_ddec_spin_density
 _atom_site_hle17_ddec_sum_bond_order
 _atom_site_hle17_magmom
 _atom_site_hse06_10hf_ddec_charge
 _atom_site_hse06_10hf_ddec_spin_density
 _atom_site_hse06_10hf_ddec_sum_bond_order
 _atom_site_hse06_10hf_magmom
 _atom_site_hse06_ddec_charge
 _atom_site_hse06_ddec_spin_density
 _atom_site_hse06_ddec_sum_bond_order
 _atom_site_hse06_magmom
 _atom_site_pbe_cm5_charge
 _atom_site_pbe_ddec_charge
 _atom_site_pbe_ddec_spin_density
 _atom_site_pbe_ddec_sum_bond_order
 _atom_site_pbe_magmom
Cu  Cu0  1  0.53829694  0.07534454  0.76728990  1  0.820098  -0.724632  1.913985  -0.508  0.796419  -0.81984  2.321725  -0.634  0.888443  -0.900259  2.253313  -0.729  0.755008  0.742011  -0.758521  2.368929  -0.569
Cu  Cu1  1  0.46169917  0.92466263  0.23270996  1  0.81998  0.724646  1.913973  0.508  0.796389  0.819841  2.321462  0.634  0.888265  0.900265  2.253268  0.729  0.754955  0.741964  0.758518  2.368683  0.569
H  H2  1  0.12175105  0.16303405  0.15564891  1  0.085853  -9.5e-05  0.987435  0.0  0.093231  -3.2e-05  1.05651  0.0  0.0949  -3e-05  1.05641  0.0  0.098155  0.092328  -2.7e-05  1.056343  0.0
H  H3  1  0.87825605  0.83696195  0.84434112  1  0.085779  9.6e-05  0.987475  0.0  0.093243  3.2e-05  1.056478  0.0  0.094912  3e-05  1.056378  0.0  0.09814  0.092339  2.7e-05  1.05631  0.0
H  H4  1  0.20390500  0.22085836  0.98748960  1  0.111962  0.000154  0.981669  0.0  0.11902  8.6e-05  1.046646  0.0  0.122884  5.3e-05  1.045405  0.0  0.103381  0.116446  0.000114  1.047474  0.0
H  H5  1  0.79608928  0.77913256  0.01249912  1  0.11206  -0.000155  0.981536  0.0  0.119024  -8.6e-05  1.046614  0.0  0.12289  -5.4e-05  1.045375  0.0  0.103393  0.116446  -0.000114  1.04744  0.0
H  H6  1  0.96618489  0.19300003  0.82660407  1  0.077553  -3.9e-05  0.929045  0.0  0.086022  -2.3e-05  0.990628  0.0  0.087866  1.8e-05  0.989793  0.0  0.112028  0.085005  -7.3e-05  0.990944  0.0
H  H7  1  0.03380458  0.80699191  0.17338619  1  0.077532  3.9e-05  0.928943  0.0  0.086001  2.3e-05  0.990519  0.0  0.087805  -1.8e-05  0.989731  0.0  0.11203  0.085  7.3e-05  0.990818  0.0
H  H8  1  0.59020450  0.06576208  0.98404704  1  0.090533  0.000109  0.985013  0.0  0.094138  6.6e-05  1.058327  0.0  0.098452  7.3e-05  1.052677  0.0  0.115971  0.091027  4.6e-05  1.062393  0.0
H  H9  1  0.40978906  0.93423596  0.01595146  1  0.090548  -0.000107  0.985  0.0  0.094181  -6.6e-05  1.05826  0.0  0.098493  -7.3e-05  1.05261  0.0  0.116  0.091069  -4.6e-05  1.062336  0.0
H  H10  1  0.63935778  0.30642487  0.63172261  1  0.080496  -0.00089  0.945102  -0.002  0.088062  -0.000803  1.012436  -0.001  0.09183  -0.000566  1.008017  -0.001  0.113487  0.085711  -0.000975  1.014761  -0.002
H  H11  1  0.36064709  0.69357723  0.36827470  1  0.080503  0.000891  0.945082  0.002  0.088083  0.000803  1.012401  0.001  0.091838  0.000566  1.008003  0.001  0.113468  0.085728  0.000975  1.014725  0.002
H  H12  1  0.75962142  0.31856934  0.47224291  1  0.080883  -0.000342  0.965891  0.0  0.091937  -0.000378  1.028831  0.0  0.095266  -0.000278  1.028069  0.0  0.095719  0.090132  -0.000455  1.028316  0.0
H  H13  1  0.24038188  0.68143174  0.52775489  1  0.080912  0.000341  0.965865  0.0  0.09198  0.000378  1.028779  0.0  0.095308  0.000278  1.028015  0.0  0.095725  0.090171  0.000455  1.028267  0.0
H  H14  1  0.82936527  0.10976475  0.40009940  1  0.133835  -0.000122  0.971989  0.0  0.138834  -5.7e-05  1.038401  0.0  0.144267  -6.7e-05  1.03289  0.0  0.113203  0.134647  -2.7e-05  1.042772  0.0
H  H15  1  0.17063549  0.89023633  0.59989877  1  0.133794  0.000123  0.972071  0.0  0.138828  5.7e-05  1.038437  0.0  0.14426  6.7e-05  1.032929  0.0  0.11319  0.134641  2.7e-05  1.042811  0.0
H  H16  1  0.48862016  0.79654416  0.86188283  1  0.109713  -0.001107  0.923083  -0.002  0.118453  -0.001066  0.981855  -0.002  0.121132  -0.00076  0.979484  -0.001  0.131301  0.116014  -0.001349  0.984153  -0.002
H  H17  1  0.51137102  0.20346807  0.13811790  1  0.109714  0.001108  0.923147  0.002  0.118502  0.001066  0.981859  0.002  0.121191  0.00076  0.979461  0.001  0.131333  0.116062  0.001349  0.984163  0.002
H  H18  1  0.54772467  0.57100663  0.81806902  1  0.113551  -0.000532  0.958203  0.0  0.126853  -0.000599  1.009184  -0.001  0.129869  -0.000427  1.008672  0.0  0.113644  0.124392  -0.000679  1.010192  -0.001
H  H19  1  0.45226750  0.42900055  0.18193697  1  0.11353  0.00053  0.9582  0.0  0.126821  0.000599  1.009219  0.001  0.129834  0.000427  1.008711  0.0  0.113647  0.124363  0.000679  1.010213  0.001
H  H20  1  0.65981879  0.53665569  0.66378028  1  0.094158  -0.000292  0.94391  0.0  0.107098  -8.2e-05  1.003366  0.0  0.110383  -3.6e-05  1.000183  0.0  0.105423  0.105123  -6.5e-05  1.005287  0.0
H  H21  1  0.34017950  0.46334643  0.33622875  1  0.09423  0.000294  0.943971  0.0  0.107171  8.2e-05  1.003399  0.0  0.110508  3.6e-05  1.000148  0.0  0.105481  0.105197  6.5e-05  1.005315  0.0
H  H22  1  0.67433084  0.53870201  0.03886130  1  0.103254  -6.1e-05  0.949839  0.0  0.112516  -2e-06  1.011433  0.0  0.116219  -5e-06  1.009101  0.0  0.106803  0.109898  2e-06  1.013144  0.0
H  H23  1  0.32566683  0.46130213  0.96114395  1  0.10333  6.3e-05  0.949819  0.0  0.112553  2e-06  1.011436  0.0  0.116236  5e-06  1.009126  0.0  0.10683  0.109937  -2e-06  1.013145  0.0
H  H24  1  0.86151287  0.37277930  0.07762074  1  0.096304  8.2e-05  0.963121  0.0  0.1067  3e-05  1.020251  0.0  0.108931  1.2e-05  1.02079  0.0  0.10284  0.105059  7.4e-05  1.020014  0.0
H  H25  1  0.13847350  0.62721569  0.92237735  1  0.096335  -8.2e-05  0.963136  0.0  0.106738  -3e-05  1.020247  0.0  0.108967  -1.2e-05  1.02079  0.0  0.102861  0.105096  -7.4e-05  1.020014  0.0
H  H26  1  0.97919448  0.50665458  0.40074531  1  0.068994  3.5e-05  0.981678  0.0  0.074736  -3e-06  1.058008  0.0  0.077715  -2e-06  1.056776  0.0  0.08621  0.072871  4e-06  1.058385  0.0
H  H27  1  0.02081256  0.49333738  0.59925358  1  0.068943  -3.6e-05  0.981586  0.0  0.074677  2e-06  1.057924  0.0  0.077655  2e-06  1.056693  0.0  0.08617  0.072814  -4e-06  1.058298  0.0
H  H28  1  0.00333454  0.34803328  0.26086467  1  0.09537  -0.000101  0.978619  0.0  0.102652  -2.7e-05  1.044427  0.0  0.105442  -2.8e-05  1.043655  0.0  0.09723  0.100727  -3.6e-05  1.044855  0.0
H  H29  1  0.99665548  0.65195664  0.73913235  1  0.095365  0.000103  0.978753  0.0  0.102719  2.7e-05  1.044502  0.0  0.105517  2.8e-05  1.04371  0.0  0.097214  0.100795  3.6e-05  1.04493  0.0
H  H30  1  0.71817079  0.54057030  0.47923851  1  0.292474  -2.2e-05  0.886193  0.0  0.283917  -3.9e-05  0.937202  0.0  0.29001  -2.7e-05  0.933331  0.0  0.324701  0.280538  -4.7e-05  0.938784  0.0
H  H31  1  0.28182885  0.45943180  0.52076624  1  0.292454  2.2e-05  0.886095  0.0  0.283885  3.9e-05  0.93713  0.0  0.289978  2.6e-05  0.93326  0.0  0.324706  0.280507  4.7e-05  0.938709  0.0
C  C32  1  0.79415184  0.06977353  0.17909518  1  0.641523  -0.00105  3.920889  -0.004  0.597738  0.002093  4.225803  0.001  0.636011  0.00168  4.218522  0.001  0.205971  0.572061  0.002526  4.228901  0.001
C  C33  1  0.20584243  0.93021740  0.82089428  1  0.641514  0.001046  3.921019  0.004  0.597799  -0.002095  4.225859  -0.001  0.636073  -0.00168  4.218575  -0.001  0.205946  0.572123  -0.002527  4.228962  -0.001
C  C34  1  0.85073346  0.10763013  0.08215185  1  -0.114023  0.01424  3.749516  0.015  -0.083305  0.006269  3.972152  0.007  -0.095759  0.003861  3.993926  0.005  -0.014334  -0.075141  0.008495  3.957273  0.009
C  C35  1  0.14926779  0.89236791  0.91784258  1  -0.113926  -0.014221  3.7495  -0.015  -0.083266  -0.006272  3.972208  -0.007  -0.095719  -0.003864  3.993978  -0.005  -0.014284  -0.0751  -0.008497  3.957331  -0.009
C  C36  1  0.02475583  0.15428817  0.08295734  1  -0.026256  0.000706  3.727783  0.001  -0.052909  0.001061  3.969663  0.001  -0.048141  0.000695  3.989026  0.001  -0.070547  -0.055498  0.001254  3.955793  0.001
C  C37  1  0.97524128  0.84570377  0.91703108  1  -0.026336  -0.000727  3.727785  -0.001  -0.053074  -0.00106  3.969671  -0.001  -0.048306  -0.000695  3.989035  -0.001  -0.070565  -0.055661  -0.001254  3.955797  -0.001
C  C38  1  0.06932655  0.18681918  0.99109204  1  -0.134171  0.000883  3.737195  0.001  -0.142266  4.8e-05  3.98291  0.0  -0.151041  8e-06  4.005379  0.0  -0.089584  -0.136463  0.000133  3.967286  0.0
C  C39  1  0.93066845  0.81317884  0.00889771  1  -0.134189  -0.000867  3.737183  -0.001  -0.142209  -4.8e-05  3.982908  0.0  -0.150985  -7e-06  4.00536  0.0  -0.089583  -0.1364  -0.000133  3.967292  0.0
C  C40  1  0.93696180  0.17109984  0.90065717  1  0.135063  -0.000491  3.695546  0.0  0.108845  4.1e-05  3.953462  0.0  0.117269  0.000108  3.971564  0.0  0.046045  0.10367  -0.000105  3.940522  0.0
C  C41  1  0.06303148  0.82889210  0.09933292  1  0.135134  0.000478  3.695553  0.0  0.108938  -4.2e-05  3.953427  0.0  0.117388  -0.000109  3.971523  0.0  0.046079  0.103749  0.000105  3.940483  0.0
C  C42  1  0.72761089  0.09746743  0.98849179  1  0.126061  -0.000842  3.66983  -0.001  0.089102  2e-05  3.924503  0.0  0.099233  6.5e-05  3.938275  0.0  0.047621  0.082628  -7.7e-05  3.915141  0.0
C  C43  1  0.27238920  0.90252655  0.01150311  1  0.126054  0.000814  3.669832  0.001  0.089095  -1.9e-05  3.924544  0.0  0.09923  -6.6e-05  3.938295  0.0  0.047598  0.082618  7.7e-05  3.915186  0.0
C  C44  1  0.67471981  0.21977435  0.59807788  1  0.132692  0.00549  3.703819  0.006  0.100861  0.001772  3.966839  0.003  0.112381  0.002258  3.981439  0.003  0.047765  0.093261  0.001319  3.958016  0.002
C  C45  1  0.32527969  0.78022673  0.40192010  1  0.132809  -0.005507  3.703699  -0.006  0.100978  -0.001772  3.966698  -0.003  0.112502  -0.002257  3.981291  -0.003  0.047879  0.093379  -0.001319  3.95787  -0.002
C  C46  1  0.74157993  0.22493037  0.51027927  1  -0.122698  -0.005477  3.753449  -0.006  -0.134874  -0.003071  4.010966  -0.004  -0.142939  -0.002713  4.031206  -0.003  -0.089454  -0.130281  -0.003339  3.998385  -0.004
C  C47  1  0.25841874  0.77506766  0.48971701  1  -0.12271  0.005498  3.753338  0.006  -0.134896  0.003071  4.010845  0.004  -0.14296  0.002713  4.031084  0.003  -0.08946  -0.130301  0.003339  3.998263  0.004
C  C48  1  0.78163363  0.11067698  0.47025220  1  -0.014623  0.005545  3.610755  0.005  -0.044825  0.002561  3.86568  0.003  -0.03827  0.002481  3.876055  0.003  -0.057286  -0.050617  0.002691  3.861185  0.003
C  C49  1  0.21837374  0.88932512  0.52974698  1  -0.014709  -0.00557  3.610863  -0.005  -0.044942  -0.002561  3.86579  -0.003  -0.038386  -0.002482  3.876167  -0.003  -0.057342  -0.05073  -0.002691  3.861278  -0.003
C  C50  1  0.75357784  0.99080406  0.52008700  1  0.004587  -0.002735  3.735682  -0.003  0.015233  -0.00175  3.967775  -0.002  0.012405  -0.001521  3.988754  -0.002  0.013745  0.016492  -0.001894  3.954636  -0.002
C  C51  1  0.24642950  0.00919805  0.47991367  1  0.004664  0.002753  3.735872  0.003  0.015317  0.001749  3.967916  0.002  0.012486  0.00152  3.988901  0.002  0.013826  0.016584  0.001894  3.954763  0.002
C  C52  1  0.68489275  0.99295323  0.60785438  1  0.131082  0.000134  3.742675  0.0  0.123538  -0.000814  3.985657  -0.001  0.129588  -0.000306  4.00681  0.0  0.117267  0.119923  -0.001209  3.971665  -0.001
C  C53  1  0.31510857  0.00704988  0.39214467  1  0.130971  -0.000146  3.742841  0.0  0.123442  0.000815  3.985826  0.001  0.129494  0.000308  4.006964  0.0  0.117232  0.119823  0.001209  3.971837  0.001
C  C54  1  0.64574728  0.87268851  0.66015300  1  0.136059  0.002928  3.74955  0.004  0.126677  -0.00015  3.997275  0.001  0.132309  0.000657  4.018786  0.002  0.119651  0.122886  -0.000747  3.983243  0.0
C  C55  1  0.35425358  0.12731765  0.33984830  1  0.136139  -0.002933  3.749507  -0.004  0.126717  0.000148  3.997323  -0.001  0.132354  -0.000661  4.018822  -0.002  0.119732  0.122921  0.000747  3.983285  0.0
C  C56  1  0.54127989  0.77986596  0.79594654  1  0.149149  0.008057  3.625402  0.009  0.119711  0.001818  3.881521  0.003  0.131866  0.00274  3.89458  0.004  0.061535  0.111358  0.000974  3.874053  0.002
C  C57  1  0.45871795  0.22014729  0.20405298  1  0.149008  -0.008075  3.625632  -0.009  0.119586  -0.001817  3.88173  -0.003  0.131747  -0.002739  3.89478  -0.004  0.061469  0.111228  -0.000973  3.874257  -0.002
C  C58  1  0.57326906  0.65343691  0.77014347  1  -0.097851  -0.008925  3.713028  -0.009  -0.110382  -0.004484  3.963074  -0.005  -0.115265  -0.00399  3.98012  -0.005  -0.075549  -0.107562  -0.0049  3.953306  -0.006
C  C59  1  0.42672445  0.34657026  0.22985973  1  -0.097851  0.008949  3.713154  0.009  -0.110438  0.004485  3.963289  0.005  -0.115326  0.00399  3.980354  0.005  -0.075609  -0.107615  0.0049  3.953531  0.006
C  C60  1  0.63621699  0.63528256  0.68421762  1  -0.064784  0.008399  3.710636  0.008  -0.091427  0.003295  3.966272  0.003  -0.086963  0.003411  3.979302  0.003  -0.075224  -0.095748  0.003297  3.958977  0.003
C  C61  1  0.36378432  0.36472563  0.31578977  1  -0.064874  -0.008427  3.710554  -0.008  -0.091486  -0.003295  3.966171  -0.003  -0.087059  -0.003411  3.979187  -0.003  -0.075298  -0.095809  -0.003297  3.95888  -0.003
C  C62  1  0.67384467  0.74600856  0.62601835  1  -0.027862  -0.005429  3.823649  -0.006  -0.014917  -0.002797  4.06303  -0.003  -0.016742  -0.002435  4.083768  -0.003  0.000411  -0.014141  -0.003118  4.049889  -0.003
C  C63  1  0.32615934  0.25399558  0.37398711  1  -0.027882  0.005439  3.82368  0.006  -0.014932  0.002798  4.063057  0.003  -0.016757  0.002435  4.083813  0.003  0.000417  -0.014153  0.003118  4.049912  0.003
C  C64  1  0.73413995  0.74582410  0.53456406  1  0.104567  -4e-05  3.79143  0.0  0.086582  -0.000511  4.047973  0.0  0.088531  -0.00029  4.071557  0.0  0.089565  0.084975  -0.000685  4.032655  -0.001
C  C65  1  0.26585762  0.25417496  0.46543806  1  0.104531  5e-05  3.791594  0.0  0.086586  0.000512  4.048085  0.0  0.088521  0.000291  4.071685  0.0  0.089537  0.084984  0.000685  4.03276  0.001
C  C66  1  0.77553951  0.86238178  0.48347152  1  0.115996  -0.001484  3.797321  -0.001  0.110495  -0.000786  4.056575  -0.001  0.111964  -0.000726  4.08025  -0.001  0.101415  0.109268  -0.000836  4.040977  -0.001
C  C67  1  0.22445999  0.13761525  0.51653234  1  0.115893  0.001469  3.797586  0.001  0.110405  0.000785  4.056813  0.001  0.111878  0.000724  4.080491  0.001  0.101329  0.109177  0.000836  4.041212  0.001
C  C68  1  0.79650375  0.69664297  0.38570969  1  0.35282  -0.000237  3.747051  0.0  0.324432  -7.9e-05  4.024489  0.0  0.340011  -0.000213  4.036184  0.0  0.225782  0.313926  4.7e-05  4.016505  0.0
C  C69  1  0.20351231  0.30335915  0.61429828  1  0.352899  0.000233  3.74693  0.0  0.324421  8.1e-05  4.02453  0.0  0.339986  0.000214  4.036244  0.0  0.225817  0.313916  -4.7e-05  4.016545  0.0
C  C70  1  0.80973793  0.60970883  0.29910174  1  -0.02131  0.000868  3.775561  0.001  -0.010159  0.000866  4.010255  0.001  -0.011363  0.00071  4.033046  0.001  -0.006493  -0.009187  0.000936  3.994595  0.001
C  C71  1  0.19027132  0.39028721  0.70090656  1  -0.021197  -0.000893  3.775602  -0.001  -0.010007  -0.000865  4.010252  -0.001  -0.011207  -0.000709  4.033044  -0.001  -0.00637  -0.009035  -0.000936  3.994591  -0.001
C  C72  1  0.72024510  0.61744778  0.19577430  1  -0.085071  0.009143  3.682078  0.01  -0.068975  0.005143  3.91184  0.006  -0.075077  0.003041  3.931365  0.004  -0.010361  -0.065077  0.006594  3.898529  0.007
C  C73  1  0.27975990  0.38255130  0.80423641  1  -0.084967  -0.009115  3.682299  -0.01  -0.068836  -0.005143  3.912015  -0.006  -0.074934  -0.003041  3.931533  -0.004  -0.010396  -0.06494  -0.006593  3.898702  -0.007
C  C74  1  0.58809042  0.70426026  0.16177632  1  0.632381  -0.004669  3.896706  -0.009  0.593881  0.001046  4.198412  -0.002  0.631883  0.000516  4.191701  -0.002  0.201987  0.568322  0.001934  4.20188  -0.002
C  C75  1  0.41192038  0.29574592  0.83823470  1  0.632222  0.004665  3.896773  0.009  0.593686  -0.001047  4.198517  0.002  0.631687  -0.000517  4.191807  0.002  0.20196  0.568128  -0.001935  4.201989  0.002
C  C76  1  0.74462195  0.53252267  0.11794177  1  -0.069136  0.002103  3.741146  0.002  -0.093127  0.001749  3.992202  0.002  -0.093819  0.001221  4.01156  0.001  -0.078418  -0.092808  0.001683  3.979488  0.002
C  C77  1  0.25537456  0.46747741  0.88206396  1  -0.069213  -0.002129  3.741241  -0.002  -0.093188  -0.001749  3.992305  -0.002  -0.093863  -0.001221  4.011672  -0.001  -0.078427  -0.092867  -0.001683  3.97959  -0.002
C  C78  1  0.84831707  0.43864318  0.14004877  1  -0.051452  -0.000436  3.7343  0.0  -0.064314  -0.000106  3.981441  0.0  -0.066118  -0.000256  4.002486  0.0  -0.083294  -0.063514  0.000224  3.967814  0.0
C  C79  1  0.15167699  0.56135689  0.85995284  1  -0.051513  0.000459  3.734245  0.0  -0.064373  0.000106  3.9814  0.0  -0.066176  0.000256  4.002441  0.0  -0.083324  -0.063574  -0.000224  3.967772  0.0
C  C80  1  0.91174777  0.51278970  0.32072701  1  -0.128178  -0.000895  3.789445  -0.001  -0.150234  -0.000457  4.046617  0.0  -0.155027  -0.000454  4.071044  0.0  -0.103915  -0.146625  -0.000332  4.029321  0.0
C  C81  1  0.08825499  0.48720531  0.67927504  1  -0.128246  0.000922  3.78921  0.001  -0.150279  0.000456  4.046417  0.0  -0.155073  0.000453  4.070843  0.0  -0.103991  -0.146672  0.000332  4.029124  0.0
C  C82  1  0.93007260  0.42650030  0.24240152  1  -0.056728  0.001718  3.762992  0.002  -0.071255  0.001047  4.011882  0.001  -0.073052  0.000778  4.034555  0.001  -0.090998  -0.069882  0.00118  3.996302  0.001
C  C83  1  0.06992261  0.57349470  0.75759790  1  -0.056765  -0.001745  3.763061  -0.002  -0.071363  -0.001046  4.011923  -0.001  -0.073158  -0.000778  4.034595  -0.001  -0.090953  -0.06999  -0.001179  3.996346  -0.001
N  N84  1  0.76888655  0.12754301  0.89937671  1  -0.330559  -0.0044  3.265627  -0.007  -0.287326  -0.004294  3.563591  -0.007  -0.310498  -0.002045  3.580269  -0.004  -0.339136  -0.27159  -0.006458  3.55223  -0.009
N  N85  1  0.23111101  0.87245096  0.10061781  1  -0.330596  0.00441  3.265616  0.007  -0.287376  0.004289  3.563562  0.007  -0.310512  0.002042  3.580211  0.004  -0.339142  -0.271638  0.006452  3.552211  0.009
N  N86  1  0.57643587  0.88568644  0.74160426  1  -0.311126  -0.075528  3.323755  -0.092  -0.270093  -0.059162  3.619774  -0.077  -0.2989  -0.048265  3.639032  -0.067  -0.331859  -0.253472  -0.065501  3.609191  -0.082
N  N87  1  0.42356421  0.11432580  0.25839557  1  -0.310921  0.075546  3.323494  0.092  -0.269946  0.059164  3.619512  0.077  -0.298737  0.048268  3.638785  0.067  -0.331796  -0.253304  0.065503  3.608911  0.082
N  N88  1  0.64612130  0.10646212  0.64512692  1  -0.319485  -0.049487  3.320198  -0.061  -0.276202  -0.039895  3.618334  -0.053  -0.301625  -0.034073  3.633329  -0.048  -0.339074  -0.262393  -0.042523  3.611193  -0.054
N  N89  1  0.35388157  0.89354200  0.35487238  1  -0.31946  0.049509  3.320198  0.061  -0.276212  0.0399  3.618323  0.053  -0.301602  0.034078  3.633307  0.048  -0.339127  -0.262402  0.042529  3.61118  0.054
N  N90  1  0.75189510  0.64124515  0.47181161  1  -0.39062  -0.00059  3.384136  -0.001  -0.336754  -0.000396  3.620425  0.0  -0.353675  -0.000295  3.633607  0.0  -0.384513  -0.325802  -0.000477  3.61093  -0.001
N  N91  1  0.24811285  0.35875494  0.52819284  1  -0.390622  0.00059  3.383903  0.001  -0.336736  0.000396  3.620239  0.0  -0.353648  0.000295  3.633429  0.0  -0.38457  -0.325787  0.000477  3.610741  0.001
N  N92  1  0.81739360  0.83022136  0.39347618  1  -0.378867  0.000176  2.941897  0.001  -0.362673  -0.000321  3.220108  0.0  -0.375192  -0.000389  3.232302  0.0  -0.316699  -0.353855  -0.000165  3.211482  0.0
N  N93  1  0.18262035  0.16977771  0.60653065  1  -0.378829  -0.000167  2.942022  -0.001  -0.362643  0.000321  3.220287  0.0  -0.375161  0.00039  3.232495  0.0  -0.316588  -0.353828  0.000165  3.211664  0.0
O  O94  1  0.89859550  0.10506361  0.26499789  1  -0.593209  0.002062  1.93881  0.003  -0.56233  0.000364  2.17378  0.001  -0.587977  -0.000619  2.166908  -0.001  -0.318323  -0.543009  0.001807  2.176632  0.003
O  O95  1  0.10139920  0.89491109  0.73499423  1  -0.593236  -0.00206  1.938835  -0.003  -0.562388  -0.000364  2.173797  -0.001  -0.588034  0.00062  2.166918  0.001  -0.318396  -0.543061  -0.001807  2.176635  -0.003
O  O96  1  0.63477248  0.00328761  0.15854124  1  -0.60788  0.089208  2.15903  0.115  -0.582224  0.048554  2.4588  0.07  -0.62801  0.034706  2.451433  0.053  -0.328315  -0.551238  0.058044  2.463094  0.079
O  O97  1  0.36521480  0.99672359  0.84145065  1  -0.607866  -0.089213  2.15902  -0.115  -0.582245  -0.048557  2.458838  -0.07  -0.628063  -0.034708  2.451457  -0.053  -0.328303  -0.551262  -0.058047  2.463135  -0.08
O  O98  1  0.52198200  0.74474879  0.23382933  1  -0.600789  0.112419  2.070372  0.143  -0.590547  0.064219  2.367215  0.09  -0.639794  0.045097  2.362377  0.067  -0.339639  -0.557461  0.077282  2.369984  0.104
O  O99  1  0.47802518  0.25525333  0.76617880  1  -0.60076  -0.112418  2.070335  -0.143  -0.590464  -0.064216  2.36716  -0.09  -0.639746  -0.045099  2.362318  -0.067  -0.339634  -0.557387  -0.077276  2.369941  -0.104
O  O100  1  0.54960779  0.72530299  0.06889125  1  -0.570273  0.008473  1.911108  0.011  -0.536542  0.005014  2.133955  0.007  -0.561719  0.003129  2.127791  0.005  -0.310826  -0.519319  0.006282  2.137531  0.009
O  O101  1  0.45039639  0.27470218  0.93111949  1  -0.57024  -0.008472  1.911191  -0.011  -0.536491  -0.005016  2.134021  -0.007  -0.56168  -0.003129  2.12788  -0.005  -0.310829  -0.519262  -0.006282  2.137584  -0.009
