# generated using pymatgen
data_MnH14C11N2O3
_symmetry_space_group_name_H-M   'P 1'
_cell_length_a   7.05371074
_cell_length_b   21.46207493
_cell_length_c   21.46216031
_cell_angle_alpha   119.99950662
_cell_angle_beta   90.00021005
_cell_angle_gamma   90.00012716
_symmetry_Int_Tables_number   1
_chemical_formula_structural   MnH14C11N2O3
_chemical_formula_sum   'Mn6 H84 C66 N12 O18'
_cell_volume   2813.81524319
_cell_formula_units_Z   6
loop_
 _symmetry_equiv_pos_site_id
 _symmetry_equiv_pos_as_xyz
  1  'x, y, z'
loop_
 _atom_site_type_symbol
 _atom_site_label
 _atom_site_symmetry_multiplicity
 _atom_site_fract_x
 _atom_site_fract_y
 _atom_site_fract_z
 _atom_site_occupancy
 _atom_site_pbe_bader_charge
 _atom_site_pbe_bader_spin_density
 _atom_site_pbe_cm5_charge
 _atom_site_pbe_ddec_charge
 _atom_site_pbe_ddec_spin_density
 _atom_site_pbe_ddec_sum_bond_order
 _atom_site_pbe_magmom
Mn  Mn0  1  0.88603400  0.60801428  0.33574203  1  1.613102  3.808634  0.742459  1.05734  3.910404  2.713666  3.777
Mn  Mn1  1  0.44729622  0.39198156  0.72771926  1  1.614357  3.808558  0.742421  1.057299  3.910579  2.713697  3.777
Mn  Mn2  1  0.55271991  0.66426120  0.27228229  1  1.614426  3.808517  0.742374  1.05721  3.910545  2.713797  3.777
Mn  Mn3  1  0.21939553  0.72772280  0.39197093  1  1.614775  3.808237  0.742453  1.057361  3.910404  2.713889  3.777
Mn  Mn4  1  0.11393192  0.27227317  0.66425238  1  1.614249  3.808536  0.742348  1.057231  3.910656  2.713589  3.777
Mn  Mn5  1  0.78058802  0.33575224  0.60803246  1  1.613609  3.808598  0.742445  1.057357  3.910603  2.713629  3.777
H  H6  1  0.01629722  0.57136640  0.56498183  1  0.040933  0.000352  0.102107  0.100139  0.000187  1.006849  0.0
H  H7  1  0.31701323  0.42863295  0.99362081  1  0.0524  0.000345  0.102108  0.100162  0.000187  1.006944  0.0
H  H8  1  0.68297391  0.43501562  0.00638697  1  0.039774  0.000347  0.102108  0.100146  0.000187  1.007007  0.0
H  H9  1  0.34965713  0.99361861  0.42862385  1  0.05237  0.000345  0.102076  0.100112  0.000187  1.007054  0.0
H  H10  1  0.98369181  0.00639020  0.43500770  1  0.040277  0.000347  0.102092  0.100149  0.000187  1.006974  0.0
H  H11  1  0.65034365  0.56498515  0.57136519  1  0.049583  0.000347  0.102111  0.100154  0.000187  1.006999  0.0
H  H12  1  0.89467732  0.63786326  0.50569796  1  0.079909  0.000464  0.110856  0.128607  1.9e-05  0.983597  0.0
H  H13  1  0.43862772  0.36213384  0.86783977  1  0.071241  0.000457  0.11092  0.128647  1.9e-05  0.983593  0.0
H  H14  1  0.56135231  0.49430346  0.13216566  1  0.074129  0.000458  0.110888  0.128583  1.9e-05  0.983644  0.0
H  H15  1  0.22803383  0.86783882  0.36213188  1  0.07115  0.000457  0.11094  0.12865  1.9e-05  0.983644  0.0
H  H16  1  0.10531234  0.13217166  0.49429928  1  0.07085  0.000459  0.110896  0.128574  1.9e-05  0.983602  0.0
H  H17  1  0.77195216  0.50570472  0.63786453  1  0.080026  0.000464  0.110947  0.128668  1.9e-05  0.983737  0.0
H  H18  1  0.55509948  0.54769063  0.46102199  1  0.090815  0.000634  0.103257  0.101544  0.000179  1.037747  0.0
H  H19  1  0.77820699  0.45230536  0.91333781  1  0.070032  0.000652  0.103263  0.101492  0.000179  1.037845  0.0
H  H20  1  0.22178057  0.53897332  0.08666614  1  0.089701  0.000637  0.103291  0.101531  0.00018  1.037815  0.0
H  H21  1  0.88846134  0.91333665  0.45229922  1  0.070133  0.000652  0.103279  0.101498  0.00018  1.037801  0.0
H  H22  1  0.44488548  0.08666369  0.53896609  1  0.089073  0.000637  0.103279  0.101488  0.00018  1.037884  0.0
H  H23  1  0.11152890  0.46103038  0.54769375  1  0.090903  0.000634  0.103253  0.101419  0.000179  1.037827  0.0
H  H24  1  0.22561043  0.44459023  0.25972482  1  0.066494  -0.014023  0.099204  0.111141  -0.011873  1.022698  -0.009
H  H25  1  0.10772280  0.55542083  0.81513279  1  0.075204  -0.013985  0.099268  0.111225  -0.011879  1.022572  -0.009
H  H26  1  0.89227569  0.74028453  0.18486725  1  0.075783  -0.013999  0.099273  0.111247  -0.011873  1.022606  -0.009
H  H27  1  0.55893717  0.81512766  0.55540839  1  0.075076  -0.013976  0.099221  0.111155  -0.011873  1.022742  -0.009
H  H28  1  0.77440570  0.18485870  0.74028937  1  0.075625  -0.014  0.09931  0.111258  -0.011873  1.022483  -0.009
H  H29  1  0.44106626  0.25972775  0.44459463  1  0.066552  -0.014024  0.099249  0.111173  -0.011873  1.022757  -0.009
H  H30  1  0.07847481  0.45680012  0.20002416  1  0.024172  -0.000183  0.089722  0.094633  -0.000668  1.009663  -0.002
H  H31  1  0.25486193  0.54319907  0.74321954  1  0.019353  -0.000225  0.089685  0.094586  -0.000683  1.009747  -0.002
H  H32  1  0.74515090  0.79998191  0.25677533  1  0.06139  -0.000167  0.089781  0.094694  -0.000671  1.009757  -0.002
H  H33  1  0.41180013  0.74321775  0.54319344  1  0.019464  -0.000197  0.089675  0.094565  -0.000663  1.009679  -0.002
H  H34  1  0.92154444  0.25676850  0.79998383  1  0.061265  -0.000162  0.089785  0.094611  -0.000668  1.009763  -0.002
H  H35  1  0.58818160  0.20002909  0.45680718  1  0.024328  -0.000178  0.08969  0.094592  -0.000665  1.00977  -0.002
H  H36  1  0.24389892  0.52488820  0.25605562  1  0.042659  0.002561  0.099375  0.109201  0.00115  1.037305  0.002
H  H37  1  0.08941255  0.47511858  0.73117007  1  0.0388  0.002574  0.09938  0.109274  0.001149  1.037226  0.002
H  H38  1  0.91058002  0.74395378  0.26883147  1  0.055322  0.002534  0.099372  0.109231  0.00115  1.037316  0.002
H  H39  1  0.57723461  0.73116392  0.47511093  1  0.038733  0.002576  0.099368  0.109179  0.00115  1.037355  0.002
H  H40  1  0.75609791  0.26882579  0.74395911  1  0.055597  0.002534  0.099402  0.10921  0.001151  1.037382  0.002
H  H41  1  0.42275435  0.25605757  0.52488818  1  0.042413  0.00256  0.099383  0.109292  0.00115  1.037285  0.002
H  H42  1  0.00851085  0.43068624  0.32714988  1  0.030764  -0.017574  0.098064  0.073496  -0.015096  0.987712  -0.01
H  H43  1  0.32483881  0.56932329  0.89646082  1  0.03937  -0.017546  0.098023  0.073465  -0.015106  0.987911  -0.01
H  H44  1  0.67518502  0.67286513  0.10354345  1  0.015351  -0.01767  0.098008  0.073404  -0.015101  0.987847  -0.01
H  H45  1  0.34185037  0.89645647  0.56930977  1  0.039386  -0.017533  0.098043  0.073476  -0.015095  0.98781  -0.01
H  H46  1  0.99150497  0.10353233  0.67285650  1  0.015369  -0.017671  0.09804  0.073458  -0.015099  0.98777  -0.01
H  H47  1  0.65815781  0.32714206  0.43068889  1  0.031303  -0.017574  0.098045  0.073467  -0.015099  0.98785  -0.01
H  H48  1  0.81902936  0.49119796  0.37016841  1  0.060324  0.00204  0.100633  0.074164  0.001285  1.031024  0.001
H  H49  1  0.51430900  0.50880612  0.87896596  1  0.048166  0.002049  0.100619  0.074169  0.001285  1.031096  0.001
H  H50  1  0.48570598  0.62983959  0.12103056  1  0.038517  0.002059  0.100571  0.07408  0.001285  1.031158  0.001
H  H51  1  0.15236530  0.87896690  0.50879810  1  0.048026  0.002049  0.100642  0.074179  0.001284  1.030971  0.001
H  H52  1  0.18096545  0.12102874  0.62983211  1  0.038268  0.002059  0.10063  0.074133  0.001285  1.03109  0.001
H  H53  1  0.84764154  0.37016536  0.49119825  1  0.060369  0.002039  0.100625  0.074225  0.001284  1.030948  0.001
H  H54  1  0.77996374  0.43098034  0.21467484  1  0.035804  -0.000706  0.101759  0.07959  -0.001073  0.99703  0.0
H  H55  1  0.55335336  0.56901633  0.78368002  1  0.036612  -0.000713  0.101722  0.079634  -0.001073  0.997271  0.0
H  H56  1  0.44666092  0.78533873  0.21630832  1  0.039048  -0.000708  0.101704  0.079532  -0.001073  0.997174  0.0
H  H57  1  0.11332630  0.78368899  0.56902126  1  0.036467  -0.000713  0.101693  0.079504  -0.001073  0.997192  0.0
H  H58  1  0.22005671  0.21630397  0.78532321  1  0.039315  -0.000708  0.101756  0.079685  -0.001073  0.997003  0.0
H  H59  1  0.88667262  0.21466485  0.43097856  1  0.035502  -0.000707  0.101705  0.079545  -0.001073  0.997213  0.0
H  H60  1  0.80902773  0.35891210  0.23154827  1  0.018679  0.000373  0.098718  0.072352  0.000316  0.968335  0.0
H  H61  1  0.52432399  0.64108574  0.87262043  1  0.027845  0.000367  0.098778  0.07244  0.000315  0.96819  0.0
H  H62  1  0.47568338  0.76845621  0.12736364  1  0.020329  0.000371  0.098721  0.072327  0.000317  0.968344  0.0
H  H63  1  0.14236137  0.87263305  0.64108261  1  0.028599  0.00037  0.098715  0.072328  0.000317  0.968264  0.0
H  H64  1  0.19100636  0.12736409  0.76845385  1  0.020541  0.00037  0.098773  0.072345  0.000316  0.968263  0.0
H  H65  1  0.85764925  0.23154904  0.35891693  1  0.018878  0.000374  0.098714  0.072354  0.000317  0.968186  0.0
H  H66  1  0.52577333  0.47298934  0.29975048  1  0.407838  1.8e-05  0.283963  0.224729  -0.000323  0.992119  0.0
H  H67  1  0.80755442  0.52699723  0.82673365  1  0.408651  1.8e-05  0.283948  0.224583  -0.000323  0.992314  0.0
H  H68  1  0.19246511  0.70026187  0.17326112  1  0.398163  1.8e-05  0.283983  0.224648  -0.000323  0.992185  0.0
H  H69  1  0.85911806  0.82673870  0.52699839  1  0.407991  1.9e-05  0.284004  0.224663  -0.000322  0.992283  0.0
H  H70  1  0.47423577  0.17324222  0.70024451  1  0.400941  1.9e-05  0.283983  0.224778  -0.000322  0.99203  0.0
H  H71  1  0.14087987  0.29973746  0.47300397  1  0.407645  1.8e-05  0.284001  0.224676  -0.000323  0.992233  0.0
H  H72  1  0.54449346  0.33229051  0.29197436  1  0.060412  -0.000176  0.093693  0.098116  -0.000119  0.989303  0.0
H  H73  1  0.78889170  0.66770064  0.95965263  1  -0.002161  -0.000184  0.093713  0.098121  -0.00012  0.98931  0.0
H  H74  1  0.21110989  0.70803984  0.04033860  1  3.1e-05  -0.000184  0.093634  0.098018  -0.00012  0.989374  0.0
H  H75  1  0.87778465  0.95966074  0.66769876  1  -0.00211  -0.000184  0.093705  0.098124  -0.00012  0.989341  0.0
H  H76  1  0.45554167  0.04031908  0.70802004  1  -5.2e-05  -0.000184  0.093612  0.098053  -0.00012  0.989477  0.0
H  H77  1  0.12222929  0.29196051  0.33230416  1  0.060427  -0.000176  0.093685  0.09807  -0.000119  0.989233  0.0
H  H78  1  0.60553582  0.41338741  0.37231245  1  -0.032757  -0.000826  0.078344  0.069599  -0.00075  1.027188  -0.001
H  H79  1  0.72785547  0.58660745  0.95890412  1  -0.011345  -0.000816  0.0783  0.069464  -0.000751  1.027043  -0.001
H  H80  1  0.27215410  0.62769905  0.04109304  1  0.016337  -0.000806  0.078341  0.069532  -0.00075  1.027069  -0.001
H  H81  1  0.93882723  0.95890748  0.58660373  1  -0.011418  -0.000814  0.078312  0.069486  -0.000749  1.027139  -0.001
H  H82  1  0.39449250  0.04107808  0.62768349  1  0.018281  -0.000805  0.07832  0.069608  -0.00075  1.027218  -0.001
H  H83  1  0.06118838  0.37230185  0.41339850  1  -0.032382  -0.000826  0.078291  0.069413  -0.00075  1.027099  -0.001
H  H84  1  0.37136096  0.40077401  0.33723623  1  0.045997  -0.000665  0.094818  0.099896  -0.00073  1.016933  0.0
H  H85  1  0.96201582  0.59921308  0.93642502  1  0.049375  -0.000666  0.094816  0.099762  -0.000731  1.017053  0.0
H  H86  1  0.03798823  0.66278125  0.06357095  1  0.050464  -0.000664  0.094776  0.099745  -0.000731  1.017033  0.0
H  H87  1  0.70466112  0.93642998  0.59920937  1  0.049328  -0.000665  0.094794  0.099734  -0.00073  1.017085  0.0
H  H88  1  0.62866314  0.06354453  0.66275839  1  0.050326  -0.000664  0.094804  0.099858  -0.00073  1.016997  0.0
H  H89  1  0.29535147  0.33721779  0.40079460  1  0.046012  -0.000665  0.094804  0.099756  -0.000731  1.017074  0.0
C  C90  1  0.15375632  0.62968993  0.45012565  1  0.590312  0.017581  0.097193  0.314869  0.015964  4.072926  0.015
C  C91  1  0.17953690  0.37030656  0.82043887  1  0.587796  0.017607  0.097189  0.314964  0.015958  4.072609  0.015
C  C92  1  0.82044334  0.54987752  0.17956443  1  0.564918  0.017585  0.097225  0.31484  0.015963  4.072623  0.015
C  C93  1  0.48711721  0.82044122  0.37030745  1  0.587367  0.01761  0.097216  0.31487  0.015963  4.072642  0.015
C  C94  1  0.84622496  0.17956650  0.54987629  1  0.565507  0.017587  0.097173  0.314852  0.015967  4.072796  0.015
C  C95  1  0.51287836  0.45013392  0.62969490  1  0.592117  0.017566  0.097159  0.314881  0.015963  4.072837  0.015
C  C96  1  0.34324224  0.60343114  0.43669278  1  -0.001314  0.000954  -0.028377  -0.171085  -0.000598  3.962085  -0.001
C  C97  1  0.99005938  0.39656754  0.83327042  1  0.031288  0.000923  -0.028559  -0.171439  -0.000606  3.96207  -0.001
C  C98  1  0.00992808  0.56330338  0.16673536  1  -0.035376  0.000983  -0.028493  -0.171302  -0.000597  3.962076  -0.001
C  C99  1  0.67659923  0.83326983  0.39656447  1  0.03175  0.000935  -0.028508  -0.171175  -0.000594  3.961901  -0.001
C  C100  1  0.65674317  0.16673712  0.56330438  1  -0.03555  0.000987  -0.028445  -0.171249  -0.000595  3.961935  -0.001
C  C101  1  0.32340485  0.43670503  0.60343804  1  -0.00244  0.000961  -0.028531  -0.171305  -0.000591  3.962112  -0.001
C  C102  1  0.40946137  0.56715771  0.47172575  1  -0.092637  0.006492  -0.08325  -0.123993  0.004812  3.958071  0.004
C  C103  1  0.92383802  0.43283958  0.90457383  1  -0.046882  0.006468  -0.083095  -0.123734  0.004807  3.957531  0.004
C  C104  1  0.07614093  0.52827203  0.09543251  1  -0.005232  0.006455  -0.083201  -0.123859  0.004806  3.958071  0.004
C  C105  1  0.74282580  0.90457213  0.43283350  1  -0.047086  0.006468  -0.083099  -0.123715  0.004807  3.957533  0.004
C  C106  1  0.59051802  0.09543302  0.52826721  1  -0.0048  0.006462  -0.083196  -0.123845  0.004812  3.957926  0.004
C  C107  1  0.25717153  0.47173053  0.56716306  1  -0.091928  0.006485  -0.083124  -0.123653  0.004807  3.957329  0.004
C  C108  1  0.29570302  0.55415498  0.51722503  1  0.066498  -0.002983  -0.019635  0.045399  -0.003389  4.043702  -0.002
C  C109  1  0.03760982  0.44584277  0.96307654  1  -0.01437  -0.002981  -0.019726  0.045388  -0.003392  4.043971  -0.002
C  C110  1  0.96238320  0.48277254  0.03692990  1  -0.06604  -0.002971  -0.019733  0.045311  -0.003388  4.043978  -0.002
C  C111  1  0.62905758  0.96307608  0.44583544  1  -0.014164  -0.002972  -0.019748  0.045182  -0.003383  4.043831  -0.002
C  C112  1  0.70428180  0.03692981  0.48276486  1  -0.066061  -0.002971  -0.019669  0.04547  -0.003389  4.043808  -0.002
C  C113  1  0.37094577  0.51723035  0.55415325  1  0.026287  -0.002972  -0.019691  0.045337  -0.00338  4.043653  -0.002
C  C114  1  0.10741362  0.57956251  0.52859987  1  -0.086296  0.007415  -0.082734  -0.096114  0.005677  3.991777  0.004
C  C115  1  0.22588361  0.42043684  0.94904335  1  -0.03385  0.007378  -0.082836  -0.096351  0.00567  3.992729  0.004
C  C116  1  0.77409795  0.47139559  0.05096034  1  -0.093831  0.007442  -0.082746  -0.09616  0.005672  3.991916  0.004
C  C117  1  0.44077919  0.94904318  0.42043045  1  -0.03382  0.007378  -0.082766  -0.096197  0.00567  3.992508  0.004
C  C118  1  0.89256566  0.05096359  0.47139016  1  -0.094786  0.007448  -0.082768  -0.096228  0.005676  3.992166  0.004
C  C119  1  0.55921849  0.52860640  0.57956298  1  -0.094787  0.007408  -0.08284  -0.096315  0.005667  3.992663  0.004
C  C120  1  0.03922959  0.61704378  0.49639685  1  0.009263  -0.003721  -0.097947  -0.193651  -0.004688  3.982006  -0.003
C  C121  1  0.29408691  0.38295401  0.87936075  1  -0.042537  -0.003691  -0.097963  -0.193592  -0.004694  3.981978  -0.003
C  C122  1  0.70589889  0.50360283  0.12064694  1  0.050904  -0.003695  -0.097881  -0.193442  -0.004688  3.981595  -0.003
C  C123  1  0.37257493  0.87935969  0.38295078  1  -0.042243  -0.003682  -0.09804  -0.193643  -0.004684  3.982007  -0.003
C  C124  1  0.96076138  0.12064933  0.50359789  1  0.054596  -0.003697  -0.097872  -0.193496  -0.004688  3.981915  -0.003
C  C125  1  0.62742666  0.49640817  0.61704848  1  0.008586  -0.003714  -0.098013  -0.193652  -0.00468  3.982047  -0.003
C  C126  1  0.47820358  0.61181358  0.38797961  1  1.483785  0.025292  0.235402  0.600509  0.023787  4.110099  0.022
C  C127  1  0.85510878  0.38818741  0.77617002  1  1.516264  0.025241  0.235368  0.600451  0.023777  4.109823  0.022
C  C128  1  0.14487881  0.61202196  0.22383616  1  1.516787  0.025155  0.23537  0.600462  0.023775  4.10981  0.022
C  C129  1  0.81153931  0.77616500  0.38818331  1  1.516012  0.02525  0.235312  0.600393  0.023782  4.109974  0.022
C  C130  1  0.52178346  0.22383450  0.61202033  1  1.51672  0.025174  0.235338  0.600316  0.023793  4.110178  0.022
C  C131  1  0.18845732  0.38798320  0.61182162  1  1.483716  0.025288  0.235347  0.600389  0.023783  4.109891  0.022
C  C132  1  0.14297460  0.48526006  0.25426749  1  0.265931  0.006997  -0.154099  -0.241748  0.003275  4.002248  0.008
C  C133  1  0.19034842  0.51474439  0.76900688  1  0.257618  0.007007  -0.154231  -0.241947  0.003268  4.001972  0.008
C  C134  1  0.80965137  0.74574146  0.23099352  1  0.191278  0.007045  -0.154395  -0.242152  0.003269  4.002399  0.008
C  C135  1  0.47630653  0.76900190  0.51473610  1  0.257658  0.007002  -0.154122  -0.241711  0.003271  4.002308  0.008
C  C136  1  0.85703190  0.23098585  0.74574328  1  0.191834  0.007039  -0.154452  -0.242067  0.003269  4.002274  0.008
C  C137  1  0.52368539  0.25426992  0.48526492  1  0.265717  0.006992  -0.154142  -0.241825  0.003269  4.002451  0.008
C  C138  1  0.90182229  0.46450828  0.32016378  1  0.293574  0.006189  -0.076825  -0.066917  0.002678  3.944519  0.008
C  C139  1  0.43151282  0.53549466  0.85564989  1  0.276715  0.006322  -0.076873  -0.067054  0.00267  3.944733  0.008
C  C140  1  0.56849533  0.67984618  0.14434916  1  0.328926  0.006253  -0.076732  -0.066744  0.002672  3.944586  0.007
C  C141  1  0.23515868  0.85564953  0.53548694  1  0.276768  0.006321  -0.076911  -0.066993  0.002675  3.944521  0.007
C  C142  1  0.09818102  0.14434242  0.67983843  1  0.328988  0.006254  -0.07684  -0.066942  0.00267  3.944652  0.007
C  C143  1  0.76484650  0.32016055  0.46451290  1  0.292986  0.006181  -0.076872  -0.066996  0.002671  3.944598  0.007
C  C144  1  0.76625908  0.41574730  0.25639596  1  0.315117  -0.000372  -0.071959  -0.040582  -0.001395  3.914085  0.0
C  C145  1  0.56707984  0.58424885  0.84063262  1  0.315754  -0.00039  -0.072055  -0.040787  -0.001413  3.914156  0.0
C  C146  1  0.43293293  0.74361366  0.15935797  1  0.32217  -0.00038  -0.071972  -0.040553  -0.001399  3.914112  0.0
C  C147  1  0.09960047  0.84063958  0.58424675  1  0.315088  -0.000363  -0.071861  -0.040341  -0.001386  3.913998  0.0
C  C148  1  0.23375971  0.15935116  0.74360240  1  0.321057  -0.000377  -0.072026  -0.040622  -0.001396  3.913943  0.0
C  C149  1  0.90040304  0.25639024  0.41575295  1  0.315326  -0.000368  -0.071906  -0.040479  -0.00139  3.914007  0.0
C  C150  1  0.52155980  0.39088931  0.32187509  1  0.27411  -0.000543  -0.152129  -0.222896  -0.000966  4.036198  0.0
C  C151  1  0.81181545  0.60910097  0.93095674  1  0.310746  -0.000551  -0.151956  -0.222337  -0.000967  4.035607  0.0
C  C152  1  0.18819010  0.67813838  0.06903767  1  0.272953  -0.000564  -0.151888  -0.222321  -0.000966  4.035827  0.0
C  C153  1  0.85486153  0.93096260  0.60909869  1  0.310787  -0.000551  -0.151904  -0.222358  -0.000966  4.035926  0.0
C  C154  1  0.47846854  0.06901715  0.67811921  1  0.270625  -0.000564  -0.151959  -0.222701  -0.000966  4.036512  0.0
C  C155  1  0.14514957  0.32186095  0.39090404  1  0.274088  -0.000543  -0.15186  -0.222193  -0.000966  4.035631  0.0
N  N156  1  0.00634624  0.51868539  0.31255993  1  -1.065163  -0.067537  -0.445781  -0.336106  -0.088289  3.320749  -0.078
N  N157  1  0.32696874  0.48131571  0.79387639  1  -1.04013  -0.067763  -0.445547  -0.335868  -0.088521  3.32043  -0.078
N  N158  1  0.67302508  0.68744765  0.20612802  1  -1.04893  -0.067711  -0.445453  -0.335797  -0.088363  3.320565  -0.078
N  N159  1  0.33968755  0.79387049  0.48130921  1  -1.040235  -0.067472  -0.445674  -0.336121  -0.088236  3.320741  -0.078
N  N160  1  0.99364469  0.20612091  0.68744595  1  -1.049081  -0.067678  -0.445503  -0.335796  -0.088324  3.320608  -0.078
N  N161  1  0.66031457  0.31256090  0.51868963  1  -1.065145  -0.067509  -0.445736  -0.336164  -0.08827  3.32081  -0.078
N  N162  1  0.56663662  0.42042048  0.27556977  1  -1.087624  -0.010654  -0.503282  -0.330833  -0.011586  3.450006  -0.008
N  N163  1  0.76670533  0.57956752  0.85512309  1  -1.096638  -0.010668  -0.503315  -0.330852  -0.011605  3.449884  -0.008
N  N164  1  0.23330736  0.72444246  0.14486971  1  -1.080399  -0.010653  -0.503442  -0.330995  -0.011592  3.44995  -0.008
N  N165  1  0.89997354  0.85512970  0.57956895  1  -1.095874  -0.010641  -0.503523  -0.331086  -0.011577  3.450192  -0.008
N  N166  1  0.43338214  0.14485097  0.72442529  1  -1.081994  -0.010655  -0.503342  -0.330957  -0.011594  3.450291  -0.008
N  N167  1  0.10003007  0.27555896  0.42043482  1  -1.087708  -0.010654  -0.503507  -0.331112  -0.011586  3.450096  -0.008
O  O168  1  0.07413719  0.66640084  0.42112232  1  -1.163453  0.079276  -0.333399  -0.547062  0.056002  2.521719  0.026
O  O169  1  0.25917250  0.33359700  0.75472807  1  -1.165549  0.079295  -0.333248  -0.546963  0.055963  2.521399  0.026
O  O170  1  0.74080912  0.57888123  0.24527544  1  -1.163239  0.079248  -0.333394  -0.547009  0.056017  2.521608  0.026
O  O171  1  0.40748352  0.75472901  0.33359784  1  -1.165729  0.079373  -0.333338  -0.546941  0.056012  2.521648  0.026
O  O172  1  0.92585294  0.24527971  0.57888678  1  -1.163493  0.079244  -0.333432  -0.547033  0.056008  2.521768  0.026
O  O173  1  0.59251174  0.42113650  0.66640901  1  -1.164368  0.079377  -0.333303  -0.54691  0.056058  2.521873  0.026
O  O174  1  0.41743117  0.63642008  0.34756971  1  -1.187666  0.069581  -0.28658  -0.553881  0.052133  2.456303  0.029
O  O175  1  0.91589194  0.36359323  0.71115888  1  -1.191163  0.069567  -0.286503  -0.553724  0.052106  2.456017  0.028
O  O176  1  0.08409853  0.65243040  0.28884969  1  -1.188313  0.069519  -0.286544  -0.553801  0.052107  2.456219  0.028
O  O177  1  0.75076102  0.71115553  0.36359158  1  -1.191324  0.06958  -0.286481  -0.553783  0.052121  2.456413  0.028
O  O178  1  0.58256752  0.28884990  0.65243198  1  -1.18825  0.06957  -0.286571  -0.553821  0.052146  2.456291  0.029
O  O179  1  0.24922676  0.34757655  0.63642925  1  -1.187675  0.069562  -0.28649  -0.553786  0.052123  2.456506  0.028
O  O180  1  0.65032994  0.59389618  0.38766248  1  -1.179553  0.08526  -0.293528  -0.530431  0.06363  2.338202  0.05
O  O181  1  0.68297401  0.40609991  0.79376879  1  -1.179239  0.085231  -0.293567  -0.530457  0.063624  2.337908  0.05
O  O182  1  0.31700938  0.61233915  0.20623789  1  -1.179145  0.085296  -0.293489  -0.53039  0.063623  2.337889  0.05
O  O183  1  0.98368433  0.79376503  0.40609429  1  -1.179071  0.085239  -0.293532  -0.530435  0.063624  2.337749  0.05
O  O184  1  0.34965699  0.20624090  0.61233578  1  -1.179187  0.085313  -0.293494  -0.530316  0.063632  2.338196  0.05
O  O185  1  0.01631520  0.38766454  0.59390058  1  -1.179795  0.085277  -0.293496  -0.530402  0.063613  2.337689  0.05
