# generated using pymatgen
data_CdH10C10(SN4)2
_symmetry_space_group_name_H-M   'P 1'
_cell_length_a   8.13929161
_cell_length_b   9.66183382
_cell_length_c   10.69230367
_cell_angle_alpha   63.13853856
_cell_angle_beta   85.77286346
_cell_angle_gamma   80.55246045
_symmetry_Int_Tables_number   1
_chemical_formula_structural   CdH10C10(SN4)2
_chemical_formula_sum   'Cd2 H20 C20 S4 N16'
_cell_volume   739.94729598
_cell_formula_units_Z   2
loop_
 _symmetry_equiv_pos_site_id
 _symmetry_equiv_pos_as_xyz
  1  'x, y, z'
loop_
 _atom_site_type_symbol
 _atom_site_label
 _atom_site_symmetry_multiplicity
 _atom_site_fract_x
 _atom_site_fract_y
 _atom_site_fract_z
 _atom_site_occupancy
 _atom_site_pbe_bader_spin_density
 _atom_site_pbe_cm5_charge
 _atom_site_pbe_ddec_charge
 _atom_site_pbe_ddec_spin_density
 _atom_site_pbe_ddec_sum_bond_order
 _atom_site_pbe_magmom
Cd  Cd0  1  0.49999885  0.49999890  0.50000061  1  0  0.72424  0.750276  0  2.485672  0
Cd  Cd1  1  0.00000124  0.00000092  0.49999989  1  0  0.723478  0.749945  0  2.483343  0
H  H2  1  0.45834869  0.40106508  0.12508186  1  0  0.292692  0.29307  0  1.018  0
H  H3  1  0.04152916  0.47374387  0.12495382  1  0  0.292498  0.293114  0  1.017834  0
H  H4  1  0.54164655  0.59893379  0.87491829  1  0  0.292728  0.293104  0  1.018016  0
H  H5  1  0.95847290  0.52625578  0.87504909  1  0  0.292477  0.293064  0  1.017885  0
H  H6  1  0.48157022  0.34506513  0.30681478  1  0  0.296337  0.310225  0  0.977392  0
H  H7  1  0.01829973  0.34801998  0.30659351  1  0  0.296593  0.310547  0  0.977773  0
H  H8  1  0.51842767  0.65493197  0.69318598  1  0  0.296343  0.310241  0  0.977402  0
H  H9  1  0.98170498  0.65197697  0.69341096  1  0  0.296605  0.310552  0  0.977786  0
H  H10  1  0.73694964  0.80667885  0.89251354  1  0  0.09858  0.0649  0  1.056202  0
H  H11  1  0.76239730  0.30060024  0.89241594  1  0  0.0986  0.064668  0  1.05616  0
H  H12  1  0.26304750  0.19332015  0.10749002  1  0  0.098604  0.064916  0  1.056111  0
H  H13  1  0.23760299  0.69940534  0.10758455  1  0  0.098593  0.064658  0  1.056241  0
H  H14  1  0.86073511  0.85231503  0.07977237  1  0  0.104886  0.122817  0  1.013418  0
H  H15  1  0.63884645  0.06774686  0.07982409  1  0  0.10502  0.122542  0  1.013798  0
H  H16  1  0.13926486  0.14768334  0.92022947  1  0  0.104871  0.122781  0  1.013428  0
H  H17  1  0.36116062  0.93225324  0.92017016  1  0  0.105001  0.122502  0  1.013815  0
H  H18  1  0.76537360  0.69816522  0.32940360  1  0  0.110044  0.080435  0  1.021914  0
H  H19  1  0.73476698  0.97223364  0.32934393  1  0  0.110206  0.081061  0  1.021266  0
H  H20  1  0.23462798  0.30182981  0.67059925  1  0  0.110028  0.080442  0  1.021855  0
H  H21  1  0.26523639  0.02776387  0.67065291  1  0  0.110224  0.081071  0  1.021212  0
C  C22  1  0.90284543  0.31350850  0.57058406  1  0  0.149583  0.275611  0  4.298752  0
C  C23  1  0.59706510  0.11628319  0.57047884  1  0  0.15014  0.276487  0  4.298944  0
C  C24  1  0.09715874  0.68650270  0.42940962  1  0  0.149513  0.275479  0  4.298779  0
C  C25  1  0.40293260  0.88371834  0.42951864  1  0  0.150048  0.276416  0  4.298576  0
C  C26  1  0.58126997  0.54087910  0.17210228  1  0  0.343854  0.566366  0  4.069896  0
C  C27  1  0.91857735  0.28688387  0.17188149  1  0  0.343853  0.568578  0  4.069358  0
C  C28  1  0.41872717  0.45912083  0.82790035  1  0  0.343858  0.566473  0  4.069789  0
C  C29  1  0.08142207  0.71311756  0.82812081  1  0  0.34388  0.568598  0  4.069263  0
C  C30  1  0.71254512  0.73749348  0.00402245  1  0  0.059219  0.157181  0  3.989502  0
C  C31  1  0.78693437  0.25832974  0.00391516  1  0  0.059274  0.157844  0  3.989722  0
C  C32  1  0.28745363  0.26250403  0.99598025  1  0  0.059101  0.157064  0  3.989514  0
C  C33  1  0.21306486  0.74167520  0.99608480  1  0  0.059196  0.157704  0  3.98985  0
C  C34  1  0.77778156  0.76584378  0.10601131  1  0  -0.113968  -0.238691  0  4.021424  0
C  C35  1  0.72187300  0.12800526  0.10598844  1  0  -0.113028  -0.237006  0  4.021857  0
C  C36  1  0.22221878  0.23414851  0.89399428  1  0  -0.113922  -0.238589  0  4.021491  0
C  C37  1  0.27812840  0.87199701  0.89400832  1  0  -0.112919  -0.23687  0  4.022003  0
C  C38  1  0.72746371  0.67988630  0.24273419  1  0  0.054576  0.151215  0  3.980051  0
C  C39  1  0.77249349  0.07721034  0.24266856  1  0  0.053986  0.150022  0  3.980432  0
C  C40  1  0.27253873  0.32010914  0.75727060  1  0  0.054537  0.151145  0  3.9802  0
C  C41  1  0.22750649  0.92279083  0.75733047  1  0  0.053918  0.150004  0  3.980549  0
S  S42  1  0.80506515  0.43778825  0.62427780  1  0  -0.12906  -0.269586  0  2.529064  0
S  S43  1  0.69498673  0.93836194  0.62396952  1  0  -0.129109  -0.269861  0  2.529411  0
S  S44  1  0.19493761  0.56222746  0.37571254  1  0  -0.129049  -0.26954  0  2.5292  0
S  S45  1  0.30501579  0.06163701  0.37602351  1  0  -0.129054  -0.269811  0  2.529555  0
N  N46  1  0.97898175  0.22513132  0.53105798  1  0  -0.398821  -0.492535  0  3.183682  0
N  N47  1  0.52069922  0.24408760  0.53111492  1  0  -0.399249  -0.492969  0  3.186762  0
N  N48  1  0.02101257  0.77487856  0.46893701  1  0  -0.398766  -0.492433  0  3.18357  0
N  N49  1  0.47930205  0.75590116  0.46888834  1  0  -0.39918  -0.492931  0  3.186287  0
N  N50  1  0.62749704  0.57054506  0.27678406  1  0  -0.345909  -0.389073  0  3.408535  0
N  N51  1  0.87254031  0.15253955  0.27662373  1  0  -0.34626  -0.390227  0  3.408248  0
N  N52  1  0.37249924  0.42945259  0.72321850  1  0  -0.34582  -0.389049  0  3.408592  0
N  N53  1  0.12745948  0.84746047  0.72337764  1  0  -0.346223  -0.390202  0  3.408265  0
N  N54  1  0.61655361  0.62713370  0.03458885  1  0  -0.317983  -0.381576  0  3.273938  0
N  N55  1  0.88309896  0.33811130  0.03439102  1  0  -0.318457  -0.383014  0  3.274307  0
N  N56  1  0.38344002  0.37286479  0.96541402  1  0  -0.31794  -0.381564  0  3.273974  0
N  N57  1  0.11689942  0.66189135  0.96560886  1  0  -0.318474  -0.382987  0  3.274243  0
N  N58  1  0.49373551  0.42294302  0.20444039  1  0  -0.566015  -0.625584  0  3.342115  0
N  N59  1  0.00618449  0.37247765  0.20422503  1  0  -0.565964  -0.626699  0  3.343206  0
N  N60  1  0.50625812  0.57705640  0.79556155  1  0  -0.566051  -0.625662  0  3.342203  0
N  N61  1  0.99381795  0.62752059  0.79577695  1  0  -0.565963  -0.626659  0  3.343153  0
