# generated using pymatgen
data_Zn4H27C39N3O16
_symmetry_space_group_name_H-M   'P 1'
_cell_length_a   21.57507263
_cell_length_b   21.25547763
_cell_length_c   21.88508265
_cell_angle_alpha   90.07453381
_cell_angle_beta   120.81397849
_cell_angle_gamma   119.13731335
_symmetry_Int_Tables_number   1
_chemical_formula_structural   Zn4H27C39N3O16
_chemical_formula_sum   'Zn8 H54 C78 N6 O32'
_cell_volume   7095.78288325
_cell_formula_units_Z   2
loop_
 _symmetry_equiv_pos_site_id
 _symmetry_equiv_pos_as_xyz
  1  'x, y, z'
loop_
 _atom_site_type_symbol
 _atom_site_label
 _atom_site_symmetry_multiplicity
 _atom_site_fract_x
 _atom_site_fract_y
 _atom_site_fract_z
 _atom_site_occupancy
 _atom_site_pbe_bader_charge
 _atom_site_pbe_bader_spin_density
 _atom_site_pbe_cm5_charge
 _atom_site_pbe_ddec_charge
 _atom_site_pbe_ddec_spin_density
 _atom_site_pbe_ddec_sum_bond_order
 _atom_site_pbe_magmom
Zn  Zn0  1  0.09465063  0.12148940  0.03479262  1  1.294283  0  0.652689  0.948192  0  2.44146  0
Zn  Zn1  1  0.09591001  0.97382816  0.03830235  1  1.301315  0  0.663313  0.956975  0  2.395455  0
Zn  Zn2  1  0.94692583  0.97432810  0.88870426  1  1.325944  0  0.677404  0.971554  0  2.363937  0
Zn  Zn3  1  0.94753715  0.97664682  0.03843196  1  1.341005  0  0.692714  0.9889  0  2.310561  0
Zn  Zn4  1  0.95655523  0.40623762  0.46407529  1  1.298519  0  0.671956  0.939611  0  2.492287  0
Zn  Zn5  1  0.93812742  0.53919008  0.45713024  1  1.319297  0  0.672535  0.958276  0  2.411476  0
Zn  Zn6  1  0.10385071  0.55654955  0.46796389  1  1.318304  0  0.670062  0.979737  0  2.261215  0
Zn  Zn7  1  0.08807554  0.54657308  0.61233987  1  1.315509  0  0.670992  0.969261  0  2.347783  0
H  H8  1  0.58078652  0.42108611  0.18457929  1  0.040327  0  0.098054  0.133364  0  0.993275  0
H  H9  1  0.54791014  0.48205468  0.18913007  1  0.04554  0  0.098882  0.132382  0  0.987483  0
H  H10  1  0.46915005  0.38870504  0.12066908  1  0.049709  0  0.095917  0.127121  0  0.990673  0
H  H11  1  0.45610863  0.39289177  0.22806930  1  0.052259  0  0.115403  0.085677  0  0.963793  0
H  H12  1  0.56667403  0.42535804  0.29327419  1  0.061499  0  0.114369  0.088056  0  0.970192  0
H  H13  1  0.35068600  0.27551713  0.16017228  1  0.138309  0  0.126467  0.109089  0  0.999736  0
H  H14  1  0.53905031  0.13051203  0.24323307  1  0.115475  0  0.111946  0.117117  0  0.991531  0
H  H15  1  0.70273567  0.22996339  0.33216826  1  0.10026  0  0.109887  0.118045  0  0.992061  0
H  H16  1  0.65895569  0.40725955  0.31294571  1  0.087088  0  0.109525  0.118441  0  1.025368  0
H  H17  1  0.06913262  0.42845086  0.84989892  1  0.055273  0  0.096983  0.131993  0  0.996326  0
H  H18  1  0.16687676  0.48759840  0.94248294  1  0.021308  0  0.095626  0.127322  0  0.993125  0
H  H19  1  0.08274399  0.39526421  0.92751605  1  0.040195  0  0.096131  0.127957  0  0.991533  0
H  H20  1  0.20778013  0.39481328  0.94692499  1  0.049225  0  0.115663  0.086003  0  0.961823  0
H  H21  1  0.19669589  0.42798330  0.87058577  1  0.045649  0  0.114377  0.088348  0  0.96889  0
H  H22  1  0.12613696  0.27767768  0.93493202  1  0.105292  0  0.125629  0.108012  0  1.002693  0
H  H23  1  0.88692249  0.13669840  0.60762285  1  0.076377  0  0.113688  0.119616  0  0.989705  0
H  H24  1  0.91191070  0.23743075  0.54488127  1  0.119814  0  0.109942  0.118136  0  0.994132  0
H  H25  1  0.10516109  0.41273873  0.76178027  1  0.093581  0  0.107775  0.115839  0  1.025392  0
H  H26  1  0.25787881  0.43031181  0.37430357  1  0.046007  0  0.096837  0.131992  0  0.996324  0
H  H27  1  0.31679995  0.49005663  0.34048227  1  0.042532  0  0.095422  0.127212  0  0.992977  0
H  H28  1  0.28714824  0.39437083  0.32752114  1  0.039844  0  0.09658  0.129397  0  0.988923  0
H  H29  1  0.18813159  0.40544442  0.20676687  1  0.054893  0  0.114221  0.084546  0  0.962469  0
H  H30  1  0.15791025  0.44188244  0.25115243  1  0.050319  0  0.111587  0.083419  0  0.973711  0
H  H31  1  0.13457239  0.28638772  0.16725402  1  0.130031  0  0.12428  0.103232  0  1.005971  0
H  H32  1  0.89866234  0.15127894  0.25618767  1  0.127882  0  0.115889  0.12216  0  0.987173  0
H  H33  1  0.91712876  0.25391102  0.33561984  1  0.092937  0  0.109108  0.117345  0  0.996004  0
H  H34  1  0.12081662  0.42637446  0.32298476  1  0.099512  0  0.10634  0.113397  0  1.027576  0
H  H35  1  0.23265808  0.81544471  0.84201399  1  0.046025  0  0.096107  0.130059  0  0.998437  0
H  H36  1  0.29537199  0.81275478  0.93389301  1  0.035191  0  0.099237  0.132868  0  0.987107  0
H  H37  1  0.26863970  0.88092071  0.92222426  1  0.027659  0  0.100457  0.135889  0  0.982172  0
H  H38  1  0.17353199  0.77346385  0.94662974  1  0.059289  0  0.117356  0.08889  0  0.959631  0
H  H39  1  0.13726669  0.70596451  0.86876581  1  0.042363  0  0.111308  0.083044  0  0.974303  0
H  H40  1  0.12465268  0.84385708  0.93709992  1  0.125648  0  0.130526  0.112452  0  0.990003  0
H  H41  1  0.86340558  0.73322796  0.61147075  1  0.112968  0  0.112098  0.1179  0  0.990975  0
H  H42  1  0.88213164  0.65410269  0.54452384  1  0.110877  0  0.107104  0.114655  0  0.998717  0
H  H43  1  0.09563060  0.68661523  0.75794851  1  0.104595  0  0.107826  0.117544  0  1.026665  0
H  H44  1  0.07617864  0.64780815  0.19933587  1  0.03572  0  0.094522  0.128071  0  1.000529  0
H  H45  1  0.17581735  0.68679726  0.20853024  1  0.027401  0  0.094074  0.124737  0  0.995247  0
H  H46  1  0.09332612  0.69744083  0.13831587  1  0.040039  0  0.096433  0.128974  0  0.989811  0
H  H47  1  0.21654713  0.81947771  0.24817864  1  0.050268  0  0.11957  0.092999  0  0.956262  0
H  H48  1  0.20229104  0.77242344  0.31067986  1  0.061721  0  0.112618  0.085682  0  0.970927  0
H  H49  1  0.13467887  0.85556317  0.17632336  1  0.134188  0  0.129273  0.110616  0  0.996205  0
H  H50  1  0.88916225  0.75491452  0.25485451  1  0.131824  0  0.114186  0.119863  0  0.989809  0
H  H51  1  0.90543841  0.67070289  0.33517523  1  0.095955  0  0.107246  0.114935  0  1.0009  0
H  H52  1  0.10872261  0.69563223  0.32460543  1  0.081506  0  0.106136  0.113628  0  1.028216  0
H  H53  1  0.46206015  0.82518329  0.59098625  1  0.034701  0  0.093694  0.126081  0  1.002552  0
H  H54  1  0.49278683  0.81655637  0.53149856  1  0.038074  0  0.095648  0.127142  0  0.992321  0
H  H55  1  0.57335575  0.88605828  0.62336296  1  0.04919  0  0.101036  0.136469  0  0.983324  0
H  H56  1  0.58338699  0.77358997  0.62031968  1  0.076669  0  0.121569  0.096196  0  0.952969  0
H  H57  1  0.47318203  0.71105898  0.58771826  1  0.050838  0  0.110884  0.082442  0  0.975595  0
H  H58  1  0.69058020  0.84605193  0.73613170  1  0.14935  0  0.133915  0.117902  0  0.986637  0
H  H59  1  0.50865776  0.76151467  0.87795579  1  0.088023  0  0.112133  0.117782  0  0.99286  0
H  H60  1  0.34418419  0.67781621  0.77926010  1  0.067526  0  0.104397  0.111021  0  1.004006  0
H  H61  1  0.38213938  0.69584347  0.60447974  1  0.08638  0  0.106235  0.115481  0  1.029178  0
C  C62  1  0.52801575  0.42256334  0.17898833  1  -0.066301  0  -0.236246  -0.385686  0  3.949074  0
C  C63  1  0.50918994  0.39126453  0.23450576  1  0.296622  0  -0.050105  -0.015081  0  3.925359  0
C  C64  1  0.39356774  0.25584387  0.17898968  1  0.387737  0  0.051622  0.026191  0  3.963249  0
C  C65  1  0.35596120  0.17842414  0.15768705  1  0.036177  0  -0.044659  -0.23261  0  3.960335  0
C  C66  1  0.25850452  0.12845322  0.11213525  1  1.559201  0  0.219369  0.624807  0  4.177455  0
C  C67  1  0.41174813  0.15035181  0.18046975  1  0.966184  0  0.128256  0.353773  0  4.102757  0
C  C68  1  0.50747855  0.21238312  0.23068730  1  -0.069566  0  -0.010527  -0.069106  0  3.926704  0
C  C69  1  0.56692708  0.19145362  0.26001172  1  0.013416  0  -0.075336  -0.075585  0  3.976384  0
C  C70  1  0.65632986  0.24585174  0.30830689  1  -0.021908  0  -0.08326  -0.102638  0  3.977661  0
C  C71  1  0.68851737  0.32378876  0.32722122  1  -0.060991  0  -0.014429  -0.015899  0  3.997366  0
C  C72  1  0.63119178  0.34641008  0.29763792  1  0.036038  0  -0.088171  -0.195212  0  3.959746  0
C  C73  1  0.54030403  0.29089165  0.25020579  1  0.345345  0  0.10454  0.14721  0  3.99366  0
C  C74  1  0.78493826  0.38217173  0.38004721  1  1.561518  0  0.227111  0.601526  0  4.161642  0
C  C75  1  0.11695229  0.42842375  0.90358391  1  -0.063351  0  -0.238349  -0.387276  0  3.956302  0
C  C76  1  0.16025766  0.39455411  0.89276910  1  0.317244  0  -0.049997  -0.014131  0  3.925161  0
C  C77  1  0.08422868  0.25872722  0.87347453  1  0.39527  0  0.05106  0.025808  0  3.96853  0
C  C78  1  0.02373017  0.18159841  0.83445220  1  0.052638  0  -0.044681  -0.232503  0  3.961612  0
C  C79  1  0.02259577  0.13076504  0.88127412  1  1.563077  0  0.220392  0.624433  0  4.179746  0
C  C80  1  0.96554697  0.15465337  0.75189140  1  0.988278  0  0.130283  0.352729  0  4.105432  0
C  C81  1  0.98349752  0.21742576  0.71894328  1  -0.071495  0  -0.011438  -0.07104  0  3.927144  0
C  C82  1  0.93497930  0.19748362  0.64013758  1  0.066653  0  -0.073377  -0.073555  0  3.976845  0
C  C83  1  0.94850329  0.25260636  0.60595160  1  -0.010102  0  -0.084164  -0.103914  0  3.979297  0
C  C84  1  0.01037632  0.33040492  0.65079091  1  0.038342  0  -0.015635  -0.017093  0  3.994942  0
C  C85  1  0.05859370  0.35203505  0.72917973  1  -0.10057  0  -0.088873  -0.197227  0  3.961734  0
C  C86  1  0.04681850  0.29566176  0.76381344  1  0.371499  0  0.104168  0.147531  0  3.992632  0
C  C87  1  0.02319026  0.38903150  0.61268734  1  1.53248  0  0.228069  0.605079  0  4.156292  0
C  C88  1  0.26536746  0.43135994  0.32826703  1  -0.066567  0  -0.237327  -0.386843  0  3.954235  0
C  C89  1  0.17967689  0.40444991  0.25224728  1  0.306211  0  -0.0511  -0.013373  0  3.931012  0
C  C90  1  0.09429735  0.26846501  0.18797510  1  0.348027  0  0.048944  0.025242  0  3.96708  0
C  C91  1  0.03415456  0.19162979  0.16748283  1  0.107413  0  -0.042752  -0.228719  0  3.961235  0
C  C92  1  0.02911443  0.13881820  0.11762661  1  1.539351  0  0.222461  0.626395  0  4.174928  0
C  C93  1  0.97931683  0.16628340  0.19460479  1  0.95585  0  0.129781  0.347658  0  4.106223  0
C  C94  1  0.99667588  0.23056757  0.24336823  1  -0.018758  0  -0.009958  -0.067305  0  3.926019  0
C  C95  1  0.94638371  0.21189319  0.27116459  1  -0.035948  0  -0.07234  -0.073065  0  3.977526  0
C  C96  1  0.95682337  0.26814218  0.31474161  1  0.005239  0  -0.084475  -0.101336  0  3.981046  0
C  C97  1  0.01970495  0.34568944  0.33268344  1  -0.02479  0  -0.016638  -0.021792  0  3.994252  0
C  C98  1  0.07209641  0.36598331  0.30723974  1  -0.030582  0  -0.090418  -0.197272  0  3.9615  0
C  C99  1  0.06015117  0.30844468  0.26162956  1  0.330181  0  0.103371  0.14504  0  3.990311  0
C  C100  1  0.02657628  0.40400261  0.37867899  1  1.555582  0  0.22676  0.606695  0  4.15373  0
C  C101  1  0.24407872  0.82192105  0.89730233  1  -0.035284  0  -0.236073  -0.387655  0  3.946541  0
C  C102  1  0.16083808  0.76534382  0.89085279  1  0.306058  0  -0.050321  -0.014641  0  3.926405  0
C  C103  1  0.07886718  0.81897850  0.87575298  1  0.391667  0  0.054197  0.029439  0  3.9536  0
C  C104  1  0.01646745  0.83444324  0.83841127  1  0.010935  0  -0.042831  -0.229871  0  3.962564  0
C  C105  1  0.01806409  0.88642197  0.88564328  1  1.580626  0  0.222616  0.628589  0  4.174911  0
C  C106  1  0.95213414  0.79911177  0.75648588  1  0.986306  0  0.128176  0.351425  0  4.106214  0
C  C107  1  0.96811556  0.75406528  0.72116132  1  -0.052654  0  -0.009912  -0.066858  0  3.92407  0
C  C108  1  0.91371030  0.72208048  0.64220419  1  -0.009399  0  -0.075852  -0.077606  0  3.981046  0
C  C109  1  0.92387143  0.67864308  0.60577096  1  -0.012073  0  -0.087263  -0.105882  0  3.987211  0
C  C110  1  0.98961877  0.66569322  0.64852916  1  -0.061523  0  -0.017563  -0.02247  0  3.99483  0
C  C111  1  0.04501431  0.69720329  0.72705661  1  -0.006655  0  -0.088865  -0.195131  0  3.956157  0
C  C112  1  0.03490526  0.74176009  0.76401562  1  0.354201  0  0.104192  0.146364  0  3.988863  0
C  C113  1  0.99954212  0.61804129  0.60861592  1  1.552614  0  0.228628  0.607921  0  4.15582  0
C  C114  1  0.12550490  0.69630909  0.19629145  1  -0.049295  0  -0.23793  -0.386076  0  3.959283  0
C  C115  1  0.16763327  0.77172049  0.25220506  1  0.320373  0  -0.050437  -0.015395  0  3.924042  0
C  C116  1  0.09213981  0.83275522  0.19479110  1  0.33545  0  0.052149  0.028097  0  3.958392  0
C  C117  1  0.03216406  0.85061396  0.17294249  1  0.068317  0  -0.04341  -0.231657  0  3.962312  0
C  C118  1  0.03005507  0.89962594  0.12431529  1  1.548229  0  0.222707  0.626187  0  4.177798  0
C  C119  1  0.97490653  0.82123211  0.19764931  1  0.971348  0  0.130307  0.349012  0  4.102949  0
C  C120  1  0.98883810  0.77215771  0.24484330  1  -0.005696  0  -0.010385  -0.067945  0  3.92547  0
C  C121  1  0.93659248  0.74088228  0.27084263  1  -0.048671  0  -0.074486  -0.075316  0  3.980205  0
C  C122  1  0.94572761  0.69505162  0.31478529  1  -0.031188  0  -0.087236  -0.105364  0  3.990223  0
C  C123  1  0.00851054  0.67922582  0.33407301  1  -0.037632  0  -0.018032  -0.024394  0  3.997212  0
C  C124  1  0.06121997  0.70937746  0.30881593  1  0.014033  0  -0.090558  -0.196085  0  3.959052  0
C  C125  1  0.05193173  0.75624517  0.26419239  1  0.335262  0  0.10318  0.144914  0  3.991305  0
C  C126  1  0.01691949  0.62970005  0.38208751  1  1.581725  0  0.228881  0.610509  0  4.153348  0
C  C127  1  0.51365924  0.82781707  0.59008477  1  -0.064041  0  -0.237927  -0.387734  0  3.955359  0
C  C128  1  0.53149196  0.76990377  0.62150742  1  0.297215  0  -0.049163  -0.015063  0  3.922187  0
C  C129  1  0.64886232  0.82682975  0.75546227  1  0.330748  0  0.056797  0.033435  0  3.945792  0
C  C130  1  0.68789161  0.84815849  0.83186610  1  0.124124  0  -0.043039  -0.231821  0  3.958487  0
C  C131  1  0.78560056  0.89628259  0.88210164  1  1.529566  0  0.223318  0.625684  0  4.176376  0
C  C132  1  0.63321362  0.82318832  0.85913484  1  0.944723  0  0.129515  0.348537  0  4.103692  0
C  C133  1  0.53703449  0.77421497  0.79720340  1  -0.040807  0  -0.010974  -0.068968  0  3.923599  0
C  C134  1  0.47909072  0.74578917  0.81763553  1  0.044611  0  -0.075799  -0.076894  0  3.985763  0
C  C135  1  0.38935471  0.70034098  0.76363379  1  -0.008052  0  -0.089857  -0.108796  0  3.998726  0
C  C136  1  0.35502412  0.68259532  0.68652334  1  0.016387  0  -0.019218  -0.025837  0  4.000148  0
C  C137  1  0.41115086  0.71030477  0.66457379  1  -0.12764  0  -0.09008  -0.196977  0  3.958556  0
C  C138  1  0.50255374  0.75566302  0.71970204  1  0.401542  0  0.104408  0.148845  0  3.987582  0
C  C139  1  0.25765814  0.63342841  0.62894939  1  1.570036  0  0.229666  0.613066  0  4.147541  0
N  N140  1  0.48053795  0.31111931  0.22233646  1  -1.253339  0  -0.243194  -0.009866  0  3.720071  0
N  N141  1  0.09696658  0.31472802  0.84234964  1  -1.250628  0  -0.245102  -0.012151  0  3.722808  0
N  N142  1  0.10865014  0.32571533  0.23224041  1  -1.239309  0  -0.246039  -0.014946  0  3.719474  0
N  N143  1  0.08898441  0.77428797  0.84266338  1  -1.230621  0  -0.243806  -0.01375  0  3.714107  0
N  N144  1  0.10394515  0.78854716  0.23820566  1  -1.224387  0  -0.24426  -0.012547  0  3.7165  0
N  N145  1  0.56138669  0.78297048  0.70045660  1  -1.220581  0  -0.243746  -0.014002  0  3.716649  0
O  O146  1  0.02001373  0.01056198  0.99978102  1  -1.222574  0  -0.572832  -1.033084  0  2.542253  0
O  O147  1  0.22056100  0.05666655  0.08919705  1  -1.15509  0  -0.306002  -0.519463  0  2.345131  0
O  O148  1  0.22053877  0.16315042  0.10015733  1  -1.180241  0  -0.335296  -0.581268  0  2.349776  0
O  O149  1  0.38636932  0.08264795  0.16235296  1  -1.087913  0  -0.307919  -0.44117  0  2.060798  0
O  O150  1  0.81399717  0.45235927  0.38679196  1  -1.167725  0  -0.314321  -0.54118  0  2.309879  0
O  O151  1  0.83148735  0.35680000  0.41521928  1  -1.17749  0  -0.315577  -0.543066  0  2.3565  0
O  O152  1  0.96563349  0.05936971  0.84808779  1  -1.163339  0  -0.300712  -0.512864  0  2.344317  0
O  O153  1  0.08100339  0.16463556  0.95297084  1  -1.187672  0  -0.33558  -0.582361  0  2.351971  0
O  O154  1  0.90618658  0.08745258  0.71015156  1  -1.095653  0  -0.2979  -0.426545  0  2.062563  0
O  O155  1  0.06252084  0.45847676  0.65016935  1  -1.165565  0  -0.315578  -0.54809  0  2.297293  0
O  O156  1  0.99249107  0.36374258  0.54374183  1  -1.169897  0  -0.317322  -0.543243  0  2.362921  0
O  O157  1  0.98066217  0.06765303  0.10355184  1  -1.146707  0  -0.29622  -0.511583  0  2.343256  0
O  O158  1  0.07599668  0.17104395  0.09313018  1  -1.184385  0  -0.338217  -0.583635  0  2.344338  0
O  O159  1  0.92236650  0.09941110  0.17996530  1  -1.080464  0  -0.284962  -0.408351  0  2.062527  0
O  O160  1  0.09114385  0.47415551  0.40730009  1  -1.166999  0  -0.315788  -0.548113  0  2.261482  0
O  O161  1  0.96375917  0.37722305  0.38527162  1  -1.185065  0  -0.322344  -0.554625  0  2.390754  0
O  O162  1  0.97589884  0.91554696  0.85243431  1  -1.162331  0  -0.304357  -0.520556  0  2.348967  0
O  O163  1  0.06385468  0.89841657  0.95698740  1  -1.183908  0  -0.330621  -0.574463  0  2.330986  0
O  O164  1  0.88818033  0.80268489  0.71731963  1  -1.088777  0  -0.301929  -0.432781  0  2.058434  0
O  O165  1  0.05904899  0.60630011  0.64852888  1  -1.172447  0  -0.317009  -0.547355  0  2.308363  0
O  O166  1  0.94639875  0.59236766  0.53670399  1  -1.176565  0  -0.316271  -0.550339  0  2.363214  0
O  O167  1  0.97133585  0.91260622  0.09864425  1  -1.144561  0  -0.297933  -0.512077  0  2.347154  0
O  O168  1  0.08885240  0.92449522  0.11205263  1  -1.190662  0  -0.332909  -0.577284  0  2.343041  0
O  O169  1  0.91948112  0.83384725  0.18331873  1  -1.072182  0  -0.288553  -0.412703  0  2.062273  0
O  O170  1  0.07638640  0.61767759  0.40286552  1  -1.177201  0  -0.318953  -0.553995  0  2.293342  0
O  O171  1  0.96219060  0.60330179  0.39843515  1  -1.197168  0  -0.316934  -0.547898  0  2.382133  0
O  O172  1  0.82375453  0.91833818  0.95288002  1  -1.146396  0  -0.299345  -0.514227  0  2.348275  0
O  O173  1  0.82303196  0.91143214  0.84851227  1  -1.193976  0  -0.327515  -0.571402  0  2.345992  0
O  O174  1  0.65945331  0.83872242  0.92582850  1  -1.072599  0  -0.291692  -0.416748  0  2.06161  0
O  O175  1  0.22721814  0.61996250  0.55906240  1  -1.177285  0  -0.3195  -0.553443  0  2.299416  0
O  O176  1  0.21292899  0.60876541  0.65558728  1  -1.190142  0  -0.318526  -0.553794  0  2.363164  0
O  O177  1  0.02777300  0.51761585  0.50261501  1  -1.217585  0  -0.572476  -1.025521  0  2.531911  0
