# generated using pymatgen
data_Zn4H4C24S4N4O21
_symmetry_space_group_name_H-M   'P 1'
_cell_length_a   19.61363469
_cell_length_b   19.57359701
_cell_length_c   33.29383225
_cell_angle_alpha   79.12308149
_cell_angle_beta   79.00289277
_cell_angle_gamma   63.85915271
_symmetry_Int_Tables_number   1
_chemical_formula_structural   Zn4H4C24S4N4O21
_chemical_formula_sum   'Zn16 H16 C96 S16 N16 O84'
_cell_volume   11183.98934988
_cell_formula_units_Z   4
loop_
 _symmetry_equiv_pos_site_id
 _symmetry_equiv_pos_as_xyz
  1  'x, y, z'
loop_
 _atom_site_type_symbol
 _atom_site_label
 _atom_site_symmetry_multiplicity
 _atom_site_fract_x
 _atom_site_fract_y
 _atom_site_fract_z
 _atom_site_occupancy
 _atom_site_pbe_bader_charge
 _atom_site_pbe_bader_spin_density
 _atom_site_pbe_cm5_charge
 _atom_site_pbe_ddec_charge
 _atom_site_pbe_ddec_spin_density
 _atom_site_pbe_ddec_sum_bond_order
 _atom_site_pbe_magmom
Zn  Zn0  1  0.05551471  0.40013455  0.47750381  1  1.315688  0  0.674647  0.970919  0  2.337643  0
Zn  Zn1  1  0.98714483  0.48265402  0.55970997  1  1.321057  0  0.690001  0.989188  0  2.33607  0
Zn  Zn2  1  0.05804125  0.56371051  0.48258461  1  1.318587  0  0.682782  0.980836  0  2.336045  0
Zn  Zn3  1  0.90212836  0.55307749  0.47721942  1  1.322305  0  0.680605  0.975891  0  2.346199  0
Zn  Zn4  1  0.69505542  0.34888708  0.27180072  1  1.317193  0  0.674334  0.971323  0  2.341308  0
Zn  Zn5  1  0.69079522  0.18904479  0.26440132  1  1.32494  0  0.681583  0.978199  0  2.343048  0
Zn  Zn6  1  0.77014932  0.26427339  0.18872538  1  1.310169  0  0.682317  0.97887  0  2.337344  0
Zn  Zn7  1  0.84978798  0.19708699  0.27104992  1  1.326171  0  0.689587  0.987412  0  2.336198  0
Zn  Zn8  1  0.26817804  0.76343126  0.68864594  1  1.312347  0  0.689662  0.987854  0  2.331134  0
Zn  Zn9  1  0.35069541  0.69658169  0.76994817  1  1.321325  0  0.682169  0.979359  0  2.339451  0
Zn  Zn10  1  0.19535230  0.84870831  0.77174004  1  1.317767  0  0.674658  0.972583  0  2.337458  0
Zn  Zn11  1  0.19051094  0.68884690  0.76446988  1  1.319507  0  0.681311  0.976953  0  2.33945  0
Zn  Zn12  1  0.55831673  0.06358284  0.98264679  1  1.317203  0  0.681914  0.978279  0  2.337056  0
Zn  Zn13  1  0.40298347  0.05377944  0.97599441  1  1.328471  0  0.689547  0.987521  0  2.333459  0
Zn  Zn14  1  0.55550046  0.90023244  0.97777087  1  1.317668  0  0.674261  0.970879  0  2.339442  0
Zn  Zn15  1  0.48474373  0.98588449  0.05971209  1  1.33409  0  0.680941  0.976735  0  2.343417  0
H  H16  1  0.79643206  0.50136851  0.39987100  1  0.103155  0  0.113353  0.120349  0  0.985056  0
H  H17  1  0.95124479  0.24386302  0.35253970  1  0.141736  0  0.115673  0.124246  0  0.981474  0
H  H18  1  0.74744873  0.45511209  0.35113893  1  0.080099  0  0.111891  0.117938  0  0.987412  0
H  H19  1  0.00194604  0.29181145  0.39957683  1  0.089871  0  0.112869  0.118974  0  0.984993  0
H  H20  1  0.15415614  0.65352249  0.54750797  1  0.103197  0  0.114693  0.122894  0  0.982629  0
H  H21  1  0.09647953  0.59847456  0.69926650  1  0.073353  0  0.112966  0.119672  0  0.985197  0
H  H22  1  0.20070585  0.70283261  0.59598167  1  0.125438  0  0.115399  0.123715  0  0.981108  0
H  H23  1  0.04594384  0.55325791  0.65081645  1  0.11372  0  0.11509  0.12394  0  0.980849  0
H  H24  1  0.70250359  0.20330619  0.09511145  1  0.114209  0  0.11496  0.123078  0  0.983076  0
H  H25  1  0.54935054  0.05241173  0.15066970  1  0.123989  0  0.112916  0.119613  0  0.985393  0
H  H26  1  0.65516296  0.15416185  0.04692603  1  0.140974  0  0.114611  0.122718  0  0.981931  0
H  H27  1  0.60027522  0.09784481  0.19878885  1  0.089349  0  0.113113  0.119994  0  0.985067  0
H  H28  1  0.24731636  0.95287320  0.85206746  1  0.130601  0  0.112484  0.118867  0  0.986737  0
H  H29  1  0.50310401  0.79184719  0.89930899  1  0.073896  0  0.111759  0.1181  0  0.9871  0
H  H30  1  0.29513458  0.99902265  0.90137752  1  0.096628  0  0.115626  0.124945  0  0.980397  0
H  H31  1  0.45360186  0.74402569  0.85162221  1  0.09692  0  0.114265  0.122563  0  0.983182  0
C  C32  1  0.06519130  0.31620900  0.56024875  1  1.627921  0  0.223622  0.619747  0  4.208557  0
C  C33  1  0.06849783  0.57241935  0.56777630  1  1.545434  0  0.232726  0.60696  0  4.156891  0
C  C34  1  0.18086076  0.44128372  0.43814482  1  1.638056  0  0.224591  0.621451  0  4.204766  0
C  C35  1  0.93647303  0.68392932  0.43822433  1  1.621239  0  0.224274  0.621669  0  4.204875  0
C  C36  1  0.93121549  0.42765682  0.43089380  1  1.538862  0  0.231864  0.609378  0  4.156725  0
C  C37  1  0.82128451  0.55720090  0.56003646  1  1.635423  0  0.22529  0.61782  0  4.209042  0
C  C38  1  0.56698325  0.31020492  0.30948104  1  1.61428  0  0.223737  0.620848  0  4.20846  0
C  C39  1  0.68365615  0.18067113  0.17845705  1  1.543894  0  0.231705  0.605733  0  4.159489  0
C  C40  1  0.69172149  0.43132652  0.18905165  1  1.659172  0  0.224144  0.620336  0  4.205289  0
C  C41  1  0.93537808  0.18998496  0.18871617  1  1.604977  0  0.224718  0.621762  0  4.20764  0
C  C42  1  0.81744027  0.31898655  0.32034607  1  1.553085  0  0.231802  0.606647  0  4.157349  0
C  C43  1  0.81166377  0.06882612  0.30857369  1  1.627926  0  0.225291  0.61751  0  4.209105  0
C  C44  1  0.43460042  0.68708040  0.68779721  1  1.619721  0  0.224282  0.620955  0  4.204746  0
C  C45  1  0.31920376  0.81826503  0.81971221  1  1.556774  0  0.232457  0.60699  0  4.156639  0
C  C46  1  0.19332579  0.93010190  0.68877873  1  1.619116  0  0.22412  0.618993  0  4.205267  0
C  C47  1  0.06688624  0.81059851  0.80936013  1  1.605744  0  0.224009  0.619761  0  4.209847  0
C  C48  1  0.18073390  0.68075953  0.67915004  1  1.528956  0  0.232472  0.607431  0  4.154806  0
C  C49  1  0.31089511  0.56946245  0.80923629  1  1.613155  0  0.224154  0.618396  0  4.210708  0
C  C50  1  0.43821904  0.18343617  0.93747112  1  1.628952  0  0.22313  0.618532  0  4.211557  0
C  C51  1  0.43115479  0.92683378  0.93143409  1  1.541681  0  0.232422  0.608096  0  4.152746  0
C  C52  1  0.68097456  0.94100673  0.93827097  1  1.637375  0  0.224143  0.620172  0  4.207026  0
C  C53  1  0.56253904  0.81827074  0.06123771  1  1.633638  0  0.224338  0.619361  0  4.208668  0
C  C54  1  0.56966944  0.07281082  0.06763668  1  1.545028  0  0.231256  0.605198  0  4.15801  0
C  C55  1  0.32019668  0.06224606  0.05917882  1  1.626043  0  0.223808  0.615955  0  4.210555  0
C  C56  1  0.90197821  0.39926815  0.40240181  1  0.016237  0  -0.012215  -0.034008  0  3.967831  0
C  C57  1  0.84660641  0.34690358  0.34909585  1  0.075858  0  -0.011531  -0.032775  0  3.969565  0
C  C58  1  0.83001316  0.44541191  0.38905322  1  -0.0824  0  -0.076406  -0.087413  0  3.955982  0
C  C59  1  0.91819139  0.30036473  0.36281147  1  -0.112867  0  -0.073404  -0.083987  0  3.949974  0
C  C60  1  0.80275984  0.41963937  0.36217757  1  -0.024286  0  -0.07679  -0.088689  0  3.963013  0
C  C61  1  0.94611670  0.32681825  0.38902860  1  -0.00369  0  -0.075499  -0.086922  0  3.958192  0
C  C62  1  0.09739418  0.60071598  0.59645640  1  -0.039824  0  -0.011675  -0.033811  0  3.969662  0
C  C63  1  0.15150510  0.65309635  0.65033720  1  -0.04771  0  -0.011568  -0.033928  0  3.969501  0
C  C64  1  0.14128662  0.64247534  0.58074993  1  -0.051724  0  -0.074615  -0.086956  0  3.953313  0
C  C65  1  0.10823240  0.61069664  0.66602684  1  0.050741  0  -0.075481  -0.087023  0  3.961127  0
C  C66  1  0.16748347  0.66939878  0.60761068  1  -0.031714  0  -0.073367  -0.083922  0  3.949796  0
C  C67  1  0.08052398  0.58532231  0.63918382  1  -0.0021  0  -0.074339  -0.085858  0  3.954128  0
C  C68  1  0.30646048  0.45391754  0.40188783  1  0.313443  0  0.079387  0.033339  0  3.930121  0
C  C69  1  0.44659109  0.29341039  0.35077338  1  0.298846  0  0.079474  0.034217  0  3.932052  0
C  C70  1  0.25886765  0.41615890  0.41514017  1  -0.104396  0  -0.0018  -0.14705  0  3.881497  0
C  C71  1  0.49329004  0.33190277  0.33675842  1  -0.082926  0  -0.00368  -0.149464  0  3.886872  0
C  C72  1  0.37672862  0.33914422  0.37285461  1  -0.129228  0  -0.013171  -0.06411  0  4.081776  0
C  C73  1  0.37326088  0.41074558  0.37677117  1  -0.113746  0  -0.013382  -0.062668  0  4.084303  0
C  C74  1  0.72870866  0.57691139  0.62915866  1  0.356357  0  0.080218  0.034198  0  3.925732  0
C  C75  1  0.52756478  0.67561543  0.61925105  1  0.309495  0  0.079138  0.032954  0  3.933658  0
C  C76  1  0.74681704  0.58516621  0.58650356  1  -0.170635  0  -0.00239  -0.14747  0  3.882181  0
C  C77  1  0.50953316  0.66615785  0.66183184  1  -0.104603  0  -0.003563  -0.14949  0  3.887785  0
C  C78  1  0.60734137  0.63993486  0.60707619  1  -0.124233  0  -0.013332  -0.064174  0  4.08232  0
C  C79  1  0.64872289  0.60663920  0.64103937  1  -0.097771  0  -0.013684  -0.064807  0  4.087927  0
C  C80  1  0.07566163  0.22372085  0.62886013  1  0.366827  0  0.079825  0.033858  0  3.928569  0
C  C81  1  0.17409170  0.02192448  0.61942467  1  0.378061  0  0.080834  0.034237  0  3.923693  0
C  C82  1  0.08557179  0.24130782  0.58626210  1  -0.095836  0  -0.003452  -0.147823  0  3.886288  0
C  C83  1  0.16559815  0.00438584  0.66210750  1  -0.115993  0  -0.002643  -0.14611  0  3.880284  0
C  C84  1  0.14467788  0.10195462  0.60732290  1  -0.136573  0  -0.013338  -0.06253  0  4.082704  0
C  C85  1  0.11123283  0.14392748  0.64116379  1  -0.203465  0  -0.014024  -0.064588  0  4.084383  0
C  C86  1  0.83962779  0.80537999  0.39794624  1  0.262528  0  0.080185  0.034866  0  3.933922  0
C  C87  1  0.90455315  0.95199097  0.35352641  1  0.316723  0  0.080908  0.034333  0  3.925533  0
C  C88  1  0.90796904  0.76138295  0.41471003  1  -0.091618  0  -0.004009  -0.15107  0  3.888048  0
C  C89  1  0.83675196  0.99543212  0.33607883  1  -0.123196  0  -0.001949  -0.146471  0  3.880868  0
C  C90  1  0.90716508  0.88103719  0.37443989  1  -0.078891  0  -0.013173  -0.063722  0  4.084473  0
C  C91  1  0.83957308  0.87326618  0.37393612  1  -0.127549  0  -0.014348  -0.065843  0  4.082521  0
C  C92  1  0.65426022  0.15310544  0.14964889  1  -0.029733  0  -0.011289  -0.031139  0  3.968064  0
C  C93  1  0.59934300  0.10079773  0.09609488  1  -0.016371  0  -0.011275  -0.031463  0  3.967058  0
C  C94  1  0.66954004  0.16965422  0.10689716  1  -0.010973  0  -0.073898  -0.08606  0  3.951312  0
C  C95  1  0.58339239  0.08495852  0.13885970  1  -0.084967  0  -0.076437  -0.087962  0  3.959871  0
C  C96  1  0.64289957  0.14283163  0.08019736  1  -0.023919  0  -0.074517  -0.086492  0  3.95029  0
C  C97  1  0.61140596  0.11034362  0.16552555  1  -0.026008  0  -0.07623  -0.088186  0  3.960071  0
C  C98  1  0.67179470  0.52381422  0.11996787  1  0.346861  0  0.080063  0.03352  0  3.930846  0
C  C99  1  0.57298711  0.72540030  0.12987438  1  0.325456  0  0.079667  0.032932  0  3.931298  0
C  C100  1  0.66320698  0.50585575  0.16261434  1  -0.162404  0  -0.002763  -0.146881  0  3.88323  0
C  C101  1  0.58299564  0.74335024  0.08731393  1  -0.126114  0  -0.003785  -0.148136  0  3.882692  0
C  C102  1  0.60856785  0.64552407  0.14201509  1  -0.110675  0  -0.01333  -0.062364  0  4.080576  0
C  C103  1  0.64222674  0.60389919  0.10805661  1  -0.116192  0  -0.013531  -0.064423  0  4.085398  0
C  C104  1  0.08463877  0.12064310  0.17655828  1  0.332452  0  0.079841  0.033435  0  3.932699  0
C  C105  1  0.17033326  0.12290978  0.07094245  1  0.301617  0  0.080323  0.035069  0  3.923707  0
C  C106  1  0.01181268  0.16033967  0.16428539  1  -0.120967  0  -0.00406  -0.150225  0  3.889774  0
C  C107  1  0.24332777  0.08450145  0.08322536  1  -0.09561  0  -0.001893  -0.147199  0  3.881874  0
C  C108  1  0.11251325  0.13936263  0.10501348  1  -0.147782  0  -0.014154  -0.065819  0  4.088739  0
C  C109  1  0.14275371  0.11010710  0.14271077  1  -0.151364  0  -0.013553  -0.064663  0  4.082681  0
C  C110  1  0.34780861  0.84592025  0.84894069  1  -0.040108  0  -0.011755  -0.032938  0  3.963902  0
C  C111  1  0.40201566  0.89822232  0.90297987  1  -0.031413  0  -0.011776  -0.03223  0  3.965551  0
C  C112  1  0.30296389  0.91787884  0.86280808  1  -0.074942  0  -0.075732  -0.087423  0  3.958766  0
C  C113  1  0.44701908  0.82639470  0.88898782  1  -0.026525  0  -0.076103  -0.08901  0  3.961431  0
C  C114  1  0.32960017  0.94364581  0.89001455  1  0.016895  0  -0.074959  -0.086805  0  3.950679  0
C  C115  1  0.41973833  0.80000780  0.86239509  1  0.033684  0  -0.075401  -0.086114  0  3.952849  0
C  C116  1  0.40399221  0.45302199  0.85419071  1  0.284329  0  0.079549  0.033143  0  3.931825  0
C  C117  1  0.34050972  0.30520259  0.89801306  1  0.253193  0  0.080475  0.03359  0  3.934196  0
C  C118  1  0.33587731  0.49639388  0.83702069  1  -0.095774  0  -0.002024  -0.14739  0  3.88217  0
C  C119  1  0.40919596  0.26120003  0.91440366  1  -0.110938  0  -0.003635  -0.147676  0  3.888245  0
C  C120  1  0.33976050  0.37364626  0.87442380  1  -0.08675  0  -0.013948  -0.066431  0  4.084457  0
C  C121  1  0.40723456  0.38170593  0.87483344  1  -0.088797  0  -0.013306  -0.063376  0  4.087502  0
C  C122  1  0.94660496  0.79354776  0.85078228  1  0.285945  0  0.079541  0.033205  0  3.930632  0
C  C123  1  0.80639884  0.95384763  0.90200827  1  0.29649  0  0.079396  0.032784  0  3.929244  0
C  C124  1  0.99321430  0.83215188  0.83671032  1  -0.06874  0  -0.002906  -0.14731  0  3.882473  0
C  C125  1  0.75893897  0.91592980  0.91527147  1  -0.097585  0  -0.002704  -0.147176  0  3.882577  0
C  C126  1  0.87315357  0.91087846  0.87679680  1  -0.113916  0  -0.013257  -0.06243  0  4.083662  0
C  C127  1  0.87674084  0.83923957  0.87287546  1  -0.128044  0  -0.013322  -0.064256  0  4.083711  0
S  S128  1  0.29708725  0.32691314  0.39776628  1  0.388526  0  0.148078  0.226687  0  2.796539  0
S  S129  1  0.45250555  0.42340373  0.35163842  1  0.386263  0  0.146479  0.224693  0  2.807533  0
S  S130  1  0.66585435  0.63130846  0.56111072  1  0.404945  0  0.152914  0.233906  0  2.793016  0
S  S131  1  0.59044354  0.61531458  0.68705029  1  0.394754  0  0.148551  0.227911  0  2.804422  0
S  S132  1  0.13649323  0.15986142  0.56122480  1  0.378254  0  0.146753  0.224039  0  2.805213  0
S  S133  1  0.11962160  0.08598471  0.68724770  1  0.389585  0  0.147108  0.224936  0  2.800896  0
S  S134  1  0.97147198  0.80416996  0.40195669  1  0.399697  0  0.149382  0.229115  0  2.804729  0
S  S135  1  0.77543553  0.95022893  0.34633608  1  0.395424  0  0.152299  0.23352  0  2.789055  0
S  S136  1  0.61696890  0.58713211  0.18797099  1  0.388525  0  0.148165  0.226152  0  2.796566  0
S  S137  1  0.63426596  0.66215262  0.06209499  1  0.395751  0  0.146835  0.225471  0  2.805485  0
S  S138  1  0.01440726  0.18292479  0.11118036  1  0.417238  0  0.148852  0.228816  0  2.805705  0
S  S139  1  0.24089682  0.06662115  0.13643575  1  0.449445  0  0.153211  0.234476  0  2.792933  0
S  S140  1  0.27497639  0.45078964  0.84727007  1  0.400653  0  0.155667  0.237863  0  2.791337  0
S  S141  1  0.47216980  0.30458028  0.90185730  1  0.398487  0  0.148251  0.227089  0  2.803354  0
S  S142  1  0.95234064  0.92364119  0.85160553  1  0.384103  0  0.147799  0.226085  0  2.804598  0
S  S143  1  0.79727326  0.82674949  0.89780707  1  0.395469  0  0.147322  0.225725  0  2.801187  0
N  N144  1  0.29723145  0.52623353  0.41304250  1  0.374386  0  0.059582  0.526472  0  4.218638  0
N  N145  1  0.46410140  0.21405535  0.34736092  1  0.387859  0  0.060722  0.52867  0  4.220973  0
N  N146  1  0.78031738  0.54842398  0.66068608  1  0.386404  0  0.061573  0.527904  0  4.216982  0
N  N147  1  0.47572600  0.72064697  0.58851260  1  0.380409  0  0.06017  0.526403  0  4.221208  0
N  N148  1  0.03024846  0.27575082  0.65963256  1  0.36815  0  0.060749  0.52763  0  4.218395  0
N  N149  1  0.20264419  0.96971487  0.58803315  1  0.379596  0  0.06165  0.527801  0  4.216546  0
N  N150  1  0.77112631  0.79117822  0.40463852  1  0.38626  0  0.060179  0.527854  0  4.223559  0
N  N151  1  0.96621486  0.97356360  0.35506028  1  0.392544  0  0.061391  0.528693  0  4.215841  0
N  N152  1  0.70136943  0.47176949  0.08851612  1  0.357342  0  0.059847  0.52675  0  4.221759  0
N  N153  1  0.52803740  0.77728543  0.16074737  1  0.382547  0  0.06149  0.529563  0  4.219597  0
N  N154  1  0.10483115  0.08656568  0.21790864  1  0.37915  0  0.060485  0.526659  0  4.221303  0
N  N155  1  0.14888835  0.14102593  0.02935628  1  0.382835  0  0.061301  0.527779  0  4.213407  0
N  N156  1  0.46557934  0.47481087  0.85529897  1  0.359863  0  0.059601  0.526687  0  4.222093  0
N  N157  1  0.27219666  0.29059673  0.90482293  1  0.37336  0  0.060103  0.527827  0  4.220552  0
N  N158  1  0.96405203  0.71412132  0.84760494  1  0.386016  0  0.060628  0.528236  0  4.21833  0
N  N159  1  0.79711035  0.02608336  0.91329552  1  0.383039  0  0.059144  0.527148  0  4.218818  0
O  O160  1  0.00118226  0.49958925  0.49903367  1  -1.219657  0  -0.573809  -1.044224  0  2.530499  0
O  O161  1  0.06689261  0.31400448  0.52188655  1  -1.149501  0  -0.311047  -0.53459  0  2.302015  0
O  O162  1  0.02052058  0.54405359  0.58377436  1  -1.163028  0  -0.31014  -0.541325  0  2.339927  0
O  O163  1  0.14157349  0.51247679  0.43983332  1  -1.160088  0  -0.305692  -0.526482  0  2.34568  0
O  O164  1  0.05038212  0.37427397  0.57769744  1  -1.157632  0  -0.305134  -0.525485  0  2.34496  0
O  O165  1  0.16033194  0.38700708  0.45309002  1  -1.162082  0  -0.311793  -0.535917  0  2.301032  0
O  O166  1  0.09390728  0.57868504  0.52954926  1  -1.167165  0  -0.310964  -0.542691  0  2.33319  0
O  O167  1  0.99522296  0.66640097  0.45612038  1  -1.148112  0  -0.310107  -0.533497  0  2.306772  0
O  O168  1  0.88351233  0.48811883  0.44692558  1  -1.168432  0  -0.313525  -0.546285  0  2.339594  0
O  O169  1  0.90257119  0.64198553  0.43766725  1  -1.158084  0  -0.305397  -0.525532  0  2.343349  0
O  O170  1  0.00134674  0.38949829  0.43702265  1  -1.172804  0  -0.313915  -0.546913  0  2.326717  0
O  O171  1  0.87836976  0.50365287  0.57574058  1  -1.156107  0  -0.303764  -0.523138  0  2.350344  0
O  O172  1  0.81934319  0.58941992  0.52276831  1  -1.156704  0  -0.308576  -0.529822  0  2.306177  0
O  O173  1  0.75033496  0.25058132  0.24919933  1  -1.22246  0  -0.573779  -1.043849  0  2.52973  0
O  O174  1  0.60210882  0.35215382  0.30894004  1  -1.154749  0  -0.311533  -0.535429  0  2.306892  0
O  O175  1  0.67764251  0.15414668  0.21648473  1  -1.174523  0  -0.314212  -0.547559  0  2.339302  0
O  O176  1  0.74541738  0.37449330  0.17310146  1  -1.15856  0  -0.306132  -0.52682  0  2.348615  0
O  O177  1  0.58714781  0.25487787  0.28874678  1  -1.154295  0  -0.305068  -0.524381  0  2.346021  0
O  O178  1  0.65991706  0.43307347  0.22641905  1  -1.156607  0  -0.311306  -0.534965  0  2.299028  0
O  O179  1  0.71254301  0.22842826  0.16292067  1  -1.154758  0  -0.309452  -0.539358  0  2.33229  0
O  O180  1  0.87924787  0.20864108  0.16843700  1  -1.14665  0  -0.310329  -0.533962  0  2.306849  0
O  O181  1  0.85518608  0.24884394  0.31397046  1  -1.165065  0  -0.308837  -0.538529  0  2.339179  0
O  O182  1  0.93194268  0.19629387  0.22634603  1  -1.158512  0  -0.305172  -0.525865  0  2.344551  0
O  O183  1  0.75726410  0.36726849  0.30433335  1  -1.172062  0  -0.31507  -0.54888  0  2.329498  0
O  O184  1  0.73983549  0.10161052  0.30551205  1  -1.159419  0  -0.308398  -0.529602  0  2.30499  0
O  O185  1  0.86240250  0.09104116  0.28995102  1  -1.151777  0  -0.303771  -0.523057  0  2.349852  0
O  O186  1  0.25038922  0.75016811  0.74938222  1  -1.214637  0  -0.573459  -1.043785  0  2.527157  0
O  O187  1  0.37674955  0.70067086  0.67064386  1  -1.15641  0  -0.305326  -0.526967  0  2.343387  0
O  O188  1  0.35859082  0.74900883  0.81197894  1  -1.171444  0  -0.310223  -0.540363  0  2.338353  0
O  O189  1  0.16141293  0.93261047  0.72615702  1  -1.157691  0  -0.311992  -0.537171  0  2.301309  0
O  O190  1  0.43655688  0.68705616  0.72600051  1  -1.150777  0  -0.309944  -0.532223  0  2.301938  0
O  O191  1  0.24642825  0.87264063  0.67305012  1  -1.150541  0  -0.303037  -0.521626  0  2.349406  0
O  O192  1  0.25777173  0.86599672  0.80469625  1  -1.168396  0  -0.314402  -0.547966  0  2.33075  0
O  O193  1  0.10203802  0.85250766  0.80884520  1  -1.145199  0  -0.310816  -0.534323  0  2.303918  0
O  O194  1  0.17624961  0.65326058  0.71710859  1  -1.165993  0  -0.313759  -0.547131  0  2.331452  0
O  O195  1  0.08688919  0.75542906  0.78855283  1  -1.151268  0  -0.304808  -0.523531  0  2.348635  0
O  O196  1  0.20809763  0.72974038  0.66365084  1  -1.153743  0  -0.309421  -0.539753  0  2.33583  0
O  O197  1  0.36191099  0.59096839  0.79025000  1  -1.156377  0  -0.30742  -0.528972  0  2.348634  0
O  O198  1  0.23908307  0.60238366  0.80622802  1  -1.14001  0  -0.307091  -0.527384  0  2.303757  0
O  O199  1  0.50110924  0.99969937  0.99921391  1  -1.240686  0  -0.573139  -1.042815  0  2.528303  0
O  O200  1  0.49589066  0.16640787  0.95618640  1  -1.152099  0  -0.309039  -0.531723  0  2.307672  0
O  O201  1  0.38359566  0.98764014  0.94721903  1  -1.158142  0  -0.309349  -0.540031  0  2.339056  0
O  O202  1  0.66033746  0.88679507  0.95323116  1  -1.161429  0  -0.31138  -0.535205  0  2.301402  0
O  O203  1  0.40577712  0.14071386  0.93576315  1  -1.154583  0  -0.304387  -0.524757  0  2.343018  0
O  O204  1  0.64171706  0.01221730  0.93995516  1  -1.160929  0  -0.306379  -0.52675  0  2.347269  0
O  O205  1  0.50122935  0.88857782  0.93772535  1  -1.172675  0  -0.314856  -0.548937  0  2.327795  0
O  O206  1  0.56648690  0.81519565  0.02277024  1  -1.157944  0  -0.311039  -0.534164  0  2.306714  0
O  O207  1  0.52139464  0.04492666  0.08386037  1  -1.16508  0  -0.314129  -0.54699  0  2.338473  0
O  O208  1  0.54547761  0.87688225  0.07871603  1  -1.157164  0  -0.304966  -0.523295  0  2.344418  0
O  O209  1  0.59467664  0.07891672  0.02936037  1  -1.165088  0  -0.309662  -0.539743  0  2.331958  0
O  O210  1  0.32491891  0.09472502  0.02266990  1  -1.15187  0  -0.303423  -0.522811  0  2.350925  0
O  O211  1  0.37534792  0.01305476  0.07885142  1  -1.157321  0  -0.307652  -0.528356  0  2.305224  0
O  O212  1  0.33278566  0.55908903  0.38820209  1  -0.452371  0  -0.139139  -0.33475  0  1.861238  0
O  O213  1  0.25923916  0.54828303  0.44588063  1  -0.413675  0  -0.119375  -0.301818  0  1.891417  0
O  O214  1  0.40735633  0.20113710  0.34710970  1  -0.450987  0  -0.139432  -0.334195  0  1.854952  0
O  O215  1  0.53098537  0.16568521  0.34686742  1  -0.417442  0  -0.120964  -0.304063  0  1.88924  0
O  O216  1  0.75362569  0.52637406  0.69511979  1  -0.450376  0  -0.137474  -0.332659  0  1.865532  0
O  O217  1  0.84314068  0.55113175  0.65249094  1  -0.418987  0  -0.117204  -0.299886  0  1.897157  0
O  O218  1  0.49810710  0.69937048  0.55345693  1  -0.456933  0  -0.13813  -0.332745  0  1.855631  0
O  O219  1  0.41688894  0.77693924  0.59815344  1  -0.414395  0  -0.117937  -0.298618  0  1.892139  0
O  O220  1  0.05139373  0.25361729  0.69467007  1  -0.438874  0  -0.139077  -0.334212  0  1.856869  0
O  O221  1  0.97375149  0.33428676  0.65009967  1  -0.408114  0  -0.116738  -0.297327  0  1.894002  0
O  O222  1  0.22527387  0.99580096  0.55358445  1  -0.447156  0  -0.137316  -0.332442  0  1.864311  0
O  O223  1  0.19938289  0.90705719  0.59636774  1  -0.423343  0  -0.11639  -0.298902  0  1.896751  0
O  O224  1  0.73060335  0.81879300  0.37590826  1  -0.441869  0  -0.139504  -0.334534  0  1.857219  0
O  O225  1  0.75612233  0.75701007  0.43775769  1  -0.419702  0  -0.122087  -0.304825  0  1.888276  0
O  O226  1  0.02889892  0.91854661  0.36107314  1  -0.448668  0  -0.136216  -0.33161  0  1.86445  0
O  O227  1  0.95257811  0.04192921  0.35250074  1  -0.42785  0  -0.118146  -0.301547  0  1.895906  0
O  O228  1  0.72498335  0.49784654  0.05433574  1  -0.454304  0  -0.139316  -0.334276  0  1.863581  0
O  O229  1  0.69836448  0.40893532  0.09649734  1  -0.411524  0  -0.120689  -0.304009  0  1.893306  0
O  O230  1  0.55011074  0.75545269  0.19556676  1  -0.449027  0  -0.140224  -0.335288  0  1.856412  0
O  O231  1  0.47106216  0.83556098  0.15149293  1  -0.421294  0  -0.120394  -0.303075  0  1.888042  0
O  O232  1  0.16838775  0.07958561  0.22420209  1  -0.443359  0  -0.138675  -0.332719  0  1.854399  0
O  O233  1  0.06120481  0.06438069  0.24257985  1  -0.419839  0  -0.117446  -0.298365  0  1.89354  0
O  O234  1  0.08400043  0.19375875  0.02540262  1  -0.44561  0  -0.136598  -0.331717  0  1.864103  0
O  O235  1  0.19255830  0.10239583  0.00211337  1  -0.423819  0  -0.118181  -0.301362  0  1.896247  0
O  O236  1  0.52867511  0.42000272  0.86080204  1  -0.442303  0  -0.139263  -0.334601  0  1.863282  0
O  O237  1  0.45180635  0.54326501  0.85272795  1  -0.410283  0  -0.123178  -0.306893  0  1.893867  0
O  O238  1  0.23061814  0.31963445  0.87657559  1  -0.448335  0  -0.137679  -0.332565  0  1.853824  0
O  O239  1  0.25843750  0.25479858  0.93759523  1  -0.404464  0  -0.116998  -0.298351  0  1.89379  0
O  O240  1  0.90710186  0.70096142  0.84828811  1  -0.450313  0  -0.139412  -0.333893  0  1.856141  0
O  O241  1  0.03103916  0.66589093  0.84645817  1  -0.416755  0  -0.120364  -0.303276  0  1.88959  0
O  O242  1  0.83211800  0.05940307  0.88839385  1  -0.454398  0  -0.138945  -0.334467  0  1.861274  0
O  O243  1  0.75961120  0.04761307  0.94633322  1  -0.420709  0  -0.120559  -0.304169  0  1.891773  0
