# generated using pymatgen
data_ZnH10C18(NO)4
_symmetry_space_group_name_H-M   'P 1'
_cell_length_a   6.78657631
_cell_length_b   8.20615057
_cell_length_c   14.39584458
_cell_angle_alpha   104.65077882
_cell_angle_beta   99.36128266
_cell_angle_gamma   94.15140073
_symmetry_Int_Tables_number   1
_chemical_formula_structural   ZnH10C18(NO)4
_chemical_formula_sum   'Zn2 H20 C36 N8 O8'
_cell_volume   759.89861543
_cell_formula_units_Z   2
loop_
 _symmetry_equiv_pos_site_id
 _symmetry_equiv_pos_as_xyz
  1  'x, y, z'
loop_
 _atom_site_type_symbol
 _atom_site_label
 _atom_site_symmetry_multiplicity
 _atom_site_fract_x
 _atom_site_fract_y
 _atom_site_fract_z
 _atom_site_occupancy
 _atom_site_hle17_bader_spin_density
 _atom_site_hle17_ddec_charge
 _atom_site_hle17_ddec_spin_density
 _atom_site_hle17_ddec_sum_bond_order
 _atom_site_hle17_magmom
 _atom_site_hse06_10hf_bader_spin_density
 _atom_site_hse06_10hf_ddec_charge
 _atom_site_hse06_10hf_ddec_spin_density
 _atom_site_hse06_10hf_ddec_sum_bond_order
 _atom_site_hse06_10hf_magmom
 _atom_site_hse06_bader_spin_density
 _atom_site_hse06_ddec_charge
 _atom_site_hse06_ddec_spin_density
 _atom_site_hse06_ddec_sum_bond_order
 _atom_site_hse06_magmom
 _atom_site_pbe_bader_spin_density
 _atom_site_pbe_cm5_charge
 _atom_site_pbe_ddec_charge
 _atom_site_pbe_ddec_spin_density
 _atom_site_pbe_ddec_sum_bond_order
 _atom_site_pbe_magmom
Zn  Zn0  1  0.63063831  0.49545176  0.40429470  1  0  1.026054  0  1.827347  0  0  0.831678  0  2.288511  0  0  0.880513  0  2.232549  0  0  0.697916  0.797617  0  2.327036  0
Zn  Zn1  1  0.36936417  0.50454750  0.59570585  1  0  1.026053  0  1.827353  0  0  0.831674  0  2.288528  0  0  0.880499  0  2.232562  0  0  0.697912  0.7976  0  2.327051  0
H  H2  1  0.97664609  0.06662023  0.08380484  1  0  0.108466  0  0.951621  0  0  0.10951  0  1.029057  0  0  0.114037  0  1.023944  0  0  0.108745  0.106284  0  1.032606  0
H  H3  1  0.02335475  0.93337774  0.91619748  1  0  0.108454  0  0.951641  0  0  0.109506  0  1.029073  0  0  0.114036  0  1.023955  0  0  0.108736  0.106279  0  1.032622  0
H  H4  1  0.56723837  0.14092157  0.59548959  1  0  0.110483  0  0.952757  0  0  0.117942  0  1.016973  0  0  0.121914  0  1.014714  0  0  0.105945  0.11515  0  1.018727  0
H  H5  1  0.43275979  0.85907897  0.40450874  1  0  0.110517  0  0.952881  0  0  0.117972  0  1.017084  0  0  0.121945  0  1.014825  0  0  0.105965  0.11518  0  1.018838  0
H  H6  1  0.01720574  0.28950217  0.39331506  1  0  0.099536  0  0.961339  0  0  0.104979  0  1.025475  0  0  0.108173  0  1.022829  0  0  0.120541  0.102518  0  1.027536  0
H  H7  1  0.98279228  0.71049707  0.60668654  1  0  0.099528  0  0.96134  0  0  0.104968  0  1.025489  0  0  0.108164  0  1.022841  0  0  0.120542  0.102505  0  1.027555  0
H  H8  1  0.15454885  0.11097452  0.25851114  1  0  0.117275  0  0.971232  0  0  0.12678  0  1.030476  0  0  0.130267  0  1.028872  0  0  0.110305  0.124185  0  1.031965  0
H  H9  1  0.84545418  0.88902854  0.74149070  1  0  0.117322  0  0.971171  0  0  0.126789  0  1.03046  0  0  0.130261  0  1.028873  0  0  0.110288  0.124194  0  1.031949  0
H  H10  1  0.09118131  0.00187364  0.40883511  1  0  0.115982  0  0.95633  0  0  0.124795  0  1.018695  0  0  0.128128  0  1.017606  0  0  0.10676  0.122482  0  1.019559  0
H  H11  1  0.90881912  0.99812183  0.59116194  1  0  0.116004  0  0.956354  0  0  0.124841  0  1.018699  0  0  0.128174  0  1.01761  0  0  0.106797  0.122528  0  1.01956  0
H  H12  1  0.21842590  0.62513839  0.33667461  1  0  0.094149  0  0.95046  0  0  0.100231  0  1.016137  0  0  0.102542  0  1.014105  0  0  0.122436  0.09837  0  1.017777  0
H  H13  1  0.78157695  0.37486340  0.66332772  1  0  0.094159  0  0.950507  0  0  0.10024  0  1.016164  0  0  0.102551  0  1.014133  0  0  0.122422  0.098377  0  1.017811  0
H  H14  1  0.01228876  0.61770610  0.17521939  1  0  0.129919  0  0.941807  0  0  0.134654  0  1.007304  0  0  0.139127  0  1.004326  0  0  0.113361  0.131343  0  1.009728  0
H  H15  1  0.98771576  0.38229696  0.82478186  1  0  0.12999  0  0.941773  0  0  0.134716  0  1.007264  0  0  0.139188  0  1.004287  0  0  0.1134  0.131417  0  1.009677  0
H  H16  1  0.12606400  0.45320844  0.02098832  1  0  0.099984  0  0.960793  0  0  0.108252  0  1.027281  0  0  0.111635  0  1.023755  0  0  0.109638  0.105823  0  1.029728  0
H  H17  1  0.87393603  0.54679462  0.97901260  1  0  0.100001  0  0.960797  0  0  0.10829  0  1.027267  0  0  0.111673  0  1.023741  0  0  0.109645  0.10584  0  1.029736  0
H  H18  1  0.63428447  0.02340298  0.79930130  1  0  0.091719  0  0.962094  0  0  0.099287  0  1.025431  0  0  0.102494  0  1.022685  0  0  0.115405  0.096918  0  1.027542  0
H  H19  1  0.36572075  0.97660517  0.20070006  1  0  0.091657  0  0.962158  0  0  0.099285  0  1.025442  0  0  0.10249  0  1.0227  0  0  0.115395  0.096916  0  1.027554  0
H  H20  1  0.32810233  0.17494555  0.77926071  1  0  0.104316  0  0.964999  0  0  0.11066  0  1.027453  0  0  0.114127  0  1.025128  0  0  0.116281  0.108017  0  1.029344  0
H  H21  1  0.67190252  0.82506007  0.22073956  1  0  0.104363  0  0.964942  0  0  0.110714  0  1.027384  0  0  0.114179  0  1.025062  0  0  0.116303  0.108076  0  1.029266  0
C  C22  1  0.67826791  0.32169480  0.20898261  1  0  0.149447  0  3.749644  0  0  0.137488  0  3.99258  0  0  0.142718  0  4.013107  0  0  0.12605  0.134017  0  3.978862  0
C  C23  1  0.32173142  0.67830318  0.79101821  1  0  0.149443  0  3.749663  0  0  0.137447  0  3.992641  0  0  0.142677  0  4.013172  0  0  0.126036  0.133964  0  3.978914  0
C  C24  1  0.38509419  0.38508401  0.10228381  1  0  -0.030211  0  3.748517  0  0  -0.019976  0  3.983139  0  0  -0.024714  0  4.007346  0  0  0.004797  -0.017065  0  3.967055  0
C  C25  1  0.61490514  0.61491397  0.89771701  1  0  -0.030192  0  3.748615  0  0  -0.019891  0  3.983183  0  0  -0.02463  0  4.007397  0  0  0.004784  -0.01698  0  3.967088  0
C  C26  1  0.63316797  0.20736790  0.02960099  1  0  0.127009  0  3.764927  0  0  0.122854  0  4.012549  0  0  0.125183  0  4.034661  0  0  0.119063  0.121156  0  3.997715  0
C  C27  1  0.36683136  0.79263008  0.97039983  1  0  0.126944  0  3.765031  0  0  0.122791  0  4.012627  0  0  0.125119  0  4.03474  0  0  0.119075  0.121093  0  3.997796  0
C  C28  1  0.92085827  0.14474586  0.14494338  1  0  -0.02659  0  3.674967  0  0  -0.053732  0  3.929069  0  0  -0.050756  0  3.946604  0  0  -0.059314  -0.055375  0  3.917072  0
C  C29  1  0.07914124  0.85525339  0.85505764  1  0  -0.026607  0  3.674976  0  0  -0.053765  0  3.929048  0  0  -0.050789  0  3.94658  0  0  -0.059328  -0.055407  0  3.91705  0
C  C30  1  0.52498799  0.08386629  0.51693849  1  0  -0.162127  0  3.686741  0  0  -0.18185  0  3.940815  0  0  -0.188062  0  3.957138  0  0  -0.085538  -0.177827  0  3.930228  0
C  C31  1  0.47500684  0.91613171  0.48305992  1  0  -0.162189  0  3.686999  0  0  -0.181908  0  3.941047  0  0  -0.188119  0  3.957371  0  0  -0.085523  -0.177881  0  3.93046  0
C  C32  1  0.52518136  0.19635506  0.45092417  1  0  0.683287  0  3.898693  0  0  0.637797  0  4.188322  0  0  0.671995  0  4.180357  0  0  0.20019  0.614449  0  4.193036  0
C  C33  1  0.47481379  0.80364550  0.54907186  1  0  0.68325  0  3.898677  0  0  0.637807  0  4.188239  0  0  0.671999  0  4.180277  0  0  0.20018  0.614457  0  4.192955  0
C  C34  1  0.74628171  0.22405296  0.12722504  1  0  -0.040572  0  3.749539  0  0  -0.029127  0  3.982318  0  0  -0.034205  0  4.007851  0  0  0.002424  -0.025843  0  3.965203  0
C  C35  1  0.25371597  0.77594374  0.87277686  1  0  -0.040558  0  3.749567  0  0  -0.02907  0  3.982295  0  0  -0.034148  0  4.007831  0  0  0.002396  -0.025788  0  3.965184  0
C  C36  1  0.45617033  0.28790842  0.01754220  1  0  0.123491  0  3.768956  0  0  0.119147  0  4.018219  0  0  0.121796  0  4.039376  0  0  0.119338  0.117297  0  4.004061  0
C  C37  1  0.54382785  0.71209210  0.98245821  1  0  0.123503  0  3.768946  0  0  0.11914  0  4.018197  0  0  0.121789  0  4.039354  0  0  0.11935  0.11729  0  4.00404  0
C  C38  1  0.49495594  0.40099534  0.19655436  1  0  0.155039  0  3.734324  0  0  0.141991  0  3.977628  0  0  0.147726  0  3.998029  0  0  0.127135  0.138072  0  3.964029  0
C  C39  1  0.50503873  0.59900137  0.80344593  1  0  0.155044  0  3.734302  0  0  0.141956  0  3.977684  0  0  0.147679  0  3.998081  0  0  0.127143  0.138038  0  3.964089  0
C  C40  1  0.94255300  0.26920088  0.31735487  1  0  0.164105  0  3.633895  0  0  0.130479  0  3.888854  0  0  0.138188  0  3.905056  0  0  0.067222  0.125478  0  3.87804  0
C  C41  1  0.05744799  0.73079837  0.68264557  1  0  0.164075  0  3.633935  0  0  0.130432  0  3.888897  0  0  0.138143  0  3.905094  0  0  0.067191  0.125417  0  3.878073  0
C  C42  1  0.01820339  0.16736863  0.24035261  1  0  -0.105284  0  3.689814  0  0  -0.119427  0  3.942738  0  0  -0.12684  0  3.964228  0  0  -0.075173  -0.114744  0  3.928468  0
C  C43  1  0.98179612  0.83263062  0.75964841  1  0  -0.105224  0  3.689702  0  0  -0.11933  0  3.942614  0  0  -0.126733  0  3.964116  0  0  -0.075092  -0.114649  0  3.928343  0
C  C44  1  0.88702260  0.78257522  0.40914791  1  0  0.670123  0  3.917016  0  0  0.625182  0  4.209179  0  0  0.659242  0  4.200869  0  0  0.19899  0.602032  0  4.213834  0
C  C45  1  0.11297390  0.21742405  0.59085080  1  0  0.670152  0  3.916831  0  0  0.625231  0  4.208983  0  0  0.659289  0  4.200673  0  0  0.198998  0.602082  0  4.213636  0
C  C46  1  0.00360734  0.95264350  0.45501879  1  0  -0.164866  0  3.662259  0  0  -0.183324  0  3.914772  0  0  -0.189421  0  3.931597  0  0  -0.087304  -0.179332  0  3.903695  0
C  C47  1  0.99638859  0.04735198  0.54497724  1  0  -0.164968  0  3.662229  0  0  -0.183505  0  3.91478  0  0  -0.189603  0  3.931604  0  0  -0.087348  -0.17951  0  3.903703  0
C  C48  1  0.26369940  0.56101346  0.26889522  1  0  0.155653  0  3.658202  0  0  0.120521  0  3.913336  0  0  0.128839  0  3.930389  0  0  0.063603  0.11511  0  3.902005  0
C  C49  1  0.73630141  0.43898452  0.73110502  1  0  0.155626  0  3.658282  0  0  0.120538  0  3.91338  0  0  0.128843  0  3.930427  0  0  0.06366  0.115127  0  3.902054  0
C  C50  1  0.14811265  0.55450691  0.17760068  1  0  -0.113841  0  3.698526  0  0  -0.126875  0  3.955043  0  0  -0.134308  0  3.976117  0  0  -0.07694  -0.122192  0  3.941248  0
C  C51  1  0.85188888  0.44549615  0.82240105  1  0  -0.113906  0  3.69855  0  0  -0.12694  0  3.955076  0  0  -0.134374  0  3.976153  0  0  -0.076979  -0.122271  0  3.941268  0
C  C52  1  0.20937596  0.46525092  0.09408466  1  0  -0.021241  0  3.676243  0  0  -0.050718  0  3.92938  0  0  -0.047058  0  3.94654  0  0  -0.058363  -0.052856  0  3.91771  0
C  C53  1  0.79062372  0.53474960  0.90591587  1  0  -0.021263  0  3.676396  0  0  -0.050783  0  3.929521  0  0  -0.047124  0  3.946678  0  0  -0.058378  -0.052907  0  3.917866  0
C  C54  1  0.58821713  0.10101695  0.86378736  1  0  0.07644  0  3.693909  0  0  0.051124  0  3.957194  0  0  0.053439  0  3.973967  0  0  0.051659  0.049531  0  3.945879  0
C  C55  1  0.41178623  0.89898866  0.13621280  1  0  0.076537  0  3.693806  0  0  0.051148  0  3.957121  0  0  0.053464  0  3.973891  0  0  0.051691  0.049552  0  3.945813  0
C  C56  1  0.41453072  0.18348950  0.85173390  1  0  0.081533  0  3.674733  0  0  0.055701  0  3.937518  0  0  0.058096  0  3.953739  0  0  0.053369  0.054105  0  3.926622  0
C  C57  1  0.58547413  0.81651611  0.14826636  1  0  0.081424  0  3.674612  0  0  0.055604  0  3.937414  0  0  0.057998  0  3.953634  0  0  0.05331  0.054005  0  3.926513  0
N  N58  1  0.43287981  0.48805833  0.27795370  1  0  -0.346291  0  3.294565  0  0  -0.268099  0  3.571884  0  0  -0.286927  0  3.585109  0  0  -0.315666  -0.255528  0  3.563192  0
N  N59  1  0.56711915  0.51193712  0.72204533  1  0  -0.346249  0  3.294594  0  0  -0.268094  0  3.571942  0  0  -0.286886  0  3.585134  0  0  -0.315683  -0.255524  0  3.563249  0
N  N60  1  0.34869743  0.27619276  0.92791608  1  0  -0.287358  0  3.034128  0  0  -0.25794  0  3.302134  0  0  -0.2659  0  3.316671  0  0  -0.296888  -0.252309  0  3.292203  0
N  N61  1  0.65130391  0.72380903  0.07208406  1  0  -0.287353  0  3.034088  0  0  -0.257944  0  3.302114  0  0  -0.265905  0  3.31665  0  0  -0.296893  -0.252311  0  3.292181  0
N  N62  1  0.77701484  0.34358233  0.30154424  1  0  -0.339339  0  3.299306  0  0  -0.264513  0  3.567285  0  0  -0.282445  0  3.581746  0  0  -0.31528  -0.252627  0  3.5577  0
N  N63  1  0.22298301  0.65641564  0.69845785  1  0  -0.339375  0  3.299371  0  0  -0.264514  0  3.567336  0  0  -0.282449  0  3.5818  0  0  -0.315261  -0.252584  0  3.557701  0
N  N64  1  0.69773287  0.11273313  0.95126781  1  0  -0.29711  0  3.038824  0  0  -0.265817  0  3.304935  0  0  -0.274262  0  3.320766  0  0  -0.300101  -0.259828  0  3.294116  0
N  N65  1  0.30226960  0.88726613  0.04873204  1  0  -0.29707  0  3.038819  0  0  -0.265775  0  3.304962  0  0  -0.274218  0  3.320791  0  0  -0.300099  -0.259785  0  3.294146  0
O  O66  1  0.59916490  0.35514607  0.49579204  1  0  -0.680512  0  2.044828  0  0  -0.590806  0  2.318419  0  0  -0.621341  0  2.29992  0  0  -0.332669  -0.56924  0  2.330373  0
O  O67  1  0.40083907  0.64485320  0.50420723  1  0  -0.680506  0  2.044852  0  0  -0.590822  0  2.31843  0  0  -0.621351  0  2.299929  0  0  -0.332683  -0.569257  0  2.330386  0
O  O68  1  0.81648075  0.70454143  0.46750074  1  0  -0.655928  0  2.071534  0  0  -0.568957  0  2.32999  0  0  -0.599837  0  2.315997  0  0  -0.32549  -0.547152  0  2.338721  0
O  O69  1  0.18352305  0.29545657  0.53249903  1  0  -0.655923  0  2.071543  0  0  -0.568978  0  2.330028  0  0  -0.599851  0  2.316028  0  0  -0.325487  -0.547173  0  2.33876  0
O  O70  1  0.46210395  0.14269889  0.36119521  1  0  -0.601443  0  1.916737  0  0  -0.560777  0  2.141032  0  0  -0.5829  0  2.133094  0  0  -0.31458  -0.545023  0  2.145938  0
O  O71  1  0.53789405  0.85730037  0.63880431  1  0  -0.601437  0  1.916617  0  0  -0.560769  0  2.140867  0  0  -0.58289  0  2.132928  0  0  -0.314569  -0.545014  0  2.145774  0
O  O72  1  0.85954668  0.72585008  0.31807586  1  0  -0.61126  0  1.924165  0  0  -0.56907  0  2.150095  0  0  -0.59116  0  2.14186  0  0  -0.317894  -0.552969  0  2.154986  0
O  O73  1  0.14044668  0.27414789  0.68192521  1  0  -0.611264  0  1.924075  0  0  -0.569044  0  2.149953  0  0  -0.591135  0  2.14172  0  0  -0.317869  -0.552943  0  2.154847  0
