# generated using pymatgen
data_Zn4H9C24S4N2ClO13
_symmetry_space_group_name_H-M   'P 1'
_cell_length_a   19.68292023
_cell_length_b   19.67534936
_cell_length_c   33.37939045
_cell_angle_alpha   79.18040931
_cell_angle_beta   79.14977616
_cell_angle_gamma   63.86722827
_symmetry_Int_Tables_number   1
_chemical_formula_structural   Zn4H9C24S4N2ClO13
_chemical_formula_sum   'Zn16 H36 C96 S16 N8 Cl4 O52'
_cell_volume   11317.07315654
_cell_formula_units_Z   4
loop_
 _symmetry_equiv_pos_site_id
 _symmetry_equiv_pos_as_xyz
  1  'x, y, z'
loop_
 _atom_site_type_symbol
 _atom_site_label
 _atom_site_symmetry_multiplicity
 _atom_site_fract_x
 _atom_site_fract_y
 _atom_site_fract_z
 _atom_site_occupancy
 _atom_site_pbe_bader_charge
 _atom_site_pbe_bader_spin_density
 _atom_site_pbe_cm5_charge
 _atom_site_pbe_ddec_charge
 _atom_site_pbe_ddec_spin_density
 _atom_site_pbe_ddec_sum_bond_order
 _atom_site_pbe_magmom
Zn  Zn0  1  0.05529159  0.40002182  0.47807251  1  1.324271  0  0.674763  0.978838  0  2.343704  0
Zn  Zn1  1  0.98480912  0.48369351  0.56063428  1  1.293762  0  0.662283  0.948551  0  2.377781  0
Zn  Zn2  1  0.05870165  0.56019248  0.48227533  1  1.31633  0  0.669041  0.959543  0  2.401602  0
Zn  Zn3  1  0.90141548  0.55598361  0.47993669  1  1.319985  0  0.669646  0.959485  0  2.402779  0
Zn  Zn4  1  0.69426371  0.34928061  0.27150919  1  1.319925  0  0.672978  0.971457  0  2.367776  0
Zn  Zn5  1  0.68835088  0.18967367  0.26625656  1  1.310562  0  0.672462  0.97164  0  2.347376  0
Zn  Zn6  1  0.76894414  0.26651001  0.19092651  1  1.310777  0  0.667718  0.956971  0  2.401849  0
Zn  Zn7  1  0.84838880  0.19390106  0.27226733  1  1.313568  0  0.666247  0.953277  0  2.380293  0
Zn  Zn8  1  0.26750071  0.76676274  0.68976128  1  1.314952  0  0.672968  0.965181  0  2.370593  0
Zn  Zn9  1  0.34857019  0.69593960  0.77257170  1  1.315999  0  0.666886  0.960036  0  2.36494  0
Zn  Zn10  1  0.19237890  0.84815187  0.77140469  1  1.319901  0  0.67378  0.972271  0  2.385792  0
Zn  Zn11  1  0.19126930  0.68852462  0.76715184  1  1.314669  0  0.666302  0.955066  0  2.388902  0
Zn  Zn12  1  0.56070927  0.05942814  0.98315661  1  1.319406  0  0.671399  0.964248  0  2.373216  0
Zn  Zn13  1  0.40122995  0.05566552  0.97859661  1  1.315567  0  0.672203  0.963753  0  2.371996  0
Zn  Zn14  1  0.55527054  0.90081104  0.97830380  1  1.312974  0  0.670368  0.965687  0  2.373011  0
Zn  Zn15  1  0.48389827  0.98247497  0.06053579  1  1.312523  0  0.671336  0.965283  0  2.369123  0
H  H16  1  0.95566565  0.24854629  0.35204118  1  0.136814  0  0.109096  0.115352  0  0.993436  0
H  H17  1  0.74730512  0.45294002  0.34977121  1  0.133462  0  0.111736  0.131315  0  0.994002  0
H  H18  1  0.99903736  0.30093555  0.40008812  1  0.130027  0  0.112864  0.121066  0  0.989654  0
H  H19  1  0.09662452  0.59670224  0.69996694  1  0.110354  0  0.108651  0.115042  0  0.99452  0
H  H20  1  0.20178996  0.70156291  0.59875351  1  0.090904  0  0.111325  0.130776  0  0.994732  0
H  H21  1  0.05098543  0.55063174  0.64982824  1  0.094734  0  0.10844  0.115  0  0.997514  0
H  H22  1  0.46288318  0.24087858  0.34081620  1  0.148096  0  0.120478  0.145712  0  0.969172  0
H  H23  1  0.48012434  0.70082815  0.60208478  1  0.130317  0  0.121727  0.147695  0  0.965839  0
H  H24  1  0.20407548  0.97966117  0.60165015  1  0.127818  0  0.120969  0.146468  0  0.969066  0
H  H25  1  0.94796387  0.96930221  0.34751181  1  0.125103  0  0.119441  0.144309  0  0.970625  0
H  H26  1  0.55026082  0.05047523  0.15353749  1  0.080716  0  0.111362  0.118041  0  0.990095  0
H  H27  1  0.65108685  0.15185629  0.04839367  1  0.141301  0  0.11092  0.129826  0  0.995034  0
H  H28  1  0.60062003  0.10029002  0.19939582  1  0.079504  0  0.112368  0.12034  0  0.991337  0
H  H29  1  0.54839954  0.76981540  0.14820854  1  0.130863  0  0.121144  0.146973  0  0.967419  0
H  H30  1  0.16297438  0.14246773  0.04103025  1  0.09819  0  0.121099  0.146754  0  0.967935  0
H  H31  1  0.50088964  0.79512608  0.89824723  1  0.096703  0  0.11087  0.118019  0  0.989857  0
H  H32  1  0.29665753  0.00372644  0.90016772  1  0.118953  0  0.110787  0.1296  0  0.995139  0
H  H33  1  0.44884006  0.75174879  0.85002421  1  0.13186  0  0.110511  0.118172  0  0.993526  0
H  H34  1  0.30216259  0.27955602  0.90178187  1  0.109088  0  0.121153  0.146657  0  0.968121  0
H  H35  1  0.78644957  0.00947955  0.90819217  1  0.110512  0  0.121455  0.146683  0  0.967513  0
H  H36  1  0.31339117  0.55705760  0.39619667  1  0.434301  0  0.315642  0.311949  0  0.93068  0
H  H37  1  0.23308623  0.55282871  0.42730397  1  0.485189  0  0.307159  0.321122  0  0.958879  0
H  H38  1  0.76785951  0.52156500  0.68562015  1  0.44723  0  0.311628  0.305186  0  0.93873  0
H  H39  1  0.83638870  0.51790649  0.64363783  1  0.487513  0  0.303294  0.314546  0  0.964861  0
H  H40  1  0.04603974  0.26806050  0.68574394  1  0.457936  0  0.311738  0.305868  0  0.937257  0
H  H41  1  0.02079542  0.33594542  0.64313196  1  0.482992  0  0.301859  0.312725  0  0.968429  0
H  H42  1  0.74262537  0.80217849  0.38528883  1  0.454783  0  0.315041  0.310223  0  0.931192  0
H  H43  1  0.79457458  0.72491520  0.41894310  1  0.498587  0  0.307045  0.32024  0  0.958327  0
H  H44  1  0.72620128  0.48163724  0.06456456  1  0.443775  0  0.315021  0.310055  0  0.93382  0
H  H45  1  0.73275615  0.41272076  0.10686266  1  0.474985  0  0.307281  0.321217  0  0.956965  0
H  H46  1  0.14533360  0.08465578  0.22737836  1  0.442493  0  0.314489  0.309149  0  0.934448  0
H  H47  1  0.04708284  0.11563911  0.24007655  1  0.50104  0  0.306914  0.320235  0  0.95729  0
H  H48  1  0.51683885  0.43626248  0.85466333  1  0.458509  0  0.314849  0.310132  0  0.934295  0
H  H49  1  0.45640369  0.52321819  0.83046370  1  0.507062  0  0.306988  0.320905  0  0.957315  0
H  H50  1  0.92629343  0.70071522  0.84416732  1  0.451594  0  0.314072  0.30876  0  0.936044  0
H  H51  1  0.01542718  0.69698546  0.82226197  1  0.502057  0  0.307197  0.320594  0  0.957153  0
C  C52  1  0.05885812  0.31593581  0.56272767  1  1.495212  0  0.205387  0.615261  0  4.218384  0
C  C53  1  0.06925077  0.56974304  0.56925984  1  1.587011  0  0.226889  0.617211  0  4.155901  0
C  C54  1  0.18531801  0.43906457  0.43928628  1  1.514125  0  0.204883  0.612839  0  4.223545  0
C  C55  1  0.93586417  0.68543560  0.43883195  1  1.495673  0  0.20438  0.611935  0  4.226003  0
C  C56  1  0.93034470  0.43167500  0.43086042  1  1.578076  0  0.228376  0.618056  0  4.15816  0
C  C57  1  0.81647559  0.56306054  0.56339123  1  1.529294  0  0.205048  0.614172  0  4.218424  0
C  C58  1  0.56480465  0.31245767  0.31080907  1  1.569914  0  0.216475  0.609136  0  4.216112  0
C  C59  1  0.68203246  0.18010181  0.18059412  1  1.574158  0  0.227568  0.616037  0  4.160092  0
C  C60  1  0.68830491  0.43374492  0.18756732  1  1.497043  0  0.205447  0.614002  0  4.221359  0
C  C61  1  0.93657252  0.18652753  0.18968490  1  1.511923  0  0.204227  0.612226  0  4.223617  0
C  C62  1  0.82066599  0.31829905  0.31920171  1  1.574919  0  0.230454  0.607065  0  4.158875  0
C  C63  1  0.81081685  0.06517566  0.31111938  1  1.587888  0  0.217004  0.610706  0  4.219158  0
C  C64  1  0.43434667  0.68694087  0.68894251  1  1.553071  0  0.216327  0.609982  0  4.22037  0
C  C65  1  0.31845179  0.82042076  0.81911297  1  1.578234  0  0.228086  0.616424  0  4.158724  0
C  C66  1  0.18930210  0.93388682  0.68847012  1  1.606299  0  0.217793  0.609664  0  4.219317  0
C  C67  1  0.06530857  0.80824743  0.81218429  1  1.533005  0  0.205261  0.613117  0  4.223482  0
C  C68  1  0.18040032  0.68054405  0.68127042  1  1.545971  0  0.231004  0.609083  0  4.157582  0
C  C69  1  0.31346339  0.56539980  0.81256673  1  1.518611  0  0.204535  0.614061  0  4.221733  0
C  C70  1  0.43936046  0.18344199  0.93823998  1  1.561332  0  0.218427  0.611877  0  4.216353  0
C  C71  1  0.43086124  0.93024695  0.93094683  1  1.564014  0  0.231262  0.607414  0  4.162583  0
C  C72  1  0.68375014  0.93864666  0.93802593  1  1.569724  0  0.216883  0.60823  0  4.220854  0
C  C73  1  0.56281085  0.81521624  0.06141802  1  1.571709  0  0.217441  0.610639  0  4.219196  0
C  C74  1  0.56912276  0.06886081  0.06967910  1  1.556847  0  0.231833  0.60741  0  4.159832  0
C  C75  1  0.31615422  0.06227606  0.06156083  1  1.597102  0  0.216923  0.608656  0  4.223741  0
C  C76  1  0.89869701  0.40583050  0.40209924  1  -0.023228  0  -0.013915  -0.092017  0  3.904776  0
C  C77  1  0.84870647  0.34784002  0.34783012  1  -0.052286  0  -0.00927  -0.00851  0  3.970012  0
C  C78  1  0.82684519  0.44868134  0.38753301  1  0.116274  0  0.02646  0.14703  0  3.99126  0
C  C79  1  0.92001944  0.30453004  0.36201956  1  -0.045578  0  -0.082928  -0.100884  0  3.980026  0
C  C80  1  0.80272836  0.41948318  0.36070737  1  0.003265  0  -0.085192  -0.161513  0  3.945519  0
C  C81  1  0.94390933  0.33365849  0.38865449  1  -0.036529  0  -0.076593  -0.075403  0  3.968146  0
C  C82  1  0.09987988  0.59973950  0.59638323  1  0.036  0  -0.013744  -0.089266  0  3.905439  0
C  C83  1  0.15193921  0.65220476  0.65228871  1  -0.033916  0  -0.009848  -0.009102  0  3.971102  0
C  C84  1  0.14310327  0.64283242  0.58209615  1  0.061476  0  0.027413  0.147673  0  3.990192  0
C  C85  1  0.10930612  0.60944481  0.66697834  1  -0.010986  0  -0.084124  -0.10239  0  3.983464  0
C  C86  1  0.16854350  0.66849974  0.61003527  1  0.114541  0  -0.084414  -0.161131  0  3.943781  0
C  C87  1  0.08413652  0.58400154  0.63916743  1  -0.105405  0  -0.079076  -0.07829  0  3.978614  0
C  C88  1  0.30392860  0.45562801  0.40227719  1  0.520293  0  0.104866  0.280444  0  4.133859  0
C  C89  1  0.44555246  0.29779219  0.34877504  1  -0.02162  0  -0.088137  -0.132002  0  3.960893  0
C  C90  1  0.25926217  0.41409956  0.41512891  1  -0.110526  0  -0.049967  -0.263044  0  3.955296  0
C  C91  1  0.49008411  0.33791203  0.33587219  1  -0.133831  0  -0.025125  -0.118176  0  3.981747  0
C  C92  1  0.37767004  0.34026516  0.37278983  1  -0.130758  0  -0.021958  0.008042  0  4.106248  0
C  C93  1  0.37182811  0.41213089  0.37779511  1  -0.172427  0  -0.030484  -0.125744  0  4.043677  0
C  C94  1  0.72777030  0.57668190  0.63075632  1  0.565238  0  0.102032  0.276273  0  4.131882  0
C  C95  1  0.52493933  0.67185240  0.62203425  1  0.050964  0  -0.085643  -0.129683  0  3.955205  0
C  C96  1  0.74266068  0.58785281  0.58773934  1  -0.172023  0  -0.048459  -0.261515  0  3.958268  0
C  C97  1  0.50948676  0.66149219  0.66437370  1  -0.212444  0  -0.02558  -0.116545  0  3.983716  0
C  C98  1  0.60419227  0.64073705  0.60954388  1  -0.114863  0  -0.02161  0.007686  0  4.102592  0
C  C99  1  0.64767067  0.60737213  0.64274355  1  -0.184791  0  -0.030655  -0.124349  0  4.047364  0
C  C100  1  0.07296622  0.22721031  0.63010607  1  0.496173  0  0.101185  0.275512  0  4.127604  0
C  C101  1  0.17453658  0.02447226  0.62159714  1  0.084039  0  -0.086433  -0.130212  0  3.95936  0
C  C102  1  0.08308483  0.24201170  0.58703804  1  -0.132841  0  -0.048327  -0.262233  0  3.957474  0
C  C103  1  0.16441637  0.00906061  0.66394594  1  -0.199701  0  -0.02485  -0.116196  0  3.980135  0
C  C104  1  0.14163316  0.10367607  0.60906358  1  -0.180882  0  -0.021562  0.006261  0  4.104906  0
C  C105  1  0.10704269  0.14718283  0.64223336  1  -0.136084  0  -0.031052  -0.125189  0  4.045335  0
C  C106  1  0.84126888  0.80038533  0.39833001  1  0.504884  0  0.105461  0.280743  0  4.130004  0
C  C107  1  0.90361209  0.94890149  0.35211102  1  0.060663  0  -0.087917  -0.130968  0  3.963606  0
C  C108  1  0.91117012  0.75921016  0.41462984  1  -0.079911  0  -0.049645  -0.262749  0  3.9605  0
C  C109  1  0.83508058  0.99026962  0.33591213  1  -0.18599  0  -0.0259  -0.118948  0  3.984601  0
C  C110  1  0.90654249  0.87957867  0.37456913  1  -0.142328  0  -0.022024  0.007595  0  4.108728  0
C  C111  1  0.83984332  0.86954224  0.37519087  1  -0.177191  0  -0.030889  -0.125823  0  4.043411  0
C  C112  1  0.65420100  0.15359840  0.15031124  1  0.042772  0  -0.013102  -0.091249  0  3.90554  0
C  C113  1  0.59792545  0.09804789  0.09804862  1  0.014888  0  -0.009486  -0.008761  0  3.970759  0
C  C114  1  0.66809272  0.16819204  0.10711444  1  0.008836  0  0.026685  0.14772  0  3.991124  0
C  C115  1  0.58329323  0.08337421  0.14079372  1  -0.004444  0  -0.082512  -0.100221  0  3.977514  0
C  C116  1  0.64001471  0.14039140  0.08157063  1  0.016031  0  -0.085626  -0.162064  0  3.946058  0
C  C117  1  0.61125175  0.11101334  0.16611394  1  -0.009473  0  -0.076401  -0.075433  0  3.970928  0
C  C118  1  0.67369731  0.52176543  0.11993606  1  0.483973  0  0.104417  0.280083  0  4.132097  0
C  C119  1  0.57743933  0.72484858  0.12832500  1  0.06312  0  -0.086921  -0.131461  0  3.960035  0
C  C120  1  0.66267088  0.50730743  0.16304653  1  -0.073133  0  -0.048936  -0.262612  0  3.957475  0
C  C121  1  0.58791853  0.74010640  0.08597487  1  -0.211775  0  -0.025919  -0.11861  0  3.985668  0
C  C122  1  0.60871103  0.64564166  0.14089729  1  -0.120104  0  -0.021879  0.007599  0  4.106707  0
C  C123  1  0.64236008  0.60193183  0.10777381  1  -0.196729  0  -0.030088  -0.124804  0  4.041507  0
C  C124  1  0.08188324  0.12168621  0.17902515  1  0.54495  0  0.103721  0.279058  0  4.131321  0
C  C125  1  0.17051816  0.12558725  0.07340052  1  0.125709  0  -0.087225  -0.130818  0  3.960005  0
C  C126  1  0.00986709  0.16113844  0.16490585  1  -0.145971  0  -0.048611  -0.261864  0  3.958424  0
C  C127  1  0.24176463  0.08683850  0.08686233  1  -0.249899  0  -0.025355  -0.118171  0  3.984989  0
C  C128  1  0.11208404  0.13880849  0.10672250  1  -0.132746  0  -0.021134  0.007918  0  4.104326  0
C  C129  1  0.14007789  0.10959814  0.14503745  1  -0.230513  0  -0.030331  -0.12448  0  4.04325  0
C  C130  1  0.34411580  0.85219178  0.84784156  1  -0.026122  0  -0.014206  -0.091869  0  3.905988  0
C  C131  1  0.40166942  0.90232644  0.90214975  1  -0.04625  0  -0.009807  -0.009298  0  3.971485  0
C  C132  1  0.30108029  0.92412725  0.86233784  1  0.053106  0  0.026915  0.146703  0  3.993384  0
C  C133  1  0.44510229  0.83086808  0.88808592  1  0.026737  0  -0.081637  -0.099841  0  3.975324  0
C  C134  1  0.33016905  0.94831714  0.88918841  1  0.043075  0  -0.085306  -0.161123  0  3.945418  0
C  C135  1  0.41615918  0.80697661  0.86138643  1  -0.034412  0  -0.077725  -0.076729  0  3.97189  0
C  C136  1  0.40748440  0.45037242  0.85344381  1  0.49943  0  0.104618  0.280324  0  4.131869  0
C  C137  1  0.34654769  0.29991439  0.89725223  1  0.080918  0  -0.087073  -0.130986  0  3.960409  0
C  C138  1  0.33750500  0.49206576  0.83730332  1  -0.114608  0  -0.049346  -0.262386  0  3.960131  0
C  C139  1  0.41514798  0.25822822  0.91333192  1  -0.168719  0  -0.024977  -0.117448  0  3.982768  0
C  C140  1  0.34346271  0.36965297  0.87525268  1  -0.199408  0  -0.022171  0.007816  0  4.106292  0
C  C141  1  0.40992891  0.37984208  0.87510794  1  -0.10126  0  -0.030836  -0.125638  0  4.042589  0
C  C142  1  0.94703091  0.79181467  0.84971586  1  0.496205  0  0.103615  0.279175  0  4.132627  0
C  C143  1  0.80357873  0.95244931  0.90045850  1  -0.020273  0  -0.086881  -0.129861  0  3.958979  0
C  C144  1  0.99224404  0.83270597  0.83715425  1  -0.100975  0  -0.048407  -0.263072  0  3.960038  0
C  C145  1  0.75843275  0.91294582  0.91306854  1  -0.131396  0  -0.025338  -0.117916  0  3.98691  0
C  C146  1  0.87208022  0.90894342  0.87725420  1  -0.124848  0  -0.021413  0.00686  0  4.106661  0
C  C147  1  0.87786001  0.83683833  0.87271989  1  -0.181521  0  -0.030482  -0.124836  0  4.044181  0
S  S148  1  0.30030661  0.32411803  0.39791648  1  0.241251  0  0.053042  0.093364  0  2.746577  0
S  S149  1  0.44984821  0.42735835  0.35299014  1  0.231707  0  0.071733  0.120132  0  2.758444  0
S  S150  1  0.66042208  0.63517810  0.56292315  1  0.261039  0  0.058314  0.100509  0  2.747885  0
S  S151  1  0.59105610  0.61422821  0.68926757  1  0.237091  0  0.063958  0.108951  0  2.765886  0
S  S152  1  0.13278737  0.15975711  0.56232877  1  0.254702  0  0.058241  0.10115  0  2.747718  0
S  S153  1  0.11469759  0.09063756  0.68878344  1  0.237142  0  0.071144  0.118678  0  2.758911  0
S  S154  1  0.97268461  0.80461074  0.40213175  1  0.23502  0  0.051989  0.092618  0  2.752538  0
S  S155  1  0.77368033  0.94533702  0.34806670  1  0.245359  0  0.071059  0.119115  0  2.758926  0
S  S156  1  0.61446189  0.58984736  0.18763857  1  0.249762  0  0.055664  0.097329  0  2.749891  0
S  S157  1  0.63554176  0.65832319  0.06119664  1  0.243761  0  0.070035  0.117458  0  2.760509  0
S  S158  1  0.01392334  0.18179728  0.11140842  1  0.270398  0  0.053067  0.093664  0  2.749773  0
S  S159  1  0.23817324  0.06583424  0.14004295  1  0.304924  0  0.071219  0.119016  0  2.759736  0
S  S160  1  0.27651204  0.44604492  0.84885243  1  0.242302  0  0.05194  0.091986  0  2.751973  0
S  S161  1  0.47614859  0.30363696  0.90198162  1  0.242553  0  0.071121  0.11873  0  2.759664  0
S  S162  1  0.95110825  0.92331457  0.85354289  1  0.259375  0  0.057303  0.099985  0  2.749309  0
S  S163  1  0.79906053  0.82263602  0.89700255  1  0.254722  0  0.069403  0.116591  0  2.762256  0
N  N164  1  0.28629486  0.52562759  0.41267304  1  -1.231368  0  -0.580205  -0.59323  0  3.337904  0
N  N165  1  0.78192661  0.54387754  0.65715430  1  -1.275154  0  -0.584704  -0.592915  0  3.328668  0
N  N166  1  0.03392875  0.28132510  0.65635387  1  -1.245878  0  -0.586594  -0.595465  0  3.324795  0
N  N167  1  0.78292204  0.77865938  0.40473866  1  -1.25225  0  -0.580425  -0.591136  0  3.328879  0
N  N168  1  0.70703289  0.46747297  0.09376137  1  -1.223743  0  -0.580413  -0.592408  0  3.336172  0
N  N169  1  0.09402605  0.09669823  0.21907189  1  -1.267267  0  -0.58172  -0.592589  0  3.328808  0
N  N170  1  0.46335767  0.47489857  0.85001616  1  -1.284223  0  -0.582577  -0.595142  0  3.330411  0
N  N171  1  0.96738299  0.71926957  0.84214390  1  -1.258812  0  -0.582144  -0.593575  0  3.332434  0
Cl  Cl172  1  0.76298784  0.53786301  0.40085090  1  -0.192214  0  -0.019536  -0.082828  0  1.479883  0
Cl  Cl173  1  0.16886603  0.66704915  0.53084919  1  -0.185393  0  -0.015021  -0.077264  0  1.480263  0
Cl  Cl174  1  0.71866025  0.22003300  0.08202775  1  -0.189144  0  -0.017246  -0.079889  0  1.481454  0
Cl  Cl175  1  0.21185214  0.98747910  0.84916861  1  -0.17307  0  -0.013249  -0.075024  0  1.481406  0
O  O176  1  0.00053836  0.49850642  0.50070214  1  -1.216602  0  -0.571797  -1.0218  0  2.535942  0
O  O177  1  0.07493163  0.31725087  0.52363838  1  -1.15316  0  -0.3256  -0.55313  0  2.33601  0
O  O178  1  0.03578304  0.52726875  0.58724109  1  -1.171363  0  -0.319329  -0.552334  0  2.322255  0
O  O179  1  0.15743459  0.50627947  0.45100023  1  -1.170215  0  -0.321878  -0.555664  0  2.331244  0
O  O180  1  0.02299971  0.37502525  0.58253904  1  -1.178424  0  -0.324362  -0.560788  0  2.328556  0
O  O181  1  0.15276017  0.39326965  0.44713495  1  -1.182452  0  -0.328917  -0.55837  0  2.336621  0
O  O182  1  0.07824495  0.58884313  0.53085268  1  -1.173922  0  -0.312331  -0.544335  0  2.42907  0
O  O183  1  0.00358742  0.65577709  0.44915694  1  -1.177438  0  -0.330131  -0.556373  0  2.346413  0
O  O184  1  0.88999867  0.49731325  0.44233574  1  -1.176097  0  -0.315523  -0.548964  0  2.435622  0
O  O185  1  0.88794660  0.65473685  0.44814753  1  -1.1798  0  -0.320272  -0.553071  0  2.330466  0
O  O186  1  0.99584718  0.38533189  0.44150159  1  -1.159277  0  -0.312677  -0.544742  0  2.317355  0
O  O187  1  0.87591003  0.52854111  0.58291006  1  -1.188401  0  -0.322803  -0.560274  0  2.321021  0
O  O188  1  0.81721074  0.57707708  0.52425128  1  -1.146625  0  -0.326845  -0.550664  0  2.346334  0
O  O189  1  0.74960303  0.24913365  0.25098536  1  -1.215595  0  -0.570893  -1.025148  0  2.52828  0
O  O190  1  0.59582875  0.35941917  0.30273533  1  -1.155089  0  -0.320374  -0.548126  0  2.333163  0
O  O191  1  0.66137119  0.16482945  0.21862483  1  -1.16482  0  -0.314437  -0.54577  0  2.32047  0
O  O192  1  0.72442252  0.37426261  0.16813768  1  -1.17603  0  -0.321044  -0.555347  0  2.327822  0
O  O193  1  0.59201278  0.24595853  0.29949110  1  -1.173614  0  -0.31765  -0.541768  0  2.310545  0
O  O194  1  0.67367189  0.43293398  0.22675330  1  -1.160409  0  -0.328608  -0.556766  0  2.340704  0
O  O195  1  0.72387734  0.21519278  0.16640854  1  -1.165457  0  -0.313136  -0.545073  0  2.434098  0
O  O196  1  0.87746164  0.22472158  0.17073338  1  -1.173641  0  -0.328968  -0.553941  0  2.346652  0
O  O197  1  0.86508454  0.25262811  0.30821542  1  -1.170237  0  -0.314503  -0.546881  0  2.333071  0
O  O198  1  0.93607725  0.16922538  0.22907068  1  -1.177197  0  -0.321636  -0.557675  0  2.325026  0
O  O199  1  0.75478977  0.36125556  0.30826615  1  -1.178506  0  -0.311135  -0.540044  0  2.334825  0
O  O200  1  0.74465535  0.09284513  0.29918852  1  -1.171882  0  -0.321814  -0.552225  0  2.332685  0
O  O201  1  0.85790061  0.09583357  0.30383767  1  -1.180879  0  -0.319048  -0.541121  0  2.316865  0
O  O202  1  0.25083156  0.74913781  0.74992525  1  -1.23139  0  -0.571142  -1.025005  0  2.530343  0
O  O203  1  0.37648295  0.72317244  0.66916502  1  -1.167396  0  -0.317102  -0.538429  0  2.313579  0
O  O204  1  0.36532368  0.75508447  0.80823068  1  -1.170189  0  -0.317302  -0.548605  0  2.323533  0
O  O205  1  0.17179657  0.93363158  0.72742293  1  -1.182374  0  -0.320349  -0.547605  0  2.339641  0
O  O206  1  0.43393788  0.67065258  0.72796426  1  -1.152216  0  -0.323948  -0.555557  0  2.338678  0
O  O207  1  0.22573936  0.87573803  0.66883641  1  -1.172477  0  -0.317763  -0.541357  0  2.311782  0
O  O208  1  0.25269278  0.86013358  0.80783013  1  -1.173117  0  -0.311736  -0.54361  0  2.431966  0
O  O209  1  0.09614468  0.85552229  0.80313082  1  -1.186014  0  -0.327492  -0.552757  0  2.345688  0
O  O210  1  0.16362383  0.66413862  0.71956638  1  -1.166692  0  -0.313742  -0.545298  0  2.332652  0
O  O211  1  0.09388905  0.74088740  0.80066536  1  -1.17903  0  -0.321809  -0.556988  0  2.325358  0
O  O212  1  0.21905135  0.71863174  0.66511000  1  -1.158918  0  -0.312277  -0.542265  0  2.33821  0
O  O213  1  0.36010881  0.59764269  0.80493586  1  -1.182069  0  -0.322158  -0.558576  0  2.323176  0
O  O214  1  0.24772128  0.59281575  0.79994615  1  -1.180156  0  -0.32994  -0.556936  0  2.346062  0
O  O215  1  0.50008959  0.99957857  0.00021503  1  -1.22731  0  -0.570302  -1.028956  0  2.52541  0
O  O216  1  0.50595786  0.15559213  0.94964635  1  -1.172062  0  -0.321801  -0.550465  0  2.337281  0
O  O217  1  0.38755950  0.99589546  0.94220440  1  -1.17498  0  -0.31262  -0.542546  0  2.339368  0
O  O218  1  0.65256161  0.89184283  0.94610882  1  -1.158279  0  -0.32184  -0.549245  0  2.338534  0
O  O219  1  0.39197427  0.15314210  0.94630573  1  -1.157441  0  -0.317338  -0.540603  0  2.311988  0
O  O220  1  0.65679365  0.00501416  0.94946975  1  -1.170867  0  -0.317009  -0.538471  0  2.313621  0
O  O221  1  0.49657815  0.88600003  0.94177408  1  -1.167479  0  -0.31147  -0.541105  0  2.333083  0
O  O222  1  0.57908268  0.81540028  0.02239652  1  -1.157288  0  -0.321688  -0.550096  0  2.3381  0
O  O223  1  0.53101115  0.03045711  0.08634099  1  -1.162077  0  -0.311785  -0.542164  0  2.332704  0
O  O224  1  0.52695853  0.87337928  0.08105649  1  -1.167244  0  -0.317671  -0.540311  0  2.313612  0
O  O225  1  0.58524305  0.08480395  0.03123812  1  -1.175262  0  -0.312619  -0.541632  0  2.337702  0
O  O226  1  0.31562085  0.07914524  0.02269253  1  -1.178658  0  -0.3174  -0.539219  0  2.314606  0
O  O227  1  0.37477912  0.02595692  0.08090808  1  -1.17901  0  -0.321236  -0.549898  0  2.34065  0
