# generated using pymatgen
data_Co2H24C25(N4O)4
_symmetry_space_group_name_H-M   'P 1'
_cell_length_a   10.21444982
_cell_length_b   10.21665961
_cell_length_c   17.60155545
_cell_angle_alpha   106.91151837
_cell_angle_beta   106.86563982
_cell_angle_gamma   89.97514313
_symmetry_Int_Tables_number   1
_chemical_formula_structural   Co2H24C25(N4O)4
_chemical_formula_sum   'Co4 H48 C50 N32 O8'
_cell_volume   1674.74366541
_cell_formula_units_Z   2
loop_
 _symmetry_equiv_pos_site_id
 _symmetry_equiv_pos_as_xyz
  1  'x, y, z'
loop_
 _atom_site_type_symbol
 _atom_site_label
 _atom_site_symmetry_multiplicity
 _atom_site_fract_x
 _atom_site_fract_y
 _atom_site_fract_z
 _atom_site_occupancy
 _atom_site_pbe_bader_charge
 _atom_site_pbe_bader_spin_density
 _atom_site_pbe_cm5_charge
 _atom_site_pbe_ddec_charge
 _atom_site_pbe_ddec_spin_density
 _atom_site_pbe_ddec_sum_bond_order
 _atom_site_pbe_magmom
Co  Co0  1  0.50000434  0.00000056  0.00000064  1  1.063668  0.902827  0.683561  0.56148  0.991971  3.166445  0.898
Co  Co1  1  0.00000080  0.99999721  0.99999843  1  1.066132  0.902501  0.68445  0.563334  0.991628  3.163859  0.897
Co  Co2  1  0.99999894  0.49999956  0.50000010  1  1.063168  0.902451  0.684892  0.5631  0.991551  3.163568  0.897
Co  Co3  1  0.99999759  0.00000055  0.50000018  1  1.068556  0.903309  0.683168  0.561639  0.992436  3.164382  0.898
H  H4  1  0.44929665  0.26575098  0.09355020  1  0.133774  0.000907  0.119142  0.09897  0.000417  1.047784  0.0
H  H5  1  0.14411095  0.82746969  0.09331998  1  0.130713  0.000904  0.120419  0.100064  0.000418  1.046889  0.0
H  H6  1  0.82726398  0.44929685  0.59322345  1  0.128023  0.000897  0.12  0.099612  0.000414  1.047113  0.0
H  H7  1  0.26559152  0.14414062  0.59351613  1  0.091674  0.000885  0.119745  0.099044  0.000416  1.047905  0.0
H  H8  1  0.55070373  0.73424939  0.90645174  1  0.133748  0.000907  0.119149  0.098968  0.000417  1.047818  0.0
H  H9  1  0.85589212  0.17252601  0.90667845  1  0.130801  0.000903  0.120398  0.100023  0.000418  1.046913  0.0
H  H10  1  0.17273477  0.55070044  0.40677684  1  0.127273  0.000897  0.119994  0.099609  0.000414  1.047061  0.0
H  H11  1  0.73440576  0.85585982  0.40648371  1  0.09178  0.000885  0.119728  0.099026  0.000416  1.047896  0.0
H  H12  1  0.56015914  0.26660408  0.35034991  1  0.094097  -0.000224  0.11453  0.129696  -0.000299  0.97958  0.0
H  H13  1  0.28989256  0.08349711  0.35020944  1  0.094682  -0.000221  0.114963  0.12974  -0.000298  0.979993  0.0
H  H14  1  0.08327034  0.55939749  0.85005067  1  0.093187  -0.000223  0.114835  0.129966  -0.000298  0.978877  0.0
H  H15  1  0.26643878  0.28992241  0.85041275  1  0.09233  -0.000223  0.114606  0.129252  -0.000298  0.979079  0.0
H  H16  1  0.43984186  0.73339303  0.64965057  1  0.094118  -0.000224  0.114529  0.129716  -0.000299  0.979587  0.0
H  H17  1  0.71010932  0.91650165  0.64978779  1  0.09463  -0.000221  0.114968  0.12973  -0.000298  0.98  0.0
H  H18  1  0.91673003  0.44060268  0.14994918  1  0.09303  -0.000223  0.114828  0.129965  -0.000298  0.978853  0.0
H  H19  1  0.73356143  0.71007674  0.14958693  1  0.092312  -0.000223  0.114583  0.129207  -0.000298  0.979134  0.0
H  H20  1  0.61710871  0.02254288  0.30131776  1  0.101214  -4.9e-05  0.104605  0.110478  -3.2e-05  1.014207  0.0
H  H21  1  0.18377146  0.27855040  0.30136869  1  0.071909  -4.8e-05  0.105092  0.110139  -3.4e-05  1.014325  0.0
H  H22  1  0.27832512  0.61680170  0.80122527  1  0.111861  -5e-05  0.104619  0.10996  -3.3e-05  1.013191  0.0
H  H23  1  0.02248331  0.18389366  0.80141624  1  0.097605  -5e-05  0.105516  0.110764  -3.3e-05  1.015131  0.0
H  H24  1  0.38289358  0.97745506  0.69868195  1  0.100956  -4.9e-05  0.104611  0.110488  -3.2e-05  1.014233  0.0
H  H25  1  0.81622586  0.72144657  0.69862704  1  0.072148  -4.8e-05  0.105092  0.110122  -3.4e-05  1.014389  0.0
H  H26  1  0.72167311  0.38320274  0.19877449  1  0.111869  -5e-05  0.104612  0.109977  -3.3e-05  1.013204  0.0
H  H27  1  0.97751606  0.81611079  0.19858466  1  0.097642  -5e-05  0.105523  0.110784  -3.3e-05  1.015092  0.0
H  H28  1  0.58049955  0.91190724  0.14840292  1  0.13586  0.000163  0.114684  0.087865  -0.000217  1.056019  0.0
H  H29  1  0.06770588  0.23628782  0.14847803  1  0.133233  0.000157  0.115369  0.08843  -0.000218  1.055877  0.0
H  H30  1  0.23609418  0.58056860  0.64840904  1  0.136778  0.000162  0.115401  0.088286  -0.000218  1.056062  0.0
H  H31  1  0.91182698  0.06787300  0.64850107  1  0.143063  0.000167  0.114643  0.087975  -0.000216  1.055948  0.0
H  H32  1  0.41950279  0.08809264  0.85159580  1  0.135877  0.000164  0.11468  0.087868  -0.000216  1.056024  0.0
H  H33  1  0.93229022  0.76370526  0.85151854  1  0.133187  0.000157  0.115394  0.088449  -0.000218  1.055918  0.0
H  H34  1  0.76390164  0.41943499  0.35159036  1  0.136604  0.000162  0.115403  0.088266  -0.000218  1.056074  0.0
H  H35  1  0.08817193  0.93213052  0.35150042  1  0.143394  0.000168  0.114636  0.087972  -0.000216  1.05597  0.0
H  H36  1  0.46185950  0.49570533  0.15803027  1  0.0791  6.5e-05  0.108658  0.083584  4.2e-05  0.9858  0.0
H  H37  1  0.19646121  0.66180104  0.15791514  1  0.09628  6.4e-05  0.107824  0.08292  4.1e-05  0.984805  0.0
H  H38  1  0.66167142  0.46126464  0.65774610  1  0.077673  6.3e-05  0.10803  0.083562  4.1e-05  0.986283  0.0
H  H39  1  0.49555254  0.19601552  0.65794310  1  0.069017  6.5e-05  0.108621  0.083122  4.2e-05  0.984633  0.0
H  H40  1  0.53813886  0.50429839  0.84197272  1  0.078919  6.5e-05  0.108637  0.083555  4.2e-05  0.985732  0.0
H  H41  1  0.80353755  0.33819646  0.84208723  1  0.096278  6.4e-05  0.107831  0.082929  4.1e-05  0.98481  0.0
H  H42  1  0.33833038  0.53873585  0.34225830  1  0.077509  6.3e-05  0.108039  0.083592  4.1e-05  0.98619  0.0
H  H43  1  0.50444774  0.80398597  0.34205976  1  0.068989  6.5e-05  0.108597  0.083135  4.2e-05  0.984618  0.0
H  H44  1  0.29772295  0.42623319  0.15492428  1  0.086232  -6.8e-05  0.108727  0.086538  -0.000107  0.985136  0.0
H  H45  1  0.35733843  0.72846850  0.15475582  1  0.0782  -6.7e-05  0.10862  0.086641  -0.000107  0.984988  0.0
H  H46  1  0.72805808  0.29705233  0.65449981  1  0.075962  -6.7e-05  0.108324  0.086244  -0.000107  0.985591  0.0
H  H47  1  0.42584090  0.35694826  0.65475089  1  0.084923  -6.8e-05  0.108167  0.085665  -0.000108  0.985098  0.0
H  H48  1  0.70227721  0.57376922  0.84507743  1  0.086253  -6.8e-05  0.108744  0.086559  -0.000107  0.985158  0.0
H  H49  1  0.64266302  0.27152453  0.84524512  1  0.078172  -6.7e-05  0.108641  0.08666  -0.000107  0.985014  0.0
H  H50  1  0.27193713  0.70294431  0.34550105  1  0.075947  -6.7e-05  0.108313  0.086214  -0.000107  0.985577  0.0
H  H51  1  0.57416066  0.64305407  0.34525119  1  0.084899  -6.8e-05  0.108191  0.085706  -0.000108  0.985021  0.0
C  C52  1  0.48302720  0.21613567  0.14192676  1  0.499428  -0.006301  0.01985  -0.077037  -0.007006  3.942814  -0.004
C  C53  1  0.15874767  0.92550251  0.14175906  1  0.486228  -0.006309  0.019589  -0.077058  -0.007003  3.944535  -0.004
C  C54  1  0.92526916  0.48291494  0.64165157  1  0.496021  -0.006321  0.019184  -0.077326  -0.007015  3.945824  -0.004
C  C55  1  0.21600947  0.15875333  0.64193517  1  0.536906  -0.006273  0.020143  -0.076395  -0.006993  3.942349  -0.004
C  C56  1  0.51697587  0.78386545  0.85807478  1  0.499521  -0.006302  0.019873  -0.076966  -0.007007  3.942876  -0.004
C  C57  1  0.84125303  0.07449429  0.85823801  1  0.486235  -0.006308  0.019554  -0.077022  -0.007002  3.944385  -0.004
C  C58  1  0.07472835  0.51708346  0.35834850  1  0.496783  -0.00632  0.019185  -0.077278  -0.007014  3.945734  -0.004
C  C59  1  0.78398916  0.84125009  0.35806500  1  0.536843  -0.006274  0.020162  -0.076363  -0.006994  3.942333  -0.004
C  C60  1  0.49508761  0.28222870  0.22529733  1  0.435394  0.000974  0.088273  0.217134  0.000313  4.091716  0.001
C  C61  1  0.23007338  0.94285606  0.22509773  1  0.416952  0.000984  0.08711  0.215304  0.000314  4.090848  0.001
C  C62  1  0.94261857  0.49459077  0.72495699  1  0.466744  0.000997  0.087493  0.215859  0.000311  4.093473  0.001
C  C63  1  0.28201687  0.23010593  0.72529785  1  0.447401  0.000983  0.088077  0.216909  0.000313  4.089197  0.001
C  C64  1  0.50491446  0.71777149  0.77470423  1  0.435323  0.000974  0.088229  0.217074  0.000313  4.091646  0.001
C  C65  1  0.76992833  0.05714167  0.77489933  1  0.41695  0.000983  0.087124  0.215293  0.000314  4.090759  0.001
C  C66  1  0.05738068  0.50540438  0.27504277  1  0.466652  0.000997  0.087471  0.215754  0.000311  4.093596  0.001
C  C67  1  0.71798001  0.76990073  0.27470262  1  0.447441  0.000984  0.088068  0.216882  0.000314  4.089194  0.001
C  C68  1  0.54569355  0.21381505  0.28470625  1  -0.054738  -0.008921  -0.084592  -0.158995  -0.009763  3.974808  -0.005
C  C69  1  0.23881188  0.07070066  0.28459401  1  0.001792  -0.008915  -0.083154  -0.15654  -0.009768  3.975109  -0.005
C  C70  1  0.07046192  0.54510931  0.78444386  1  0.015534  -0.008924  -0.083489  -0.157628  -0.009772  3.974868  -0.005
C  C71  1  0.21366306  0.23882366  0.78477200  1  -0.010501  -0.008907  -0.084501  -0.15769  -0.009752  3.972459  -0.005
C  C72  1  0.45430946  0.78618392  0.71529420  1  -0.054778  -0.008922  -0.08455  -0.158945  -0.009764  3.974873  -0.005
C  C73  1  0.76119051  0.92929595  0.71540270  1  0.001717  -0.008914  -0.083191  -0.156517  -0.009767  3.975059  -0.005
C  C74  1  0.92953643  0.45488900  0.21555603  1  0.015643  -0.008923  -0.083484  -0.157621  -0.009771  3.974919  -0.005
C  C75  1  0.78633405  0.76118077  0.21522662  1  -0.010511  -0.00891  -0.08447  -0.157625  -0.009755  3.972376  -0.005
C  C76  1  0.57696558  0.07945981  0.25726168  1  -0.037487  0.001282  -0.085614  -0.093453  0.000294  3.994358  0.001
C  C77  1  0.17993619  0.17757590  0.25725837  1  -0.020794  0.001292  -0.086121  -0.094347  0.000294  3.995331  0.001
C  C78  1  0.17733025  0.57665905  0.75712347  1  -0.141328  0.001262  -0.085529  -0.093277  0.00029  3.995305  0.001
C  C79  1  0.07938848  0.18003574  0.75734282  1  -0.043958  0.001313  -0.086647  -0.094623  0.000292  3.997321  0.001
C  C80  1  0.42303912  0.92053898  0.74273840  1  -0.037219  0.001282  -0.085659  -0.093529  0.000294  3.994499  0.001
C  C81  1  0.82006299  0.82242212  0.74273925  1  -0.020796  0.001292  -0.086137  -0.094374  0.000294  3.995669  0.001
C  C82  1  0.82266832  0.42334222  0.24287559  1  -0.141317  0.001261  -0.085546  -0.09336  0.000289  3.995334  0.001
C  C83  1  0.92060919  0.81996889  0.24265845  1  -0.043966  0.001314  -0.086659  -0.094597  0.000292  3.997276  0.001
C  C84  1  0.55796116  0.01694190  0.17273972  1  0.531114  -0.007363  0.032308  0.048323  -0.008163  3.929068  -0.005
C  C85  1  0.11451898  0.15557188  0.17275018  1  0.514897  -0.007371  0.033872  0.051039  -0.008165  3.92883  -0.005
C  C86  1  0.15535740  0.55794977  0.67266944  1  0.510712  -0.007385  0.033506  0.050044  -0.008172  3.930693  -0.005
C  C87  1  0.01686386  0.11464725  0.67281558  1  0.471385  -0.007409  0.032493  0.048471  -0.008158  3.929358  -0.005
C  C88  1  0.44204286  0.98305779  0.82725863  1  0.531152  -0.007363  0.032334  0.048451  -0.008164  3.929048  -0.005
C  C89  1  0.88548110  0.84442277  0.82724523  1  0.514903  -0.007371  0.033812  0.050957  -0.008164  3.929046  -0.005
C  C90  1  0.84463932  0.44205067  0.32732983  1  0.510816  -0.007384  0.033617  0.050316  -0.008171  3.93056  -0.005
C  C91  1  0.98313168  0.88535644  0.32718457  1  0.47112  -0.00741  0.032489  0.048372  -0.00816  3.929436  -0.005
C  C92  1  0.39633766  0.48383971  0.19581349  1  0.381765  -4.5e-05  -0.063122  -0.032756  -6.5e-05  3.833337  0.0
C  C93  1  0.29967856  0.71175936  0.19566804  1  0.367788  -4.6e-05  -0.06015  -0.030741  -6.5e-05  3.827463  0.0
C  C94  1  0.71144436  0.39570015  0.69544873  1  0.390224  -4.6e-05  -0.061305  -0.032229  -6.5e-05  3.830265  0.0
C  C95  1  0.48352373  0.29935224  0.69567743  1  0.396661  -4.6e-05  -0.061389  -0.030508  -6.5e-05  3.829517  0.0
C  C96  1  0.60366385  0.51616067  0.80418958  1  0.381837  -4.5e-05  -0.063102  -0.032718  -6.5e-05  3.833249  0.0
C  C97  1  0.70032132  0.28823795  0.80433338  1  0.367811  -4.6e-05  -0.060187  -0.030787  -6.5e-05  3.827558  0.0
C  C98  1  0.28855682  0.60429819  0.30455400  1  0.390297  -4.6e-05  -0.06124  -0.032134  -6.5e-05  3.830123  0.0
C  C99  1  0.51647682  0.70064916  0.30432467  1  0.396684  -4.6e-05  -0.061432  -0.03063  -6.5e-05  3.829378  0.0
C  C100  1  0.37527480  0.62514412  0.25008671  1  0.060012  1.1e-05  -0.014559  0.058178  1.8e-05  3.790873  0.0
C  C101  1  0.62472598  0.37485524  0.74991562  1  0.059992  1.1e-05  -0.014525  0.058188  1.8e-05  3.790907  0.0
N  N102  1  0.51424994  0.08525039  0.11640307  1  -1.193377  -0.004937  -0.331307  -0.140268  -0.004742  3.679147  -0.003
N  N103  1  0.10199597  0.03090999  0.11633862  1  -1.188768  -0.004959  -0.333723  -0.143492  -0.004759  3.684541  -0.003
N  N104  1  0.03071307  0.51429320  0.61626882  1  -1.172235  -0.004987  -0.333631  -0.142631  -0.004815  3.684904  -0.003
N  N105  1  0.08515626  0.10202748  0.61643924  1  -1.18494  -0.004934  -0.330934  -0.139918  -0.004739  3.678793  -0.003
N  N106  1  0.48575543  0.91475249  0.88359769  1  -1.193374  -0.004937  -0.331349  -0.140446  -0.004742  3.679257  -0.003
N  N107  1  0.89800468  0.96908466  0.88365736  1  -1.188829  -0.004959  -0.333632  -0.143433  -0.00476  3.684307  -0.003
N  N108  1  0.96928275  0.48570518  0.38372954  1  -1.172146  -0.004987  -0.333687  -0.142783  -0.004814  3.685039  -0.003
N  N109  1  0.91484080  0.89797520  0.38356245  1  -1.185106  -0.004934  -0.330935  -0.13985  -0.004738  3.678739  -0.003
N  N110  1  0.67766683  0.88322229  0.04139468  1  -0.124174  0.015892  -0.208828  -0.397891  0.006807  2.897182  0.012
N  N111  1  0.86375479  0.15826322  0.04151094  1  -0.052675  0.015715  -0.209669  -0.398604  0.006807  2.894714  0.012
N  N112  1  0.15822009  0.67779490  0.54158450  1  -0.129392  0.015846  -0.208745  -0.39743  0.006764  2.895775  0.012
N  N113  1  0.88309210  0.86377587  0.54133669  1  -0.053478  0.015706  -0.210062  -0.398626  0.006865  2.896389  0.012
N  N114  1  0.32233882  0.11678049  0.95860533  1  -0.124396  0.015889  -0.208821  -0.397874  0.006806  2.897156  0.012
N  N115  1  0.13625136  0.84173721  0.95848646  1  -0.05257  0.015717  -0.209592  -0.398515  0.006809  2.894961  0.012
N  N116  1  0.84177742  0.32220350  0.45841557  1  -0.129345  0.015848  -0.208707  -0.397448  0.006764  2.895827  0.012
N  N117  1  0.11690997  0.13622432  0.45866487  1  -0.053469  0.015702  -0.210049  -0.398606  0.006862  2.896397  0.012
N  N118  1  0.77937334  0.86956471  0.02195045  1  -0.330058  0.019831  0.082053  0.401227  0.008219  4.437092  0.015
N  N119  1  0.74261940  0.15250287  0.02212121  1  -0.459571  0.020023  0.081546  0.402336  0.008209  4.433805  0.015
N  N120  1  0.15245289  0.77943711  0.52212882  1  -0.320588  0.019751  0.081025  0.401116  0.008163  4.43846  0.015
N  N121  1  0.86946480  0.74264277  0.52193303  1  -0.390323  0.020037  0.083131  0.401882  0.008208  4.433593  0.015
N  N122  1  0.22062870  0.13043507  0.97804694  1  -0.330013  0.019833  0.082007  0.401176  0.00822  4.437292  0.015
N  N123  1  0.25738495  0.84749888  0.97787749  1  -0.459385  0.020019  0.081457  0.4022  0.008207  4.433776  0.015
N  N124  1  0.84754552  0.22056334  0.47787216  1  -0.320576  0.019749  0.080956  0.401142  0.008162  4.438365  0.015
N  N125  1  0.13053372  0.25735656  0.47806702  1  -0.390321  0.020039  0.083099  0.401851  0.008209  4.433638  0.015
N  N126  1  0.88156842  0.84879570  0.00161756  1  -0.197774  0.037038  -0.282811  -0.461112  0.018156  3.041757  0.026
N  N127  1  0.62010880  0.15295505  0.00183511  1  -0.139985  0.036933  -0.281395  -0.461016  0.01809  3.039169  0.026
N  N128  1  0.15289110  0.88154741  0.50176996  1  -0.20282  0.037032  -0.281681  -0.461143  0.018121  3.042234  0.026
N  N129  1  0.84874486  0.62013705  0.50164174  1  -0.207953  0.03691  -0.282611  -0.460933  0.018093  3.038167  0.026
N  N130  1  0.11843284  0.15120090  0.99837800  1  -0.197598  0.037034  -0.282769  -0.461057  0.018154  3.041902  0.026
N  N131  1  0.37989714  0.84704783  0.99816622  1  -0.14029  0.036936  -0.281387  -0.460944  0.01809  3.038884  0.026
N  N132  1  0.84710603  0.11845221  0.49823179  1  -0.202937  0.037032  -0.281685  -0.461193  0.018121  3.042166  0.026
N  N133  1  0.15125215  0.37986349  0.49835885  1  -0.207927  0.036909  -0.282575  -0.460884  0.018092  3.038168  0.026
O  O134  1  0.46355259  0.41322003  0.25418570  1  -1.087071  0.000477  -0.174958  -0.198266  0.000277  2.5989  0.0
O  O135  1  0.29058198  0.84085029  0.25398725  1  -1.080808  0.000476  -0.178633  -0.200303  0.000277  2.599548  0.0
O  O136  1  0.84057527  0.46283972  0.75377348  1  -1.081416  0.000475  -0.177114  -0.199634  0.000276  2.601258  0.0
O  O137  1  0.41290368  0.29065415  0.75410604  1  -1.088904  0.000476  -0.176596  -0.199309  0.000277  2.599011  0.0
O  O138  1  0.53644774  0.58677820  0.74581513  1  -1.087021  0.000477  -0.174912  -0.198233  0.000277  2.598786  0.0
O  O139  1  0.70942037  0.15914980  0.74601355  1  -1.080792  0.000476  -0.178597  -0.200245  0.000277  2.599444  0.0
O  O140  1  0.15942680  0.53715547  0.24622913  1  -1.081266  0.000475  -0.177137  -0.199649  0.000276  2.601218  0.0
O  O141  1  0.58709608  0.70934928  0.24589527  1  -1.088869  0.000476  -0.176539  -0.199264  0.000277  2.599025  0.0
