# generated using pymatgen
data_Zn8H23C52Br5O32
_symmetry_space_group_name_H-M   'P 1'
_cell_length_a   18.52782318
_cell_length_b   18.74881202
_cell_length_c   18.62508101
_cell_angle_alpha   120.33071086
_cell_angle_beta   89.82430719
_cell_angle_gamma   120.28463858
_symmetry_Int_Tables_number   1
_chemical_formula_structural   Zn8H23C52Br5O32
_chemical_formula_sum   'Zn8 H23 C52 Br5 O32'
_cell_volume   4539.17675157
_cell_formula_units_Z   1
loop_
 _symmetry_equiv_pos_site_id
 _symmetry_equiv_pos_as_xyz
  1  'x, y, z'
loop_
 _atom_site_type_symbol
 _atom_site_label
 _atom_site_symmetry_multiplicity
 _atom_site_fract_x
 _atom_site_fract_y
 _atom_site_fract_z
 _atom_site_occupancy
 _atom_site_pbe_bader_charge
 _atom_site_pbe_bader_spin_density
 _atom_site_pbe_cm5_charge
 _atom_site_pbe_ddec_charge
 _atom_site_pbe_ddec_spin_density
 _atom_site_pbe_ddec_sum_bond_order
 _atom_site_pbe_magmom
Zn  Zn0  1  0.46084380  0.41097291  0.54439316  1  1.302065  0  0.671275  0.960524  0  2.367489  0
Zn  Zn1  1  0.45926696  0.58428746  0.54761571  1  1.307934  0  0.675306  0.973477  0  2.346671  0
Zn  Zn2  1  0.46335793  0.41442456  0.37440776  1  1.315392  0  0.676764  0.970185  0  2.371563  0
Zn  Zn3  1  0.63363177  0.58620308  0.54618907  1  1.300482  0  0.672781  0.958639  0  2.377059  0
Zn  Zn4  1  0.04809027  0.58190193  0.94933776  1  1.318779  0  0.67836  0.971148  0  2.360521  0
Zn  Zn5  1  0.05002180  0.59509462  0.12830461  1  1.318829  0  0.671218  0.966373  0  2.35443  0
Zn  Zn6  1  0.03406707  0.40705549  0.95459862  1  1.316493  0  0.678288  0.971559  0  2.36072  0
Zn  Zn7  1  0.87142339  0.42497417  0.96024211  1  1.317748  0  0.674799  0.967643  0  2.365003  0
H  H8  1  0.19895298  0.92148623  0.24455234  1  0.115177  0  0.118584  0.1491  0  0.97875  0
H  H9  1  0.77048558  0.91966454  0.70252561  1  0.126418  0  0.120579  0.141884  0  0.968636  0
H  H10  1  0.25649443  0.59074914  0.25041138  1  0.132395  0  0.121624  0.14805  0  0.957127  0
H  H11  1  0.23188234  0.43128403  0.82838774  1  0.133891  0  0.124552  0.134894  0  0.966904  0
H  H12  1  0.28031322  0.53773976  0.70375856  1  0.114425  0  0.118778  0.142094  0  0.975392  0
H  H13  1  0.90681625  0.39699110  0.58015488  1  0.114377  0  0.106233  0.107542  0  1.015554  0
H  H14  1  0.91464190  0.45936435  0.73279192  1  0.104104  0  0.107432  0.118511  0  1.011916  0
H  H15  1  0.80168258  0.58977299  0.98258786  1  0.118185  0  0.112638  0.119459  0  1.009051  0
H  H16  1  0.60080709  0.57681942  0.79195285  1  0.077686  0  0.1065  0.125837  0  1.001174  0
H  H17  1  0.75463836  0.00629127  0.64389970  1  0.081328  0  0.104742  0.04296  0  0.975378  0
H  H18  1  0.08026849  0.31061862  0.06227249  1  0.090395  0  0.110558  0.064617  0  0.972148  0
H  H19  1  0.32566616  0.10306409  0.19001020  1  0.106032  0  0.114714  0.125526  0  0.982197  0
H  H20  1  0.12508733  0.38079605  0.62223466  1  0.063716  0  0.100028  0.032328  0  0.982175  0
H  H21  1  0.29329885  0.30698914  0.64132386  1  0.109522  0  0.116148  0.062943  0  0.947632  0
H  H22  1  0.84694769  0.35473750  0.43902730  1  0.062504  0  0.098256  0.029001  0  0.95527  0
H  H23  1  0.66723371  0.67583383  0.09092420  1  0.057689  0  0.092557  0.032003  0  1.001092  0
H  H24  1  0.32205868  0.07781893  0.34193979  1  0.097253  0  0.116101  0.135622  0  0.977545  0
H  H25  1  0.69495014  0.40262413  0.10170074  1  0.110964  0  0.114802  0.112839  0  0.973253  0
H  H26  1  0.85760901  0.56885282  0.27274483  1  0.097905  0  0.115571  0.134337  0  0.979521  0
H  H27  1  0.60649731  0.42724013  0.19958600  1  0.096115  0  0.113596  0.110938  0  0.975091  0
H  H28  1  0.76526709  0.51513685  0.34741303  1  0.123593  0  0.116916  0.138418  0  0.978436  0
H  H29  1  0.60020246  0.90267424  0.73337550  1  0.139759  0  0.118519  0.132089  0  0.968268  0
H  H30  1  0.71161662  0.44751063  0.54447170  1  0.106061  0  0.108869  0.113534  0  1.014984  0
C  C31  1  0.64057497  0.77270701  0.63603407  1  1.580516  0  0.22432  0.645587  0  4.172388  0
C  C32  1  0.70475812  0.61542668  0.97279089  1  -0.013579  0  -0.024832  -0.032984  0  3.994727  0
C  C33  1  0.64725904  0.61129536  0.91738815  1  -0.096828  0  -0.009291  0.088745  0  3.957887  0
C  C34  1  0.38232629  0.22561005  0.36489369  1  1.568877  0  0.223334  0.648443  0  4.170845  0
C  C35  1  0.64573094  0.57988914  0.83280660  1  0.053007  0  -0.094891  -0.180718  0  3.956922  0
C  C36  1  0.25728244  0.95057062  0.15801474  1  -0.096988  0  0.004776  0.157273  0  3.952638  0
C  C37  1  0.20412094  0.88661278  0.17877590  1  -0.019261  0  -0.096581  -0.287473  0  3.852924  0
C  C38  1  0.30760555  0.06082336  0.21897977  1  0.069225  0  -0.068079  -0.064294  0  3.960318  0
C  C39  1  0.33447563  0.11382563  0.30779394  1  -0.080527  0  -0.08177  -0.206977  0  3.855058  0
C  C40  1  0.72889690  0.45352280  0.17315990  1  0.004986  0  -0.058494  -0.007535  0  3.957017  0
C  C41  1  0.81852729  0.51237191  0.20256624  1  -0.045337  0  -0.082293  -0.221564  0  3.86372  0
C  C42  1  0.86920843  0.45656979  0.69282076  1  -0.009266  0  -0.08094  -0.109521  0  3.938533  0
C  C43  1  0.67431988  0.45577369  0.22897606  1  -0.057098  0  -0.059132  -0.010331  0  3.95641  0
C  C44  1  0.70019214  0.48938484  0.31394202  1  -0.012062  0  -0.081025  -0.219562  0  3.859644  0
C  C45  1  0.72692677  0.05176158  0.79967694  1  -0.112232  0  0.012258  0.115383  0  3.925329  0
C  C46  1  0.36039506  0.49101396  0.63595008  1  1.524881  0  0.22244  0.643831  0  4.184907  0
C  C47  1  0.79125016  0.11807978  0.78646129  1  0.079751  0  -0.021588  -0.162331  0  3.905213  0
C  C48  1  0.67028607  0.94165598  0.73926600  1  -0.032568  0  -0.069759  -0.068792  0  3.992101  0
C  C49  1  0.70027822  0.88542201  0.69453083  1  -0.053519  0  -0.076585  -0.205653  0  3.863963  0
C  C50  1  0.20726133  0.43555300  0.17490435  1  -0.054318  0  -0.010493  0.026785  0  3.997889  0
C  C51  1  0.20757979  0.51457302  0.19083945  1  0.025311  0  -0.062349  -0.214117  0  3.792747  0
C  C52  1  0.27763077  0.45384171  0.23335655  1  -0.040702  0  -0.015194  0.042516  0  3.973859  0
C  C53  1  0.81551177  0.48984888  0.73032885  1  0.024297  0  0.007961  0.065513  0  3.951452  0
C  C54  1  0.27872529  0.46371758  0.30991216  1  0.019711  0  -0.030804  -0.087063  0  3.876718  0
C  C55  1  0.21468570  0.43170281  0.77245186  1  -0.017812  0  -0.042406  -0.073364  0  3.861384  0
C  C56  1  0.14433288  0.43509054  0.76032176  1  -0.031214  0  -0.008339  -0.101053  0  3.884726  0
C  C57  1  0.27095208  0.42837787  0.71821961  1  -0.039463  0  0.008601  0.077334  0  3.958892  0
C  C58  1  0.64261709  0.49497608  0.36820050  1  1.515375  0  0.223752  0.647014  0  4.165596  0
C  C59  1  0.29898771  0.48597342  0.68704226  1  -0.008103  0  -0.071716  -0.252405  0  3.828194  0
C  C60  1  0.87021957  0.50771556  0.14203980  1  1.556591  0  0.223205  0.647348  0  4.174921  0
C  C61  1  0.10584694  0.45697975  0.83338236  1  1.568478  0  0.236005  0.628665  0  4.161343  0
C  C62  1  0.15066966  0.77495103  0.12564977  1  1.598235  0  0.217093  0.656954  0  4.173  0
C  C63  1  0.85050008  0.23077241  0.85728494  1  1.613662  0  0.226072  0.631457  0  4.202033  0
C  C64  1  0.75706006  0.48716092  0.67594487  1  -0.006931  0  0.006205  0.06235  0  3.968732  0
C  C65  1  0.14510823  0.50867161  0.13450356  1  1.566789  0  0.228125  0.648342  0  4.166581  0
C  C66  1  0.87119077  0.51997263  0.87260476  1  1.585559  0  0.234992  0.618083  0  4.17032  0
C  C67  1  0.34978637  0.48044896  0.36804256  1  1.612465  0  0.220966  0.624771  0  4.194286  0
C  C68  1  0.64228694  0.51377671  0.65261317  1  1.572486  0  0.233314  0.619437  0  4.180317  0
C  C69  1  0.75479593  0.45078000  0.58749984  1  -0.014032  0  -0.065833  -0.117957  0  3.879332  0
C  C70  1  0.80695429  0.41832396  0.55331376  1  -0.045054  0  -0.019982  0.016599  0  4.02497  0
C  C71  1  0.86505546  0.42187848  0.60707340  1  -0.080262  0  -0.079007  -0.105676  0  3.971344  0
C  C72  1  0.80465606  0.08703801  0.70001976  1  0.949942  0  0.093013  0.28777  0  3.976285  0
C  C73  1  0.13735642  0.32613733  0.10200199  1  0.970668  0  0.098819  0.267625  0  3.923726  0
C  C74  1  0.10121614  0.41190208  0.67731838  1  0.943412  0  0.095237  0.2773  0  3.991759  0
C  C75  1  0.81489662  0.52197283  0.81692467  1  0.007578  0  0.004525  -0.097224  0  3.868152  0
C  C76  1  0.30413043  0.36603985  0.70926402  1  0.966603  0  0.116105  0.289329  0  3.901247  0
C  C77  1  0.80242364  0.37946543  0.46051494  1  0.925654  0  0.098816  0.270011  0  3.98467  0
C  C78  1  0.70967203  0.64967183  0.06521461  1  0.963677  0  0.092554  0.275892  0  3.957058  0
C  C79  1  0.75936139  0.55187819  0.85131732  1  0.038613  0  0.003911  0.056816  0  3.973852  0
C  C80  1  0.70144217  0.54942402  0.79695824  1  0.007737  0  0.006594  0.079584  0  3.974362  0
C  C81  1  0.70197517  0.51752612  0.71071457  1  -0.023673  0  0.001995  -0.099706  0  3.877107  0
C  C82  1  0.75886458  0.58603157  0.93876350  1  -0.043557  0  -0.058337  -0.093612  0  3.871113  0
Br  Br83  1  0.56916974  0.64842130  0.95928477  1  -0.064571  0  0.020186  -0.078788  0  1.343152  0
Br  Br84  1  0.70461480  0.10075793  0.90899970  1  -0.019868  0  0.054161  -0.023813  0  1.305704  0
Br  Br85  1  0.37177998  0.46292351  0.18797837  1  -0.001407  0  0.05166  -0.010606  0  1.356291  0
Br  Br86  1  0.18385671  0.45655033  0.35319456  1  -0.016917  0  0.036907  -0.018015  0  1.345197  0
Br  Br87  1  0.27515366  0.90773838  0.04721913  1  -0.009403  0  0.046664  -0.031391  0  1.350712  0
O  O88  1  0.50286717  0.49936413  0.50462600  1  -1.196518  0  -0.572702  -1.033841  0  2.534381  0
O  O89  1  0.92838768  0.26579912  0.89646524  1  -1.158549  0  -0.306616  -0.53446  0  2.303473  0
O  O90  1  0.13026921  0.57597526  0.17493786  1  -1.156577  0  -0.308719  -0.533877  0  2.272779  0
O  O91  1  0.67928806  0.72921619  0.60416609  1  -1.164968  0  -0.312041  -0.536819  0  2.287434  0
O  O92  1  0.82940527  0.46107953  0.89573224  1  -1.156515  0  -0.304567  -0.532293  0  2.330414  0
O  O93  1  0.11401684  0.43928176  0.05161008  1  -1.171577  0  -0.308982  -0.545103  0  2.343179  0
O  O94  1  0.95484011  0.57642074  0.89137291  1  -1.161403  0  -0.304812  -0.533096  0  2.32174  0
O  O95  1  0.13964129  0.72469996  0.04333291  1  -1.181456  0  -0.318472  -0.555176  0  2.380635  0
O  O96  1  0.81755222  0.27928153  0.86898636  1  -1.144969  0  -0.304537  -0.532121  0  2.32252  0
O  O97  1  0.95477354  0.56910676  0.17905674  1  -1.166582  0  -0.318933  -0.550369  0  2.292802  0
O  O98  1  0.09320594  0.40903463  0.86724192  1  -1.148308  0  -0.308379  -0.537971  0  2.318016  0
O  O99  1  0.38752135  0.43515744  0.61790310  1  -1.15339  0  -0.305672  -0.548382  0  2.340413  0
O  O100  1  0.39418228  0.26612986  0.44749858  1  -1.149924  0  -0.320381  -0.552152  0  2.283303  0
O  O101  1  0.38096068  0.55207249  0.61476010  1  -1.143112  0  -0.310328  -0.533508  0  2.280487  0
O  O102  1  0.56192469  0.45579471  0.33066567  1  -1.176379  0  -0.321877  -0.564308  0  2.319995  0
O  O103  1  0.38233794  0.55470727  0.44907015  1  -1.164134  0  -0.312169  -0.535997  0  2.322165  0
O  O104  1  0.67994784  0.58014606  0.63673017  1  -1.151525  0  -0.307334  -0.535241  0  2.315125  0
O  O105  1  0.36955344  0.41772340  0.33010238  1  -1.137566  0  -0.304296  -0.525635  0  2.355533  0
O  O106  1  0.55967861  0.44380294  0.62391225  1  -1.16212  0  -0.306148  -0.53365  0  2.312641  0
O  O107  1  0.86505999  0.14688768  0.68947007  1  -1.067911  0  -0.265763  -0.34579  0  2.06736  0
O  O108  1  0.14175485  0.25781561  0.08879720  1  -1.04408  0  -0.255903  -0.33055  0  2.087259  0
O  O109  1  0.04017688  0.41797421  0.66503615  1  -1.058181  0  -0.252594  -0.337834  0  2.125856  0
O  O110  1  0.67952163  0.54095151  0.45066366  1  -1.152025  0  -0.316138  -0.544909  0  2.296484  0
O  O111  1  0.33798335  0.37882010  0.77450372  1  -1.049252  0  -0.246659  -0.330531  0  2.096237  0
O  O112  1  0.75481043  0.37324038  0.40891174  1  -1.069303  0  -0.274212  -0.36432  0  2.100495  0
O  O113  1  0.75671954  0.64991347  0.11168594  1  -1.076083  0  -0.27157  -0.358097  0  2.082844  0
O  O114  1  0.55745049  0.72944997  0.62325010  1  -1.17498  0  -0.31515  -0.54706  0  2.304531  0
O  O115  1  0.40726613  0.27185836  0.32821099  1  -1.180653  0  -0.313631  -0.544371  0  2.323127  0
O  O116  1  0.00164164  0.50233279  0.99818072  1  -1.235032  0  -0.57223  -1.03455  0  2.530595  0
O  O117  1  0.82761756  0.44401831  0.05876550  1  -1.187985  0  -0.320092  -0.560282  0  2.331823  0
O  O118  1  0.09282765  0.52461590  0.85595426  1  -1.140309  0  -0.301139  -0.527355  0  2.333696  0
O  O119  1  0.11846059  0.73753114  0.16898827  1  -1.163381  0  -0.319892  -0.548654  0  2.272531  0
