# generated using pymatgen
data_Er4P6H3(CO6)3
_symmetry_space_group_name_H-M   'P 1'
_cell_length_a   11.66735678
_cell_length_b   11.66782787
_cell_length_c   11.66782528
_cell_angle_alpha   109.47268366
_cell_angle_beta   109.47034415
_cell_angle_gamma   109.47231283
_symmetry_Int_Tables_number   1
_chemical_formula_structural   Er4P6H3(CO6)3
_chemical_formula_sum   'Er8 P12 H6 C6 O36'
_cell_volume   1222.70452748
_cell_formula_units_Z   2
loop_
 _symmetry_equiv_pos_site_id
 _symmetry_equiv_pos_as_xyz
  1  'x, y, z'
loop_
 _atom_site_type_symbol
 _atom_site_label
 _atom_site_symmetry_multiplicity
 _atom_site_fract_x
 _atom_site_fract_y
 _atom_site_fract_z
 _atom_site_occupancy
 _atom_site_pbe_bader_charge
 _atom_site_pbe_bader_spin_density
 _atom_site_pbe_cm5_charge
 _atom_site_pbe_ddec_charge
 _atom_site_pbe_ddec_spin_density
 _atom_site_pbe_ddec_sum_bond_order
 _atom_site_pbe_magmom
Er  Er0  1  0.99997318  0.37700303  0.49998528  1  2.174898  0.001141  1.619468  2.22541  0.002237  2.181628  0.003
Er  Er1  1  0.50002041  0.50001396  0.87703059  1  2.174794  0.001142  1.619474  2.225424  0.002235  2.181578  0.003
Er  Er2  1  0.62301320  0.12298326  0.62302363  1  2.17296  0.003905  1.619306  2.225325  0.00758  2.181912  0.01
Er  Er3  1  0.87699059  0.00001254  0.99996572  1  2.174734  0.003899  1.619368  2.225293  0.007581  2.18195  0.01
Er  Er4  1  0.00001286  0.08578735  0.50002325  1  2.154545  -0.000903  1.6096  2.177199  -0.00162  2.184122  -0.002
Er  Er5  1  0.49999181  0.50001327  0.58579183  1  2.154604  -0.00089  1.609533  2.177005  -0.001619  2.184374  -0.002
Er  Er6  1  0.91425498  0.41428172  0.91426810  1  2.154216  -0.002632  1.609438  2.177035  -0.005023  2.184061  -0.007
Er  Er7  1  0.58573287  0.99998934  0.00001066  1  2.154448  -0.002641  1.609585  2.177185  -0.005023  2.183892  -0.007
P  P8  1  0.66827913  0.05746146  0.32784856  1  3.462155  0.001376  0.364549  1.479777  0.008757  5.395779  -0.012
P  P9  1  0.83172012  0.65957185  0.88917903  1  3.453977  0.001547  0.364469  1.479726  0.008763  5.395879  -0.012
P  P10  1  0.77035632  0.44251983  0.61081247  1  3.447185  0.001422  0.36468  1.479452  0.008601  5.396127  -0.012
P  P11  1  0.72964817  0.84045937  0.17216457  1  3.458435  0.001273  0.364363  1.479365  0.008604  5.396192  -0.012
P  P12  1  0.34042574  0.67213956  0.72961595  1  3.458497  0.001416  0.364435  1.479686  0.008768  5.395866  -0.012
P  P13  1  0.94253168  0.11080601  0.77034088  1  3.48553  0.00099  0.36466  1.479715  0.008763  5.395968  -0.012
P  P14  1  0.15956795  0.38919260  0.83171452  1  3.45371  0.00153  0.364604  1.479933  0.008767  5.395585  -0.012
P  P15  1  0.55746810  0.82781120  0.66827574  1  3.461299  0.001365  0.364424  1.479587  0.008763  5.395995  -0.012
P  P16  1  0.61080188  0.27035853  0.94252904  1  3.447008  0.00154  0.364591  1.479447  0.008988  5.396099  -0.012
P  P17  1  0.17214108  0.22962900  0.34045499  1  3.458376  -0.001247  0.364442  1.479368  -0.008211  5.396859  0.012
P  P18  1  0.32786089  0.16831542  0.55749348  1  3.462496  -0.001196  0.364462  1.479301  -0.008213  5.396948  0.012
P  P19  1  0.88919285  0.33172019  0.15955564  1  3.454191  0.001528  0.364436  1.479594  0.008985  5.396058  -0.012
H  H20  1  0.54991686  0.79988205  0.25002437  1  0.11632  0.003833  0.139867  0.233312  -0.004608  0.941216  -0.006
H  H21  1  0.95008671  0.70011133  0.74996707  1  0.116489  0.003727  0.139894  0.233278  -0.004606  0.941231  -0.006
H  H22  1  0.29987878  0.74992965  0.54984197  1  0.116254  0.003834  0.139764  0.233238  -0.004572  0.941176  -0.006
H  H23  1  0.20012530  0.24996582  0.95004961  1  0.116125  0.0037  0.139789  0.233257  -0.004577  0.941149  -0.006
H  H24  1  0.75000104  0.45011421  0.20010992  1  0.116542  0.003734  0.139984  0.233355  -0.004604  0.941058  -0.006
H  H25  1  0.25000558  0.04990850  0.29991075  1  0.117379  -0.003797  0.139829  0.233126  0.004667  0.941166  0.006
C  C26  1  0.63082394  0.88081187  0.24999566  1  -1.245567  0.796513  -0.056804  -0.659322  0.79274  3.289566  0.415
C  C27  1  0.86917833  0.61917496  0.74998821  1  -1.235347  0.796497  -0.056733  -0.659276  0.792723  3.289502  0.415
C  C28  1  0.38080284  0.74992499  0.63077077  1  -1.244959  0.796473  -0.056659  -0.659314  0.792476  3.289665  0.415
C  C29  1  0.11919551  0.24996581  0.86911835  1  -1.272578  0.797069  -0.056593  -0.659403  0.792478  3.289727  0.415
C  C30  1  0.74999827  0.36917676  0.11917973  1  -1.235329  0.797208  -0.056854  -0.659419  0.793113  3.289472  0.415
C  C31  1  0.25000502  0.13084051  0.38084201  1  -1.246763  -0.794516  -0.056672  -0.658907  -0.78032  3.290375  -0.414
O  O32  1  0.83213578  0.14700202  0.41321648  1  -1.457  0.025135  -0.513161  -1.000783  0.024004  2.381154  0.021
O  O33  1  0.66786388  0.58107659  0.81486750  1  -1.453598  0.025054  -0.513161  -1.000723  0.023996  2.381304  0.021
O  O34  1  0.76618369  0.35297975  0.68511873  1  -1.45818  0.024811  -0.512857  -1.00058  0.023684  2.380946  0.021
O  O35  1  0.73381158  0.91893693  0.08679709  1  -1.457005  0.024836  -0.513257  -1.000589  0.023686  2.380968  0.021
O  O36  1  0.41890510  0.58677180  0.73380497  1  -1.457142  0.024661  -0.513387  -1.000712  0.023612  2.381246  0.021
O  O37  1  0.85300329  0.18512927  0.76620107  1  -1.458503  0.02481  -0.512835  -1.000746  0.023348  2.381214  0.021
O  O38  1  0.08110147  0.31490090  0.66786658  1  -1.453909  0.02464  -0.513186  -1.000768  0.023624  2.381109  0.021
O  O39  1  0.64699496  0.91319863  0.83212758  1  -1.457109  0.024876  -0.513079  -1.000761  0.02335  2.381312  0.021
O  O40  1  0.68512205  0.26620205  0.85299298  1  -1.458438  0.024937  -0.512832  -1.000641  0.023731  2.381257  0.021
O  O41  1  0.08677746  0.23380049  0.41894005  1  -1.456836  -0.02484  -0.513344  -1.000593  -0.024433  2.381483  -0.021
O  O42  1  0.41321807  0.33216435  0.64702822  1  -1.456977  -0.024876  -0.513147  -1.000563  -0.024434  2.381583  -0.021
O  O43  1  0.81487354  0.16786748  0.08107653  1  -1.45388  0.024921  -0.513069  -1.000656  0.023723  2.381113  0.021
O  O44  1  0.60902739  0.08535529  0.20746237  1  -1.435244  0.060185  -0.479391  -0.862709  0.061127  2.137129  0.05
O  O45  1  0.89097752  0.59844507  0.97633193  1  -1.433704  0.060114  -0.479479  -0.862703  0.06113  2.137153  0.05
O  O46  1  0.62207174  0.41464521  0.52369580  1  -1.434013  0.054552  -0.479036  -0.862403  0.053803  2.137131  0.048
O  O47  1  0.87793514  0.90163166  0.29257547  1  -1.436731  0.054582  -0.479174  -0.86238  0.053785  2.13715  0.048
O  O48  1  0.40156606  0.79255083  0.87788745  1  -1.437454  0.060208  -0.479443  -0.862681  0.061255  2.137171  0.05
O  O49  1  0.91457714  0.02363201  0.62204663  1  -1.43431  0.060101  -0.479244  -0.862754  0.061454  2.137113  0.05
O  O50  1  0.09841605  0.47631555  0.89097766  1  -1.433518  0.060182  -0.479574  -0.862732  0.061248  2.137053  0.05
O  O51  1  0.58543154  0.70747560  0.60906996  1  -1.43485  0.06021  -0.479359  -0.862663  0.061452  2.137153  0.05
O  O52  1  0.52367525  0.12207048  0.91463505  1  -1.434102  0.060226  -0.479176  -0.862559  0.061418  2.137187  0.05
O  O53  1  0.29253240  0.37791404  0.40159561  1  -1.437275  -0.054208  -0.479256  -0.86259  -0.052936  2.137396  -0.047
O  O54  1  0.20746561  0.10905635  0.58537931  1  -1.435137  -0.054234  -0.479302  -0.862632  -0.052926  2.137415  -0.047
O  O55  1  0.97632349  0.39095924  0.09839988  1  -1.433524  0.060279  -0.479483  -0.86263  0.061432  2.137156  0.051
O  O56  1  0.60282350  0.07716872  0.42094267  1  -1.445075  0.011842  -0.489921  -0.870736  0.008881  2.212192  0.01
O  O57  1  0.89717267  0.81811766  0.97433810  1  -1.44148  0.011833  -0.48984  -0.8707  0.008883  2.212331  0.01
O  O58  1  0.84372535  0.42280713  0.52563654  1  -1.44589  0.011623  -0.489922  -0.87078  0.009036  2.212622  0.009
O  O59  1  0.65627570  0.68191352  0.07908133  1  -1.447108  0.011629  -0.490055  -0.87077  0.009039  2.212632  0.009
O  O60  1  0.18187613  0.57906261  0.65624088  1  -1.447213  0.012476  -0.489981  -0.870783  0.009757  2.212468  0.01
O  O61  1  0.92286437  0.02567459  0.84375796  1  -1.445276  0.012373  -0.489885  -0.870825  0.009611  2.212359  0.01
O  O62  1  0.31812005  0.47437623  0.89719062  1  -1.441783  0.012451  -0.489996  -0.870876  0.009753  2.212436  0.01
O  O63  1  0.57713915  0.92089360  0.60280686  1  -1.444958  0.012365  -0.490012  -0.870771  0.009611  2.212184  0.01
O  O64  1  0.52564629  0.34374701  0.92282891  1  -1.445197  0.012341  -0.489797  -0.870738  0.010116  2.212335  0.01
O  O65  1  0.07904038  0.15622939  0.18190396  1  -1.447121  -0.010631  -0.490078  -0.870755  -0.008763  2.212411  -0.009
O  O66  1  0.42096057  0.10286448  0.57719015  1  -1.44546  -0.010621  -0.49009  -0.870721  -0.008764  2.212439  -0.009
O  O67  1  0.97435773  0.39718318  0.31809836  1  -1.441629  0.012317  -0.489892  -0.870743  0.010114  2.212428  0.01
