# generated using pymatgen
data_Hg2H12C12S(NCl2)2
_symmetry_space_group_name_H-M   'P 1'
_cell_length_a   8.97645606
_cell_length_b   12.43419053
_cell_length_c   15.64600000
_cell_angle_alpha   90.00000000
_cell_angle_beta   90.00000000
_cell_angle_gamma   90.00000000
_symmetry_Int_Tables_number   1
_chemical_formula_structural   Hg2H12C12S(NCl2)2
_chemical_formula_sum   'Hg8 H48 C48 S4 N8 Cl16'
_cell_volume   1746.32774058
_cell_formula_units_Z   4
loop_
 _symmetry_equiv_pos_site_id
 _symmetry_equiv_pos_as_xyz
  1  'x, y, z'
loop_
 _atom_site_type_symbol
 _atom_site_label
 _atom_site_symmetry_multiplicity
 _atom_site_fract_x
 _atom_site_fract_y
 _atom_site_fract_z
 _atom_site_occupancy
 _atom_site_hle17_bader_spin_density
 _atom_site_hle17_ddec_charge
 _atom_site_hle17_ddec_spin_density
 _atom_site_hle17_ddec_sum_bond_order
 _atom_site_hle17_magmom
 _atom_site_hse06_10hf_bader_spin_density
 _atom_site_hse06_10hf_ddec_charge
 _atom_site_hse06_10hf_ddec_spin_density
 _atom_site_hse06_10hf_ddec_sum_bond_order
 _atom_site_hse06_10hf_magmom
 _atom_site_hse06_bader_spin_density
 _atom_site_hse06_ddec_charge
 _atom_site_hse06_ddec_spin_density
 _atom_site_hse06_ddec_sum_bond_order
 _atom_site_hse06_magmom
 _atom_site_pbe_bader_charge
 _atom_site_pbe_bader_spin_density
 _atom_site_pbe_cm5_charge
 _atom_site_pbe_ddec_charge
 _atom_site_pbe_ddec_spin_density
 _atom_site_pbe_ddec_sum_bond_order
 _atom_site_pbe_magmom
Hg  Hg0  1  0.81654162  0.19511121  0.71468426  1  0  0.700912  0  2.180706  0  0  0.553437  0  2.686022  0  0  0.600716  0  2.654193  0  0.806924  0  0.478657  0.521189  0  2.707007  0
Hg  Hg1  1  0.31654140  0.80488874  0.28531574  1  0  0.700895  0  2.180711  0  0  0.553412  0  2.686031  0  0  0.600692  0  2.654202  0  0.806842  0  0.478653  0.521165  0  2.707016  0
Hg  Hg2  1  0.81654162  0.30488917  0.21468426  1  0  0.700912  0  2.180724  0  0  0.553439  0  2.686046  0  0  0.600718  0  2.654216  0  0.806918  0  0.478662  0.521191  0  2.70703  0
Hg  Hg3  1  0.31654140  0.69511079  0.78531574  1  0  0.700909  0  2.180697  0  0  0.553429  0  2.686016  0  0  0.600708  0  2.654188  0  0.806926  0  0.47866  0.521182  0  2.707001  0
Hg  Hg4  1  0.18400580  0.35767427  0.71680366  1  0  0.697442  0  2.166742  0  0  0.550089  0  2.65696  0  0  0.597616  0  2.62528  0  0.82281  0  0.499985  0.51751  0  2.678079  0
Hg  Hg5  1  0.68400602  0.64232569  0.28319634  1  0  0.697422  0  2.166743  0  0  0.550076  0  2.656954  0  0  0.597604  0  2.625274  0  0.822761  0  0.499992  0.517495  0  2.678077  0
Hg  Hg6  1  0.18400580  0.14232611  0.21680366  1  0  0.697417  0  2.166766  0  0  0.550065  0  2.656982  0  0  0.597594  0  2.625303  0  0.822795  0  0.499984  0.517484  0  2.678105  0
Hg  Hg7  1  0.68400491  0.85767384  0.78319570  1  0  0.697453  0  2.166712  0  0  0.550099  0  2.656925  0  0  0.597627  0  2.625247  0  0.822748  0  0.499994  0.517519  0  2.678046  0
H  H8  1  0.96696067  0.15148232  0.53894606  1  0  0.077529  0  0.958573  0  0  0.083269  0  1.029588  0  0  0.085678  0  1.027378  0  0.108425  0  0.103192  0.081477  0  1.031201  0
H  H9  1  0.46696045  0.84851925  0.46105458  1  0  0.077549  0  0.958602  0  0  0.083317  0  1.029609  0  0  0.085733  0  1.027398  0  0.108407  0  0.103214  0.081526  0  1.031222  0
H  H10  1  0.96696179  0.34851726  0.03894606  1  0  0.077516  0  0.958576  0  0  0.083256  0  1.029587  0  0  0.085666  0  1.027377  0  0.108401  0  0.103187  0.081465  0  1.031199  0
H  H11  1  0.46696045  0.65148029  0.96105458  1  0  0.077545  0  0.958601  0  0  0.083318  0  1.029599  0  0  0.085735  0  1.027388  0  0.108408  0  0.103219  0.081527  0  1.031212  0
H  H12  1  0.90903692  0.10978841  0.38566535  1  0  0.102172  0  0.991168  0  0  0.107014  0  1.062317  0  0  0.109853  0  1.062099  0  0.110925  0  0.089289  0.104926  0  1.06273  0
H  H13  1  0.40903670  0.89021476  0.61433465  1  0  0.102169  0  0.991199  0  0  0.107006  0  1.062351  0  0  0.109845  0  1.062132  0  0.110932  0  0.089291  0.104918  0  1.062763  0
H  H14  1  0.90903692  0.39021197  0.88566535  1  0  0.10219  0  0.991189  0  0  0.107034  0  1.062334  0  0  0.109873  0  1.062115  0  0.110923  0  0.089293  0.104946  0  1.062747  0
H  H15  1  0.40903670  0.60978477  0.11433465  1  0  0.102167  0  0.991201  0  0  0.107003  0  1.062355  0  0  0.109843  0  1.062136  0  0.110925  0  0.08929  0.104916  0  1.062767  0
H  H16  1  0.64077070  0.08593241  0.34319570  1  0  0.096069  0  0.950393  0  0  0.10397  0  1.01608  0  0  0.106474  0  1.014045  0  0.125237  0  0.09554  0.102071  0  1.017622  0
H  H17  1  0.14076936  0.91406915  0.65680430  1  0  0.09606  0  0.950421  0  0  0.103964  0  1.016097  0  0  0.106468  0  1.014062  0  0.125223  0  0.095541  0.102065  0  1.017639  0
H  H18  1  0.64077070  0.41406958  0.84319570  1  0  0.096064  0  0.950433  0  0  0.10397  0  1.016108  0  0  0.106474  0  1.014073  0  0.125251  0  0.095544  0.102072  0  1.01765  0
H  H19  1  0.14076936  0.58593038  0.15680430  1  0  0.096073  0  0.950407  0  0  0.103964  0  1.016097  0  0  0.106467  0  1.014062  0  0.125224  0  0.095539  0.102064  0  1.017639  0
H  H20  1  0.44308578  0.10860860  0.45424134  1  0  0.1117  0  0.983501  0  0  0.119502  0  1.048389  0  0  0.122743  0  1.04779  0  0.125345  0  0.092619  0.117184  0  1.04899  0
H  H21  1  0.94308488  0.89139136  0.54575866  1  0  0.111704  0  0.983479  0  0  0.119507  0  1.048367  0  0  0.122748  0  1.047769  0  0.125322  0  0.092628  0.117189  0  1.048965  0
H  H22  1  0.44308578  0.39139098  0.95424070  1  0  0.111676  0  0.983497  0  0  0.119473  0  1.04839  0  0  0.122713  0  1.047792  0  0.125348  0  0.09262  0.117153  0  1.048992  0
H  H23  1  0.94308488  0.60860898  0.04575866  1  0  0.111705  0  0.98348  0  0  0.119503  0  1.048369  0  0  0.122744  0  1.047771  0  0.125323  0  0.092628  0.117185  0  1.048968  0
H  H24  1  0.49493475  0.08113757  0.66837594  1  0  0.128771  0  0.923894  0  0  0.14248  0  0.988393  0  0  0.143754  0  0.987757  0  0.109823  0  0.102578  0.141531  0  0.988973  0
H  H25  1  0.99493385  0.91886319  0.33162406  1  0  0.128773  0  0.923899  0  0  0.142464  0  0.988396  0  0  0.143745  0  0.987763  0  0.109807  0  0.102572  0.141516  0  0.988976  0
H  H26  1  0.49493475  0.41886120  0.16837594  1  0  0.128778  0  0.923888  0  0  0.142486  0  0.988381  0  0  0.143761  0  0.987746  0  0.109826  0  0.102576  0.141537  0  0.988961  0
H  H27  1  0.99493385  0.58113715  0.83162406  1  0  0.128791  0  0.923891  0  0  0.142475  0  0.988385  0  0  0.14376  0  0.987754  0  0.109811  0  0.102577  0.141526  0  0.988964  0
H  H28  1  0.37213684  0.14532349  0.59585773  1  0  0.122879  0  0.933429  0  0  0.135394  0  0.994348  0  0  0.137369  0  0.993877  0  0.106547  0  0.099186  0.134029  0  0.994719  0
H  H29  1  0.87213595  0.85467727  0.40414227  1  0  0.122868  0  0.933456  0  0  0.13537  0  0.99437  0  0  0.137351  0  0.993903  0  0.106535  0  0.099176  0.134005  0  0.994741  0
H  H30  1  0.37213684  0.35467608  0.09585773  1  0  0.122885  0  0.933427  0  0  0.135394  0  0.994352  0  0  0.137371  0  0.99388  0  0.106555  0  0.099188  0.134029  0  0.994722  0
H  H31  1  0.87213595  0.64532227  0.90414227  1  0  0.12287  0  0.933448  0  0  0.13537  0  0.994355  0  0  0.137354  0  0.99389  0  0.106535  0  0.09919  0.134006  0  0.994725  0
H  H32  1  0.00705958  0.36018991  0.55004985  1  0  0.080612  0  0.962345  0  0  0.087041  0  1.033066  0  0  0.089249  0  1.031002  0  0.121296  0  0.104159  0.085367  0  1.034572  0
H  H33  1  0.50705980  0.63981004  0.44994887  1  0  0.080572  0  0.962308  0  0  0.086994  0  1.033037  0  0  0.089201  0  1.030973  0  0.121334  0  0.104139  0.085323  0  1.034544  0
H  H34  1  0.00705958  0.13980966  0.05005049  1  0  0.080602  0  0.962358  0  0  0.087034  0  1.033074  0  0  0.089242  0  1.031011  0  0.121327  0  0.104154  0.085361  0  1.03458  0
H  H35  1  0.50705980  0.86019029  0.94994951  1  0  0.080606  0  0.962366  0  0  0.087036  0  1.033082  0  0  0.089244  0  1.031018  0  0.12133  0  0.10415  0.085363  0  1.034587  0
H  H36  1  0.04564051  0.36226162  0.39085517  1  0  0.104927  0  0.978959  0  0  0.110534  0  1.048488  0  0  0.1133  0  1.048189  0  0.112147  0  0.09336  0.108503  0  1.04891  0
H  H37  1  0.54563850  0.63773834  0.60914355  1  0  0.104937  0  0.978942  0  0  0.110528  0  1.048499  0  0  0.113294  0  1.048201  0  0.112123  0  0.093347  0.108498  0  1.048922  0
H  H38  1  0.04564051  0.13773876  0.89085581  1  0  0.104923  0  0.97895  0  0  0.1105  0  1.048523  0  0  0.113267  0  1.048224  0  0.112143  0  0.093328  0.108467  0  1.048948  0
H  H39  1  0.54563961  0.86226120  0.10914419  1  0  0.104962  0  0.978905  0  0  0.11054  0  1.04847  0  0  0.113307  0  1.048171  0  0.11213  0  0.093354  0.108508  0  1.048894  0
H  H40  1  0.30716242  0.37297723  0.33491563  1  0  0.097949  0  0.952715  0  0  0.105676  0  1.018502  0  0  0.107993  0  1.016519  0  0.150669  0  0.094984  0.103904  0  1.020017  0
H  H41  1  0.80715930  0.62702272  0.66508501  1  0  0.097949  0  0.95273  0  0  0.105668  0  1.018521  0  0  0.107984  0  1.016538  0  0.150648  0  0.094985  0.103896  0  1.020036  0
H  H42  1  0.30716131  0.12702234  0.83491563  1  0  0.097959  0  0.952748  0  0  0.105683  0  1.01853  0  0  0.107999  0  1.016546  0  0.15066  0  0.094979  0.10391  0  1.020045  0
H  H43  1  0.80716153  0.87297762  0.16508437  1  0  0.097972  0  0.952709  0  0  0.105697  0  1.018493  0  0  0.108014  0  1.016511  0  0.15068  0  0.094993  0.103924  0  1.020009  0
H  H44  1  0.51903669  0.37709411  0.43890387  1  0  0.115801  0  0.981528  0  0  0.124074  0  1.046513  0  0  0.127368  0  1.045746  0  0.09593  0  0.092637  0.12166  0  1.047268  0
H  H45  1  0.01903647  0.62290665  0.56109741  1  0  0.115748  0  0.981588  0  0  0.124032  0  1.046563  0  0  0.127331  0  1.045792  0  0.095934  0  0.092626  0.121619  0  1.047319  0
H  H46  1  0.51903669  0.12290547  0.93890387  1  0  0.115783  0  0.981531  0  0  0.12407  0  1.046503  0  0  0.127366  0  1.045737  0  0.095939  0  0.092647  0.121655  0  1.047261  0
H  H47  1  0.01903647  0.87709369  0.06109613  1  0  0.11578  0  0.981546  0  0  0.124074  0  1.04651  0  0  0.12735  0  1.045766  0  0.095942  0  0.092642  0.121659  0  1.047266  0
H  H48  1  0.49190571  0.44870874  0.65142465  1  0  0.127232  0  0.930088  0  0  0.142286  0  0.99241  0  0  0.143503  0  0.991751  0  0.1305  0  0.103153  0.141318  0  0.993055  0
H  H49  1  0.99190482  0.55129202  0.34857535  1  0  0.127247  0  0.930074  0  0  0.142299  0  0.992394  0  0  0.143517  0  0.991735  0  0.130498  0  0.103161  0.141332  0  0.993039  0
H  H50  1  0.49190571  0.05129083  0.15142528  1  0  0.12723  0  0.93009  0  0  0.142287  0  0.992412  0  0  0.143504  0  0.991754  0  0.13049  0  0.103146  0.14132  0  0.993057  0
H  H51  1  0.99190593  0.94870832  0.84857472  1  0  0.127228  0  0.930088  0  0  0.14228  0  0.992408  0  0  0.143497  0  0.99175  0  0.130485  0  0.103155  0.141312  0  0.993053  0
H  H52  1  0.60760282  0.37535294  0.58014509  1  0  0.124137  0  0.926756  0  0  0.136024  0  0.987735  0  0  0.137916  0  0.987335  0  0.131857  0  0.101904  0.134692  0  0.988039  0
H  H53  1  0.10760371  0.62464702  0.41985491  1  0  0.124131  0  0.926752  0  0  0.136016  0  0.987736  0  0  0.137908  0  0.987336  0  0.131851  0  0.101899  0.134685  0  0.988039  0
H  H54  1  0.60760282  0.12464663  0.08014509  1  0  0.124146  0  0.926755  0  0  0.136034  0  0.987739  0  0  0.137926  0  0.987338  0  0.131857  0  0.101903  0.134703  0  0.988042  0
H  H55  1  0.10760260  0.87535332  0.91985491  1  0  0.124152  0  0.926734  0  0  0.136037  0  0.987713  0  0  0.13793  0  0.987313  0  0.131867  0  0.101916  0.134706  0  0.988015  0
C  C56  1  0.85250014  0.14230038  0.51656270  1  0  0.131123  0  3.693769  0  0  0.098546  0  3.943825  0  0  0.106533  0  3.96261  0  0.413671  0  0.042372  0.093477  0  3.930968  0
C  C57  1  0.35249992  0.85770199  0.48343730  1  0  0.131055  0  3.693752  0  0  0.098425  0  3.943814  0  0  0.106402  0  3.962608  0  0.413336  0  0.042321  0.093356  0  3.930955  0
C  C58  1  0.85250014  0.35770000  0.01656270  1  0  0.13115  0  3.69377  0  0  0.098582  0  3.94383  0  0  0.106569  0  3.962616  0  0.413699  0  0.042381  0.093512  0  3.930972  0
C  C59  1  0.35249992  0.64229754  0.98343730  1  0  0.131058  0  3.693749  0  0  0.098425  0  3.943822  0  0  0.106401  0  3.962619  0  0.413336  0  0.042318  0.093356  0  3.930964  0
C  C60  1  0.81930663  0.11777606  0.43200690  1  0  -0.115  0  3.725752  0  0  -0.127085  0  3.974312  0  0  -0.135265  0  3.996771  0  0.073989  0  -0.088287  -0.121857  0  3.959277  0
C  C61  1  0.31930530  0.88222792  0.56799374  1  0  -0.114923  0  3.725833  0  0  -0.126987  0  3.974377  0  0  -0.135168  0  3.996839  0  0.073952  0  -0.088248  -0.121761  0  3.95934  0
C  C62  1  0.81930663  0.38222593  0.93200690  1  0  -0.115011  0  3.725771  0  0  -0.127096  0  3.974326  0  0  -0.135276  0  3.996785  0  0.073989  0  -0.088277  -0.121868  0  3.959291  0
C  C63  1  0.31930530  0.61777162  0.06799374  1  0  -0.114917  0  3.72585  0  0  -0.126985  0  3.9744  0  0  -0.135165  0  3.996863  0  0.073951  0  -0.088243  -0.121758  0  3.959362  0
C  C64  1  0.67047618  0.10550104  0.40884955  1  0  0.021419  0  3.705977  0  0  0.001764  0  3.956379  0  0  0.006435  0  3.974054  0  -0.047297  0  -0.064606  -0.00101  0  3.944324  0
C  C65  1  0.17047485  0.89450133  0.59115045  1  0  0.021283  0  3.706169  0  0  0.00163  0  3.956585  0  0  0.006301  0  3.974259  0  -0.047329  0  -0.064673  -0.001143  0  3.94453  0
C  C66  1  0.67047618  0.39450176  0.90884955  1  0  0.021274  0  3.706109  0  0  0.001607  0  3.95653  0  0  0.006277  0  3.974206  0  -0.047333  0  -0.064694  -0.001166  0  3.944475  0
C  C67  1  0.17047485  0.60549820  0.09115045  1  0  0.021261  0  3.706187  0  0  0.001614  0  3.956603  0  0  0.006285  0  3.974277  0  -0.047359  0  -0.064689  -0.001159  0  3.944547  0
C  C68  1  0.56035366  0.11774631  0.47085709  1  0  -0.155167  0  3.67936  0  0  -0.170529  0  3.921819  0  0  -0.179181  0  3.943891  0  -0.024994  0  -0.084095  -0.164906  0  3.906963  0
C  C69  1  0.06035344  0.88225446  0.52914355  1  0  -0.155037  0  3.679295  0  0  -0.170398  0  3.921749  0  0  -0.179048  0  3.943819  0  -0.024992  0  -0.084031  -0.164775  0  3.906893  0
C  C70  1  0.56035477  0.38225488  0.97085709  1  0  -0.155017  0  3.679294  0  0  -0.170342  0  3.92173  0  0  -0.178993  0  3.943802  0  -0.024986  0  -0.084033  -0.164719  0  3.906873  0
C  C71  1  0.06035344  0.61774588  0.02914355  1  0  -0.155038  0  3.679309  0  0  -0.170383  0  3.92175  0  0  -0.179033  0  3.943818  0  -0.02496  0  -0.084022  -0.16476  0  3.906894  0
C  C72  1  0.60101447  0.14178969  0.55482551  1  0  0.261537  0  3.731512  0  0  0.260613  0  3.975881  0  0  0.269178  0  3.997911  0  0.486572  0  0.112595  0.255032  0  3.960823  0
C  C73  1  0.10101425  0.85821188  0.44517449  1  0  0.261519  0  3.731693  0  0  0.260565  0  3.976057  0  0  0.269139  0  3.998094  0  0.486587  0  0.112566  0.254984  0  3.960999  0
C  C74  1  0.60101447  0.35821069  0.05482551  1  0  0.261575  0  3.731433  0  0  0.260598  0  3.975866  0  0  0.269165  0  3.997902  0  0.486572  0  0.112605  0.255018  0  3.960808  0
C  C75  1  0.10101425  0.64178846  0.94517449  1  0  0.261531  0  3.731688  0  0  0.26056  0  3.976051  0  0  0.269142  0  3.99809  0  0.486586  0  0.112565  0.25498  0  3.960992  0
C  C76  1  0.48419666  0.14919427  0.62363863  1  0  -0.23633  0  3.650326  0  0  -0.277486  0  3.903407  0  0  -0.277975  0  3.913117  0  -0.143643  0  -0.149564  -0.277179  0  3.896747  0
C  C77  1  0.98419576  0.85080729  0.37636137  1  0  -0.236348  0  3.650385  0  0  -0.277446  0  3.903413  0  0  -0.27797  0  3.913171  0  -0.143522  0  -0.149544  -0.277138  0  3.896752  0
C  C78  1  0.48419777  0.35080530  0.12363863  1  0  -0.236403  0  3.650367  0  0  -0.277525  0  3.90343  0  0  -0.278027  0  3.913157  0  -0.143639  0  -0.149589  -0.277217  0  3.896769  0
C  C79  1  0.98419576  0.64919304  0.87636137  1  0  -0.236384  0  3.650402  0  0  -0.277458  0  3.903415  0  0  -0.278006  0  3.913204  0  -0.143531  0  -0.14956  -0.277151  0  3.896755  0
C  C80  1  0.11804547  0.36291305  0.52171034  1  0  0.128036  0  3.680485  0  0  0.093052  0  3.928621  0  0  0.101329  0  3.947785  0  0.408934  0  0.042598  0.087758  0  3.915617  0
C  C81  1  0.61804569  0.63708691  0.47828902  1  0  0.128026  0  3.680451  0  0  0.093056  0  3.928594  0  0  0.101333  0  3.947759  0  0.4089  0  0.042583  0.087759  0  3.91559  0
C  C82  1  0.11804436  0.13708653  0.02171098  1  0  0.12802  0  3.680421  0  0  0.093042  0  3.928557  0  0  0.101319  0  3.947721  0  0.408887  0  0.042618  0.087748  0  3.915551  0
C  C83  1  0.61804458  0.86291263  0.97828902  1  0  0.12798  0  3.680441  0  0  0.092994  0  3.928569  0  0  0.10127  0  3.947733  0  0.408878  0  0.042588  0.087699  0  3.915564  0
C  C84  1  0.14081949  0.36550027  0.43396651  1  0  -0.109567  0  3.718266  0  0  -0.121099  0  3.96709  0  0  -0.129213  0  3.989033  0  0.086594  0  -0.083784  -0.115969  0  3.952486  0
C  C85  1  0.64081860  0.63450049  0.56603349  1  0  -0.109622  0  3.7183  0  0  -0.121154  0  3.967102  0  0  -0.129268  0  3.989044  0  0.08664  0  -0.083801  -0.116024  0  3.9525  0
C  C86  1  0.14081838  0.13450011  0.93396651  1  0  -0.109546  0  3.718228  0  0  -0.121061  0  3.96703  0  0  -0.129174  0  3.988971  0  0.086586  0  -0.083766  -0.115928  0  3.95243  0
C  C87  1  0.64081860  0.86549985  0.06603285  1  0  -0.109602  0  3.718235  0  0  -0.121115  0  3.967045  0  0  -0.129229  0  3.988987  0  0.086609  0  -0.083791  -0.115983  0  3.952444  0
C  C88  1  0.28641704  0.37082269  0.40343474  1  0  0.030068  0  3.702826  0  0  0.009391  0  3.954332  0  0  0.015237  0  3.970666  0  -0.089042  0  -0.062389  0.005771  0  3.943262  0
C  C89  1  0.78641503  0.62917807  0.59656590  1  0  0.030022  0  3.702901  0  0  0.009371  0  3.954381  0  0  0.015221  0  3.97071  0  -0.089095  0  -0.0624  0.005751  0  3.943312  0
C  C90  1  0.28641593  0.12917688  0.90343474  1  0  0.029967  0  3.703004  0  0  0.009306  0  3.954499  0  0  0.015154  0  3.970832  0  -0.08904  0  -0.062422  0.005685  0  3.943429  0
C  C91  1  0.78641615  0.87082307  0.09656462  1  0  0.030026  0  3.70292  0  0  0.009362  0  3.954413  0  0  0.015208  0  3.970744  0  -0.089024  0  -0.062399  0.005741  0  3.943343  0
C  C92  1  0.40416730  0.37320966  0.46142720  1  0  -0.153257  0  3.675193  0  0  -0.170987  0  3.917808  0  0  -0.179898  0  3.939577  0  0.040267  0  -0.082619  -0.165244  0  3.903318  0
C  C93  1  0.90416640  0.62679030  0.53857408  1  0  -0.153119  0  3.675194  0  0  -0.170867  0  3.917793  0  0  -0.179781  0  3.93956  0  0.040279  0  -0.082576  -0.165124  0  3.903303  0
C  C94  1  0.40416619  0.12678992  0.96142720  1  0  -0.153196  0  3.675211  0  0  -0.170952  0  3.917816  0  0  -0.179864  0  3.939586  0  0.040282  0  -0.082612  -0.165207  0  3.903324  0
C  C95  1  0.90416640  0.87320923  0.03857216  1  0  -0.153217  0  3.675278  0  0  -0.17097  0  3.917884  0  0  -0.179866  0  3.939667  0  0.040283  0  -0.082606  -0.165226  0  3.903394  0
C  C96  1  0.37474143  0.37000720  0.54894861  1  0  0.258575  0  3.716485  0  0  0.260616  0  3.95366  0  0  0.269258  0  3.976104  0  0.449953  0  0.114551  0.254937  0  3.938371  0
C  C97  1  0.87474054  0.62999356  0.45105203  1  0  0.258554  0  3.716366  0  0  0.260599  0  3.953557  0  0  0.269241  0  3.976004  0  0.449969  0  0.114604  0.25492  0  3.938268  0
C  C98  1  0.37474032  0.12999238  0.04894861  1  0  0.258585  0  3.716445  0  0  0.260637  0  3.953625  0  0  0.269279  0  3.97607  0  0.44995  0  0.1146  0.254958  0  3.938336  0
C  C99  1  0.87474054  0.87000677  0.95105075  1  0  0.258561  0  3.716548  0  0  0.260595  0  3.953728  0  0  0.269239  0  3.976169  0  0.44995  0  0.114579  0.254915  0  3.938439  0
C  C100  1  0.49966601  0.37471921  0.61293366  1  0  -0.240461  0  3.658923  0  0  -0.282715  0  3.911217  0  0  -0.283064  0  3.920678  0  -0.163049  0  -0.150888  -0.28239  0  3.904583  0
C  C101  1  0.99966623  0.62528156  0.38706634  1  0  -0.240447  0  3.658879  0  0  -0.282712  0  3.911208  0  0  -0.283063  0  3.920673  0  -0.163027  0  -0.150877  -0.282387  0  3.904574  0
C  C102  1  0.49966601  0.12528037  0.11293366  1  0  -0.240516  0  3.658945  0  0  -0.282769  0  3.911218  0  0  -0.283118  0  3.92068  0  -0.163041  0  -0.150899  -0.282445  0  3.904586  0
C  C103  1  0.99966512  0.87471878  0.88706570  1  0  -0.240436  0  3.658884  0  0  -0.282679  0  3.911165  0  0  -0.283029  0  3.920627  0  -0.163023  0  -0.150875  -0.282352  0  3.904528  0
S  S104  1  0.49764963  0.26709982  0.69186310  1  0  0.050177  0  2.484361  0  0  0.075127  0  2.847793  0  0  0.066307  0  2.845616  0  0.050914  0  0.017206  0.081516  0  2.849126  0
S  S105  1  0.99764873  0.73290014  0.30813818  1  0  0.050192  0  2.484383  0  0  0.075124  0  2.847805  0  0  0.066317  0  2.845643  0  0.050824  0  0.017201  0.081515  0  2.849137  0
S  S106  1  0.49764963  0.23289976  0.19186310  1  0  0.050222  0  2.484372  0  0  0.075163  0  2.847807  0  0  0.066349  0  2.845633  0  0.050912  0  0.017221  0.081554  0  2.84914  0
S  S107  1  0.99764985  0.76709859  0.80813754  1  0  0.050169  0  2.484349  0  0  0.075081  0  2.847762  0  0  0.06628  0  2.845608  0  0.050809  0  0.017178  0.08147  0  2.849094  0
N  N108  1  0.74553364  0.15471373  0.57589352  1  0  -0.328273  0  3.306255  0  0  -0.243713  0  3.558129  0  0  -0.267002  0  3.581769  0  -1.217665  0  -0.309799  -0.228115  0  3.541775  0
N  N109  1  0.24553343  0.84528703  0.42410648  1  0  -0.32825  0  3.306267  0  0  -0.243657  0  3.558125  0  0  -0.266945  0  3.581767  0  -1.217231  0  -0.309786  -0.228058  0  3.541769  0
N  N110  1  0.74553476  0.34528585  0.07589352  1  0  -0.328274  0  3.306218  0  0  -0.243717  0  3.558124  0  0  -0.267006  0  3.581764  0  -1.217663  0  -0.309796  -0.228119  0  3.541769  0
N  N111  1  0.24553343  0.65471250  0.92410648  1  0  -0.328251  0  3.306264  0  0  -0.243653  0  3.558122  0  0  -0.266942  0  3.581762  0  -1.21723  0  -0.309785  -0.228055  0  3.541766  0
N  N112  1  0.23269428  0.36437273  0.57714048  1  0  -0.305383  0  3.336463  0  0  -0.21187  0  3.57542  0  0  -0.236372  0  3.600698  0  -1.21261  0  -0.307313  -0.1956  0  3.558108  0
N  N113  1  0.73269450  0.63562642  0.42285952  1  0  -0.305304  0  3.336356  0  0  -0.211801  0  3.57532  0  0  -0.236301  0  3.600595  0  -1.21262  0  -0.307332  -0.195528  0  3.558003  0
N  N114  1  0.23269428  0.13562604  0.07714048  1  0  -0.305292  0  3.336426  0  0  -0.211799  0  3.575396  0  0  -0.2363  0  3.600674  0  -1.212611  0  -0.307319  -0.195529  0  3.558083  0
N  N115  1  0.73269450  0.86437311  0.92285888  1  0  -0.305307  0  3.336388  0  0  -0.211785  0  3.575335  0  0  -0.236285  0  3.600613  0  -1.212627  0  -0.307326  -0.195515  0  3.558025  0
Cl  Cl116  1  0.87971578  0.39929499  0.70076761  1  0  -0.492119  0  1.012979  0  0  -0.432689  0  1.300096  0  0  -0.452711  0  1.28244  0  -0.556215  0  -0.275019  -0.418476  0  1.311827  0
Cl  Cl117  1  0.37971556  0.60070416  0.29923175  1  0  -0.492113  0  1.012968  0  0  -0.432682  0  1.300074  0  0  -0.452703  0  1.282418  0  -0.556113  0  -0.275023  -0.418472  0  1.311814  0
Cl  Cl118  1  0.87971578  0.10070459  0.20076825  1  0  -0.492114  0  1.012976  0  0  -0.432687  0  1.300095  0  0  -0.452709  0  1.282439  0  -0.556198  0  -0.275021  -0.418474  0  1.311826  0
Cl  Cl119  1  0.37971556  0.89929537  0.79923175  1  0  -0.492106  0  1.01296  0  0  -0.432679  0  1.300076  0  0  -0.452699  0  1.28242  0  -0.556198  0  -0.275016  -0.418466  0  1.31181  0
Cl  Cl120  1  0.75183903  0.10725427  0.84956027  1  0  -0.481809  0  1.016597  0  0  -0.426122  0  1.292949  0  0  -0.443692  0  1.277309  0  -0.539088  0  -0.278889  -0.413914  0  1.30355  0
Cl  Cl121  1  0.25183881  0.89274489  0.15043973  1  0  -0.481799  0  1.016614  0  0  -0.426121  0  1.292982  0  0  -0.443685  0  1.277333  0  -0.539077  0  -0.278883  -0.413913  0  1.303584  0
Cl  Cl122  1  0.75183903  0.39274531  0.34956027  1  0  -0.481815  0  1.016611  0  0  -0.426133  0  1.292971  0  0  -0.443701  0  1.277328  0  -0.53909  0  -0.278888  -0.413927  0  1.303574  0
Cl  Cl123  1  0.25183881  0.60725465  0.65043973  1  0  -0.4818  0  1.016612  0  0  -0.426121  0  1.292982  0  0  -0.443687  0  1.277335  0  -0.539082  0  -0.278884  -0.413915  0  1.303584  0
Cl  Cl124  1  0.10149885  0.14193123  0.69730730  1  0  -0.513485  0  0.970171  0  0  -0.458115  0  1.250699  0  0  -0.478102  0  1.23294  0  -0.579738  0  -0.293591  -0.443788  0  1.262479  0
Cl  Cl125  1  0.60149907  0.85806792  0.30269206  1  0  -0.513496  0  0.970192  0  0  -0.458126  0  1.250726  0  0  -0.478115  0  1.23297  0  -0.579742  0  -0.293594  -0.4438  0  1.26251  0
Cl  Cl126  1  0.10149885  0.35806834  0.19730730  1  0  -0.513492  0  0.970198  0  0  -0.458115  0  1.250719  0  0  -0.478103  0  1.232962  0  -0.579751  0  -0.293591  -0.443789  0  1.262502  0
Cl  Cl127  1  0.60149907  0.64193161  0.80269206  1  0  -0.513498  0  0.970188  0  0  -0.458129  0  1.250723  0  0  -0.478117  0  1.232967  0  -0.579736  0  -0.293597  -0.443803  0  1.262508  0
Cl  Cl128  1  0.20758415  0.40105707  0.86430398  1  0  -0.438218  0  1.051244  0  0  -0.377483  0  1.323585  0  0  -0.395328  0  1.310415  0  -0.495982  0  -0.249726  -0.365399  0  1.332538  0
Cl  Cl129  1  0.70758437  0.59894289  0.13569475  1  0  -0.438217  0  1.051233  0  0  -0.377481  0  1.323562  0  0  -0.395329  0  1.310399  0  -0.495947  0  -0.249734  -0.365398  0  1.332517  0
Cl  Cl130  1  0.20758415  0.09894251  0.36430461  1  0  -0.438215  0  1.05124  0  0  -0.377477  0  1.323574  0  0  -0.395327  0  1.310413  0  -0.495992  0  -0.249729  -0.365395  0  1.332528  0
Cl  Cl131  1  0.70758437  0.90105745  0.63569539  1  0  -0.438226  0  1.051247  0  0  -0.377488  0  1.323576  0  0  -0.395339  0  1.310417  0  -0.495947  0  -0.249732  -0.365406  0  1.332531  0
