# generated using pymatgen
data_Ag2H4C4O5
_symmetry_space_group_name_H-M   'P 1'
_cell_length_a   5.58144586
_cell_length_b   10.16086194
_cell_length_c   11.02580481
_cell_angle_alpha   91.98921321
_cell_angle_beta   90.00022499
_cell_angle_gamma   89.99938181
_symmetry_Int_Tables_number   1
_chemical_formula_structural   Ag2H4C4O5
_chemical_formula_sum   'Ag8 H16 C16 O20'
_cell_volume   624.92194165
_cell_formula_units_Z   4
loop_
 _symmetry_equiv_pos_site_id
 _symmetry_equiv_pos_as_xyz
  1  'x, y, z'
loop_
 _atom_site_type_symbol
 _atom_site_label
 _atom_site_symmetry_multiplicity
 _atom_site_fract_x
 _atom_site_fract_y
 _atom_site_fract_z
 _atom_site_occupancy
 _atom_site_hle17_bader_spin_density
 _atom_site_hle17_ddec_charge
 _atom_site_hle17_ddec_spin_density
 _atom_site_hle17_ddec_sum_bond_order
 _atom_site_hle17_magmom
 _atom_site_hse06_10hf_bader_spin_density
 _atom_site_hse06_10hf_ddec_charge
 _atom_site_hse06_10hf_ddec_spin_density
 _atom_site_hse06_10hf_ddec_sum_bond_order
 _atom_site_hse06_10hf_magmom
 _atom_site_hse06_bader_spin_density
 _atom_site_hse06_ddec_charge
 _atom_site_hse06_ddec_spin_density
 _atom_site_hse06_ddec_sum_bond_order
 _atom_site_hse06_magmom
 _atom_site_pbe_bader_spin_density
 _atom_site_pbe_cm5_charge
 _atom_site_pbe_ddec_charge
 _atom_site_pbe_ddec_spin_density
 _atom_site_pbe_ddec_sum_bond_order
 _atom_site_pbe_magmom
Ag  Ag0  1  0.49400382  0.05470507  0.87872692  1  0  0.647313  0  1.277981  0  0  0.521382  0  1.71119  0  0  0.559136  0  1.653369  0  0  0.430865  0.494737  0  1.751207  0
Ag  Ag1  1  0.99400060  0.94529152  0.62126750  1  0  0.647349  0  1.277919  0  0  0.521413  0  1.711093  0  0  0.559165  0  1.653278  0  0  0.430862  0.494772  0  1.7511  0
Ag  Ag2  1  0.50600149  0.94529493  0.12126925  1  0  0.647266  0  1.277988  0  0  0.521319  0  1.711203  0  0  0.55907  0  1.653387  0  0  0.430846  0.494674  0  1.751218  0
Ag  Ag3  1  0.00601188  0.05470849  0.37872777  1  0  0.647262  0  1.278029  0  0  0.521319  0  1.71125  0  0  0.559071  0  1.65343  0  0  0.430854  0.494676  0  1.751266  0
Ag  Ag4  1  0.70048849  0.57494593  0.02938834  1  0  0.590567  0  1.441977  0  0  0.475501  0  1.904124  0  0  0.51124  0  1.843049  0  0  0.419466  0.450569  0  1.946311  0
Ag  Ag5  1  0.20048861  0.42505343  0.47060711  1  0  0.59056  0  1.442054  0  0  0.475469  0  1.904244  0  0  0.511207  0  1.843168  0  0  0.419443  0.450531  0  1.946426  0
Ag  Ag6  1  0.29951861  0.42505302  0.97061505  1  0  0.590547  0  1.44215  0  0  0.475492  0  1.904352  0  0  0.511227  0  1.843279  0  0  0.419463  0.450563  0  1.946535  0
Ag  Ag7  1  0.79952208  0.57494561  0.52938631  1  0  0.590627  0  1.442043  0  0  0.475525  0  1.904237  0  0  0.511263  0  1.843163  0  0  0.419465  0.450592  0  1.946417  0
H  H8  1  0.51211286  0.66890161  0.82277669  1  0  0.070338  0  0.953392  0  0  0.07519  0  1.040183  0  0  0.07839  0  1.034822  0  0  0.09438  0.072823  0  1.044118  0
H  H9  1  0.01212516  0.33109178  0.67722477  1  0  0.070398  0  0.953356  0  0  0.075172  0  1.040168  0  0  0.078372  0  1.034798  0  0  0.094375  0.072811  0  1.044103  0
H  H10  1  0.48787454  0.33109831  0.17722855  1  0  0.07038  0  0.953387  0  0  0.075164  0  1.040237  0  0  0.078365  0  1.03488  0  0  0.094381  0.072802  0  1.044168  0
H  H11  1  0.98788015  0.66890325  0.32277665  1  0  0.070331  0  0.953542  0  0  0.075112  0  1.040298  0  0  0.07831  0  1.03494  0  0  0.094366  0.072751  0  1.044231  0
H  H12  1  0.55184296  0.77592938  0.69911502  1  0  0.122867  0  0.931327  0  0  0.131529  0  0.994556  0  0  0.13453  0  0.992546  0  0  0.116622  0.129387  0  0.996135  0
H  H13  1  0.05183863  0.22407554  0.80089242  1  0  0.122972  0  0.931219  0  0  0.131513  0  0.994517  0  0  0.13451  0  0.992503  0  0  0.116639  0.129376  0  0.996093  0
H  H14  1  0.44816056  0.22407743  0.30089050  1  0  0.122864  0  0.931351  0  0  0.131498  0  0.994583  0  0  0.134502  0  0.992574  0  0  0.116603  0.129358  0  0.996162  0
H  H15  1  0.94814160  0.77591552  0.19911247  1  0  0.122934  0  0.931293  0  0  0.131472  0  0.994584  0  0  0.134471  0  0.992578  0  0  0.116562  0.129335  0  0.996158  0
H  H16  1  0.22814474  0.78028828  0.99013325  1  0  0.066105  0  0.983331  0  0  0.072557  0  1.067634  0  0  0.074762  0  1.06395  0  0  0.094618  0.0709  0  1.070489  0
H  H17  1  0.72814978  0.21970282  0.50987492  1  0  0.066152  0  0.983346  0  0  0.072602  0  1.067675  0  0  0.074805  0  1.063979  0  0  0.094664  0.070945  0  1.070527  0
H  H18  1  0.77186415  0.21970183  0.00986798  1  0  0.066086  0  0.983395  0  0  0.072552  0  1.067714  0  0  0.074749  0  1.064021  0  0  0.094638  0.070896  0  1.070562  0
H  H19  1  0.27187345  0.78029619  0.49012121  1  0  0.066129  0  0.983332  0  0  0.07259  0  1.067641  0  0  0.074783  0  1.063947  0  0  0.094648  0.070913  0  1.070505  0
H  H20  1  0.07020062  0.67780270  0.88174336  1  0  0.091575  0  0.961862  0  0  0.102272  0  1.032109  0  0  0.104397  0  1.030002  0  0  0.10483  0.100624  0  1.033967  0
H  H21  1  0.57020085  0.32218639  0.61826077  1  0  0.091561  0  0.961688  0  0  0.102237  0  1.031997  0  0  0.10436  0  1.029875  0  0  0.104828  0.100588  0  1.033858  0
H  H22  1  0.92980111  0.32218938  0.11825704  1  0  0.09148  0  0.961752  0  0  0.102167  0  1.032082  0  0  0.104284  0  1.029965  0  0  0.104803  0.100518  0  1.033939  0
H  H23  1  0.42979730  0.67781272  0.38172539  1  0  0.091519  0  0.961694  0  0  0.102122  0  1.032146  0  0  0.104233  0  1.030037  0  0  0.104806  0.100473  0  1.034  0
C  C24  1  0.41704883  0.72752799  0.75496574  1  0  -0.075571  0  3.626716  0  0  -0.123662  0  3.872988  0  0  -0.123678  0  3.877168  0  0  -0.074443  -0.123611  0  3.870259  0
C  C25  1  0.91705460  0.27247877  0.74504163  1  0  -0.075713  0  3.627197  0  0  -0.123533  0  3.873123  0  0  -0.123572  0  3.877372  0  0  -0.074395  -0.123488  0  3.870422  0
C  C26  1  0.58294573  0.27247296  0.24503410  1  0  -0.075565  0  3.627008  0  0  -0.123554  0  3.873197  0  0  -0.123581  0  3.877407  0  0  -0.074374  -0.123509  0  3.870475  0
C  C27  1  0.08293279  0.72752604  0.25496653  1  0  -0.075717  0  3.627312  0  0  -0.123434  0  3.87312  0  0  -0.123427  0  3.877262  0  0  -0.074353  -0.123379  0  3.870396  0
C  C28  1  0.12668326  0.77963756  0.90424946  1  0  -0.08897  0  3.667349  0  0  -0.144625  0  3.92408  0  0  -0.143241  0  3.926481  0  0  -0.083941  -0.145571  0  3.922576  0
C  C29  1  0.62669431  0.22035313  0.59575939  1  0  -0.088953  0  3.667374  0  0  -0.144635  0  3.924156  0  0  -0.143206  0  3.926483  0  0  -0.084025  -0.145602  0  3.922715  0
C  C30  1  0.87330593  0.22035645  0.09575645  1  0  -0.088802  0  3.66725  0  0  -0.144542  0  3.92407  0  0  -0.143094  0  3.926386  0  0  -0.084014  -0.14551  0  3.922617  0
C  C31  1  0.37331458  0.77964688  0.40423588  1  0  -0.088828  0  3.667036  0  0  -0.144536  0  3.923848  0  0  -0.143081  0  3.926156  0  0  -0.083983  -0.145493  0  3.922432  0
C  C32  1  0.90088156  0.86041161  0.92442453  1  0  0.673411  0  3.856418  0  0  0.622905  0  4.140473  0  0  0.656932  0  4.138393  0  0  0.204292  0.599641  0  4.140958  0
C  C33  1  0.40091483  0.13958937  0.57557894  1  0  0.673057  0  3.856118  0  0  0.622595  0  4.140151  0  0  0.656613  0  4.138066  0  0  0.204174  0.599331  0  4.140633  0
C  C34  1  0.09911479  0.13958633  0.07558154  1  0  0.673201  0  3.856314  0  0  0.622754  0  4.140338  0  0  0.656761  0  4.138262  0  0  0.204315  0.599491  0  4.140815  0
C  C35  1  0.59911914  0.86042151  0.42441222  1  0  0.673164  0  3.856502  0  0  0.62281  0  4.140363  0  0  0.656813  0  4.138284  0  0  0.204245  0.599549  0  4.140835  0
C  C36  1  0.27016456  0.63556593  0.67177275  1  0  0.645893  0  3.88064  0  0  0.596212  0  4.165701  0  0  0.630121  0  4.163733  0  0  0.200839  0.57306  0  4.166333  0
C  C37  1  0.77019062  0.36443780  0.82822784  1  0  0.645497  0  3.880634  0  0  0.595829  0  4.165636  0  0  0.629737  0  4.163664  0  0  0.200668  0.572676  0  4.16627  0
C  C38  1  0.72983180  0.36444002  0.32821913  1  0  0.645871  0  3.88063  0  0  0.596098  0  4.165788  0  0  0.630007  0  4.163823  0  0  0.200731  0.572946  0  4.16642  0
C  C39  1  0.22982006  0.63557000  0.17177771  1  0  0.645517  0  3.880841  0  0  0.595734  0  4.165934  0  0  0.629636  0  4.163979  0  0  0.200581  0.572572  0  4.166574  0
O  O40  1  0.27491283  0.82845126  0.81087550  1  0  -0.26615  0  2.419393  0  0  -0.185575  0  2.669685  0  0  -0.202596  0  2.671334  0  0  -0.22236  -0.173639  0  2.668319  0
O  O41  1  0.77493273  0.17155234  0.68913689  1  0  -0.266154  0  2.419813  0  0  -0.185586  0  2.669952  0  0  -0.202618  0  2.671577  0  0  -0.222429  -0.173658  0  2.668585  0
O  O42  1  0.72506740  0.17154966  0.18912797  1  0  -0.266213  0  2.419955  0  0  -0.185578  0  2.670135  0  0  -0.20261  0  2.671772  0  0  -0.222363  -0.173636  0  2.668754  0
O  O43  1  0.22506183  0.82845349  0.31086859  1  0  -0.266151  0  2.419703  0  0  -0.185583  0  2.669816  0  0  -0.202624  0  2.671443  0  0  -0.222396  -0.173656  0  2.668452  0
O  O44  1  0.77861086  0.82579657  0.01618937  1  0  -0.65727  0  2.157577  0  0  -0.570897  0  2.44194  0  0  -0.606416  0  2.431038  0  0  -0.332319  -0.546226  0  2.44857  0
O  O45  1  0.27859637  0.17419634  0.48381596  1  0  -0.657072  0  2.157434  0  0  -0.570708  0  2.44176  0  0  -0.60623  0  2.430874  0  0  -0.332237  -0.546036  0  2.448387  0
O  O46  1  0.22140162  0.17420131  0.98382305  1  0  -0.657227  0  2.157702  0  0  -0.570863  0  2.442003  0  0  -0.60638  0  2.431118  0  0  -0.332317  -0.546192  0  2.448627  0
O  O47  1  0.72140715  0.82579689  0.51616634  1  0  -0.657165  0  2.157835  0  0  -0.57078  0  2.441989  0  0  -0.606305  0  2.431117  0  0  -0.332218  -0.546106  0  2.44861  0
O  O48  1  0.04974288  0.66157502  0.66088497  1  0  -0.596126  0  2.167757  0  0  -0.516698  0  2.442169  0  0  -0.549294  0  2.431874  0  0  -0.315406  -0.494215  0  2.448716  0
O  O49  1  0.54973550  0.33843296  0.83911262  1  0  -0.595954  0  2.167423  0  0  -0.516577  0  2.441834  0  0  -0.549175  0  2.431547  0  0  -0.315338  -0.494089  0  2.448377  0
O  O50  1  0.95025706  0.33843685  0.33910624  1  0  -0.596039  0  2.167724  0  0  -0.516587  0  2.442164  0  0  -0.549184  0  2.431876  0  0  -0.315315  -0.494104  0  2.448708  0
O  O51  1  0.45021606  0.66156397  0.16089704  1  0  -0.595778  0  2.168148  0  0  -0.516356  0  2.442566  0  0  -0.548946  0  2.432279  0  0  -0.315194  -0.493873  0  2.449119  0
O  O52  1  0.38499574  0.54248942  0.61679057  1  0  -0.629738  0  2.167714  0  0  -0.542874  0  2.448668  0  0  -0.578142  0  2.438021  0  0  -0.330904  -0.518259  0  2.455168  0
O  O53  1  0.88499528  0.45752748  0.88320625  1  0  -0.62945  0  2.16775  0  0  -0.542608  0  2.448642  0  0  -0.577875  0  2.438001  0  0  -0.330793  -0.518008  0  2.45517  0
O  O54  1  0.61500241  0.45750855  0.38321188  1  0  -0.629838  0  2.167757  0  0  -0.542864  0  2.448645  0  0  -0.578143  0  2.438025  0  0  -0.330925  -0.518245  0  2.455128  0
O  O55  1  0.11498853  0.54247947  0.11678476  1  0  -0.62968  0  2.167246  0  0  -0.542755  0  2.448141  0  0  -0.578035  0  2.437504  0  0  -0.330856  -0.518155  0  2.454694  0
O  O56  1  0.84910528  0.95055069  0.85276470  1  0  -0.594237  0  2.108253  0  0  -0.513217  0  2.381711  0  0  -0.546132  0  2.370724  0  0  -0.306503  -0.490199  0  2.388462  0
O  O57  1  0.34911581  0.04943482  0.64723987  1  0  -0.594141  0  2.107761  0  0  -0.513122  0  2.381188  0  0  -0.546041  0  2.370208  0  0  -0.306407  -0.4901  0  2.387938  0
O  O58  1  0.15089824  0.04944237  0.14723664  1  0  -0.594133  0  2.107993  0  0  -0.513129  0  2.381446  0  0  -0.546049  0  2.370471  0  0  -0.306524  -0.49011  0  2.388195  0
O  O59  1  0.65089309  0.95055825  0.35275966  1  0  -0.594163  0  2.108166  0  0  -0.513232  0  2.381609  0  0  -0.546145  0  2.370632  0  0  -0.306537  -0.490211  0  2.38836  0
