# generated using pymatgen
data_CuH9C5SN3O7
_symmetry_space_group_name_H-M   'P 1'
_cell_length_a   7.30846477
_cell_length_b   11.26503153
_cell_length_c   11.80547516
_cell_angle_alpha   94.25937606
_cell_angle_beta   89.99411762
_cell_angle_gamma   89.99536343
_symmetry_Int_Tables_number   1
_chemical_formula_structural   CuH9C5SN3O7
_chemical_formula_sum   'Cu4 H36 C20 S4 N12 O28'
_cell_volume   969.26130691
_cell_formula_units_Z   4
loop_
 _symmetry_equiv_pos_site_id
 _symmetry_equiv_pos_as_xyz
  1  'x, y, z'
loop_
 _atom_site_type_symbol
 _atom_site_label
 _atom_site_symmetry_multiplicity
 _atom_site_fract_x
 _atom_site_fract_y
 _atom_site_fract_z
 _atom_site_occupancy
 _atom_site_hle17_ddec_charge
 _atom_site_hle17_ddec_spin_density
 _atom_site_hle17_ddec_sum_bond_order
 _atom_site_hle17_magmom
 _atom_site_hse06_10hf_ddec_charge
 _atom_site_hse06_10hf_ddec_spin_density
 _atom_site_hse06_10hf_ddec_sum_bond_order
 _atom_site_hse06_10hf_magmom
 _atom_site_hse06_ddec_charge
 _atom_site_hse06_ddec_spin_density
 _atom_site_hse06_ddec_sum_bond_order
 _atom_site_hse06_magmom
 _atom_site_pbe_cm5_charge
 _atom_site_pbe_ddec_charge
 _atom_site_pbe_ddec_spin_density
 _atom_site_pbe_ddec_sum_bond_order
 _atom_site_pbe_magmom
Cu  Cu0  1  0.50000615  0.00000198  0.50000140  1  0.875118  0.760037  1.832925  0.54  0.84276  0.825622  2.223502  0.65  0.923626  0.895873  2.161358  0.73  0.780772  0.792702  0.770628  2.266596  0.593
Cu  Cu1  1  0.99999930  0.99999991  0.00000166  1  0.875277  0.760005  1.832538  0.54  0.842827  0.825642  2.223007  0.65  0.923727  0.895916  2.160875  0.73  0.780737  0.792786  0.770636  2.26609  0.593
Cu  Cu2  1  0.99999998  0.49999877  0.49999871  1  0.961646  -0.781163  1.72312  -0.566  0.944267  -0.844354  2.097276  -0.677  1.012177  -0.91064  2.05126  -0.753  0.761649  0.896756  -0.7915  2.136125  -0.622
Cu  Cu3  1  0.49999929  0.49999898  0.99999912  1  0.961225  -0.78119  1.724168  -0.566  0.943831  -0.844378  2.0982  -0.677  1.011775  -0.910663  2.052188  -0.753  0.761463  0.896348  -0.791534  2.137003  -0.622
H  H4  1  0.49169873  0.78149384  0.64684147  1  0.124488  0.00086  0.960572  0.002  0.124524  0.000546  1.0262  0.001  0.127402  0.000393  1.024055  0.001  0.131784  0.122303  0.000679  1.02816  0.002
H  H5  1  0.99174647  0.21853121  0.85316303  1  0.124535  0.000861  0.960115  0.002  0.124306  0.000546  1.026041  0.001  0.127164  0.000392  1.023915  0.001  0.131744  0.122087  0.000679  1.027996  0.002
H  H6  1  0.50830741  0.21850916  0.35316037  1  0.124448  0.00086  0.960629  0.002  0.124477  0.000546  1.026272  0.001  0.127356  0.000393  1.024124  0.001  0.131777  0.122253  0.000679  1.028231  0.002
H  H7  1  0.00824462  0.78147085  0.14684382  1  0.124548  0.000861  0.960122  0.002  0.124251  0.000545  1.026135  0.001  0.127106  0.000392  1.024014  0.001  0.131698  0.122035  0.000679  1.028089  0.002
H  H8  1  0.68961011  0.59628019  0.64014186  1  0.110031  -0.001005  0.932188  -0.002  0.113992  -0.000553  0.995106  -0.001  0.116098  -0.00039  0.991979  -0.001  0.134124  0.112102  -0.000678  0.997942  -0.001
H  H9  1  0.18963159  0.40371716  0.85985666  1  0.110078  -0.001006  0.932207  -0.002  0.113965  -0.000553  0.995169  -0.001  0.11606  -0.00039  0.992055  -0.001  0.134144  0.11208  -0.000679  0.998007  -0.001
H  H10  1  0.31039056  0.40372018  0.35985639  1  0.110014  -0.001005  0.932147  -0.002  0.11398  -0.000553  0.99506  -0.001  0.116077  -0.00039  0.991932  -0.001  0.134115  0.112099  -0.000678  0.997899  -0.001
H  H11  1  0.81037318  0.59627876  0.14014123  1  0.110086  -0.001006  0.932198  -0.002  0.113961  -0.000553  0.995156  -0.001  0.116056  -0.00039  0.992042  -0.001  0.134141  0.112079  -0.000679  0.99799  -0.001
H  H12  1  0.01842360  0.73334215  0.39332302  1  0.111566  -0.000466  0.958227  -0.001  0.114329  -0.00024  1.024748  -0.001  0.116407  -0.000179  1.022714  -0.001  0.132991  0.112555  -0.000273  1.026633  -0.001
H  H13  1  0.51837208  0.26662851  0.10666540  1  0.111579  -0.000467  0.958444  -0.001  0.114277  -0.000242  1.024988  -0.001  0.116359  -0.00018  1.022949  -0.001  0.132948  0.112493  -0.000275  1.026883  -0.001
H  H14  1  0.98157297  0.26665557  0.60667248  1  0.111621  -0.000465  0.958172  -0.001  0.114375  -0.00024  1.024702  -0.001  0.116456  -0.000179  1.022662  -0.001  0.133018  0.112602  -0.000273  1.026588  -0.001
H  H15  1  0.48163680  0.73336830  0.89333087  1  0.111547  -0.000466  0.958415  -0.001  0.114269  -0.000242  1.024953  -0.001  0.116349  -0.00018  1.022918  -0.001  0.132925  0.112505  -0.000275  1.026833  -0.001
H  H16  1  0.99840906  0.04906596  0.29784508  1  0.359757  -3.6e-05  0.900355  0.0  0.336781  5.3e-05  0.966509  0.0  0.346323  3.4e-05  0.958419  0.0  0.30267  0.329962  6.9e-05  0.972313  0.0
H  H17  1  0.49843093  0.95094603  0.20215270  1  0.359802  -3.6e-05  0.900428  0.0  0.336783  5.3e-05  0.966625  0.0  0.346323  3.4e-05  0.958536  0.0  0.302713  0.329966  6.9e-05  0.972433  0.0
H  H18  1  0.00159709  0.95093619  0.70215330  1  0.359773  -3.5e-05  0.900388  0.0  0.336803  5.3e-05  0.966535  0.0  0.346347  3.4e-05  0.958442  0.0  0.302671  0.329983  6.9e-05  0.972342  0.0
H  H19  1  0.50156700  0.04905431  0.79784808  1  0.359812  -3.6e-05  0.900453  0.0  0.3368  5.3e-05  0.966642  0.0  0.346341  3.4e-05  0.958554  0.0  0.302732  0.329981  6.9e-05  0.972448  0.0
H  H20  1  0.09488637  0.91602490  0.34601649  1  0.354605  0.000675  0.914602  0.002  0.331783  0.000583  0.982564  0.001  0.340197  0.000434  0.9758  0.001  0.299785  0.325801  0.00069  0.987315  0.001
H  H21  1  0.59484840  0.08397428  0.15396849  1  0.354718  0.000674  0.914496  0.002  0.331985  0.000582  0.98231  0.001  0.340396  0.000433  0.975544  0.001  0.299874  0.326008  0.000689  0.987065  0.001
H  H22  1  0.90512388  0.08397636  0.65398097  1  0.354602  0.000674  0.914638  0.002  0.331863  0.000583  0.982476  0.001  0.340276  0.000434  0.975713  0.001  0.299822  0.325884  0.00069  0.987229  0.001
H  H23  1  0.40515226  0.91602695  0.84603321  1  0.35473  0.000674  0.914454  0.002  0.332017  0.000582  0.982251  0.001  0.340427  0.000433  0.975485  0.001  0.299893  0.326037  0.000689  0.987008  0.001
H  H24  1  0.98346788  0.54178871  0.76514543  1  0.41931  -7e-06  0.882638  0.0  0.392928  1.3e-05  0.940092  0.0  0.40406  1.1e-05  0.923642  0.0  0.282742  0.385016  1.1e-05  0.951714  0.0
H  H25  1  0.48347865  0.45820010  0.73488129  1  0.419009  -7e-06  0.883059  0.0  0.392725  1.3e-05  0.940358  0.0  0.403854  1.1e-05  0.923901  0.0  0.282662  0.38483  1.1e-05  0.951971  0.0
H  H26  1  0.01653279  0.45820987  0.23485267  1  0.419282  -7e-06  0.882679  0.0  0.392913  1.3e-05  0.940116  0.0  0.404042  1.1e-05  0.923668  0.0  0.282745  0.385001  1.1e-05  0.951735  0.0
H  H27  1  0.51652202  0.54179847  0.26511766  1  0.419039  -7e-06  0.883016  0.0  0.392763  1.3e-05  0.940301  0.0  0.403891  1.1e-05  0.923847  0.0  0.282688  0.384868  1.1e-05  0.951913  0.0
H  H28  1  0.88233242  0.41921876  0.73326070  1  0.411226  -3.2e-05  0.897222  0.0  0.384936  -1.6e-05  0.955112  0.0  0.395662  -1.2e-05  0.939349  0.0  0.282035  0.377343  -2.4e-05  0.966219  0.0
H  H29  1  0.38234727  0.58079823  0.76676617  1  0.411044  -3.2e-05  0.897421  0.0  0.384919  -1.6e-05  0.955067  0.0  0.395631  -1.1e-05  0.939298  0.0  0.281959  0.377342  -2.4e-05  0.966174  0.0
H  H30  1  0.11766962  0.58077891  0.26673903  1  0.411147  -3.2e-05  0.89732  0.0  0.384936  -1.6e-05  0.955096  0.0  0.395642  -1.2e-05  0.939343  0.0  0.282031  0.377343  -2.4e-05  0.966201  0.0
H  H31  1  0.61765203  0.41920124  0.23323285  1  0.411056  -3.2e-05  0.897415  0.0  0.384918  -1.6e-05  0.955082  0.0  0.395632  -1.1e-05  0.93931  0.0  0.281945  0.377342  -2.4e-05  0.966186  0.0
H  H32  1  0.76139696  0.36129102  0.40103893  1  0.436761  3e-06  0.863211  0.001  0.40628  -0.000477  0.925817  0.0  0.418089  -0.000307  0.90891  0.0  0.29431  0.397843  -0.000603  0.937861  -0.001
H  H33  1  0.26140229  0.63874633  0.09896651  1  0.43656  2e-06  0.863476  0.001  0.406111  -0.000477  0.92602  0.0  0.417919  -0.000308  0.909118  0.0  0.294281  0.397679  -0.000604  0.938055  -0.001
H  H34  1  0.23860371  0.63870931  0.59896270  1  0.436692  3e-06  0.863302  0.001  0.406219  -0.000477  0.925897  0.0  0.418025  -0.000307  0.908994  0.0  0.294309  0.397787  -0.000603  0.937931  -0.001
H  H35  1  0.73859017  0.36125046  0.90103314  1  0.436549  2e-06  0.863474  0.001  0.406099  -0.000477  0.926022  0.0  0.417906  -0.000308  0.909119  0.0  0.294255  0.397666  -0.000604  0.938054  -0.001
H  H36  1  0.68898090  0.38373372  0.53326751  1  0.43128  -0.000557  0.871867  -0.001  0.401791  -0.001022  0.933726  -0.002  0.413652  -0.000783  0.916872  -0.001  0.290769  0.393249  -0.001174  0.945809  -0.002
H  H37  1  0.18899241  0.61629671  0.96672096  1  0.43116  -0.000558  0.871976  -0.001  0.401618  -0.001023  0.933941  -0.002  0.413485  -0.000783  0.917077  -0.001  0.29058  0.39307  -0.001175  0.946035  -0.002
H  H38  1  0.31102114  0.61626392  0.46673645  1  0.431246  -0.000557  0.871896  -0.001  0.401776  -0.001022  0.933721  -0.002  0.413633  -0.000782  0.916874  -0.001  0.290801  0.393235  -0.001173  0.945803  -0.002
H  H39  1  0.81100141  0.38370186  0.03327884  1  0.431098  -0.000558  0.872052  -0.001  0.401558  -0.001023  0.93402  -0.002  0.413423  -0.000783  0.917159  -0.001  0.290567  0.393013  -0.001175  0.94611  -0.002
C  C40  1  0.61168668  0.77167553  0.59196334  1  0.129335  -0.018531  3.553998  -0.021  0.101152  -0.004645  3.811919  -0.007  0.107469  -0.005351  3.823328  -0.007  0.078952  0.096244  -0.004102  3.805797  -0.006
C  C41  1  0.11171792  0.22833964  0.90804575  1  0.12947  -0.01853  3.553658  -0.021  0.101467  -0.004646  3.811519  -0.007  0.107822  -0.00535  3.822885  -0.007  0.079071  0.096558  -0.004102  3.805406  -0.006
C  C42  1  0.38831673  0.22832571  0.40803667  1  0.129447  -0.018533  3.553971  -0.021  0.101259  -0.004646  3.811904  -0.007  0.107564  -0.005351  3.823306  -0.007  0.078971  0.09636  -0.004102  3.805776  -0.006
C  C43  1  0.88827864  0.77165978  0.09195835  1  0.129436  -0.018528  3.553817  -0.021  0.101501  -0.004644  3.811659  -0.007  0.107854  -0.005348  3.823026  -0.007  0.079096  0.096587  -0.004101  3.805553  -0.006
C  C44  1  0.71888843  0.66855006  0.58647415  1  0.155752  0.019784  3.552284  0.021  0.124058  0.005359  3.809709  0.007  0.132987  0.006146  3.819495  0.008  0.089744  0.117635  0.004831  3.804118  0.007
C  C45  1  0.21891276  0.33145709  0.91353092  1  0.155565  0.019776  3.552863  0.021  0.123905  0.005358  3.81011  0.007  0.132831  0.006143  3.819873  0.008  0.089685  0.117471  0.004831  3.804543  0.007
C  C46  1  0.28110950  0.33144853  0.41352226  1  0.155819  0.019784  3.552156  0.021  0.124128  0.005359  3.809612  0.007  0.133094  0.006146  3.819357  0.008  0.089786  0.117687  0.004831  3.80404  0.007
C  C47  1  0.78108927  0.66854061  0.08646711  1  0.155466  0.019773  3.552926  0.021  0.123856  0.005357  3.810107  0.007  0.132786  0.006143  3.819866  0.008  0.08965  0.117427  0.00483  3.804536  0.007
C  C48  1  0.90257780  0.74518126  0.45080273  1  0.115472  0.014584  3.576644  0.015  0.08227  0.002843  3.824092  0.003  0.089616  0.004168  3.838546  0.005  0.079557  0.077017  0.001877  3.815303  0.002
C  C49  1  0.40255708  0.25482206  0.04919704  1  0.115469  0.014576  3.577387  0.015  0.08226  0.002842  3.824756  0.003  0.089596  0.004167  3.839214  0.005  0.079561  0.077022  0.001878  3.81597  0.002
C  C50  1  0.09741877  0.25481734  0.54919284  1  0.115401  0.014586  3.576686  0.015  0.082175  0.002843  3.824108  0.003  0.08952  0.004168  3.838562  0.005  0.079535  0.076918  0.001877  3.815326  0.002
C  C51  1  0.59744495  0.74517564  0.95080015  1  0.115622  0.014574  3.577298  0.015  0.08238  0.002842  3.82472  0.003  0.089714  0.004165  3.839179  0.005  0.079623  0.077124  0.001878  3.815939  0.002
C  C52  1  0.79859409  0.84882815  0.45752490  1  0.068125  -0.01225  3.703189  -0.013  0.071799  -0.00228  3.950545  -0.003  0.07041  -0.003667  3.969352  -0.005  0.128897  0.071841  -0.001227  3.939485  -0.002
C  C53  1  0.29857919  0.15118389  0.04247874  1  0.068215  -0.012245  3.702811  -0.013  0.071802  -0.002278  3.950105  -0.003  0.070433  -0.003664  3.968924  -0.005  0.128922  0.07184  -0.001225  3.939022  -0.002
C  C54  1  0.20140931  0.15117132  0.54247412  1  0.068014  -0.012251  3.703494  -0.013  0.071822  -0.002279  3.950646  -0.003  0.070435  -0.003666  3.969451  -0.005  0.128889  0.071865  -0.001227  3.939578  -0.002
C  C55  1  0.70142011  0.84881464  0.95752529  1  0.068103  -0.012243  3.702754  -0.013  0.071734  -0.002278  3.95008  -0.003  0.070362  -0.003665  3.968891  -0.005  0.128908  0.071778  -0.001224  3.939005  -0.002
C  C56  1  0.82577670  0.95398722  0.38984938  1  0.579731  -0.002145  3.822021  -0.005  0.531127  0.000998  4.111433  -0.001  0.562687  0.000763  4.114096  0.0  0.250258  0.509837  0.001242  4.109316  -0.001
C  C57  1  0.32576642  0.04600973  0.11016998  1  0.579662  -0.002147  3.821885  -0.005  0.53112  0.000998  4.111186  -0.001  0.562638  0.000763  4.113926  0.0  0.250311  0.509851  0.001242  4.109037  -0.001
C  C58  1  0.17422944  0.04601401  0.61015148  1  0.579852  -0.002145  3.82199  -0.005  0.53124  0.000997  4.111361  -0.001  0.562798  0.000763  4.114027  0.0  0.25031  0.509952  0.001242  4.109245  -0.001
C  C59  1  0.67423288  0.95399236  0.88983433  1  0.579863  -0.002149  3.821442  -0.005  0.531322  0.000997  4.110789  -0.001  0.562858  0.000762  4.113498  0.0  0.250367  0.51005  0.001241  4.108635  -0.001
S  S60  1  0.38211064  0.75811314  0.30203012  1  1.563807  0.000189  5.830759  0.0  1.437209  -6.2e-05  6.381926  0.0  1.492543  -4.6e-05  6.346952  0.0  0.55673  1.398593  -6e-05  6.404249  0.0
S  S61  1  0.88207309  0.24189236  0.19796010  1  1.564587  0.000187  5.829747  0.0  1.438077  -6.3e-05  6.380825  0.0  1.493412  -4.6e-05  6.345819  0.0  0.556985  1.399467  -6.1e-05  6.403139  0.0
S  S62  1  0.61788865  0.24188810  0.69796989  1  1.563701  0.000188  5.83101  0.0  1.437085  -6.2e-05  6.382193  0.0  1.492419  -4.7e-05  6.347217  0.0  0.556642  1.398468  -6.1e-05  6.404512  0.0
S  S63  1  0.11792074  0.75811156  0.80203928  1  1.564635  0.000188  5.829648  0.0  1.438125  -6.3e-05  6.380722  0.0  1.49346  -4.7e-05  6.345718  0.0  0.557019  1.399501  -6.1e-05  6.403077  0.0
N  N64  1  0.65202334  0.85983937  0.52713431  1  -0.248229  0.080046  3.318125  0.099  -0.215314  0.050809  3.612063  0.067  -0.236585  0.042748  3.62898  0.059  -0.325118  -0.203063  0.055446  3.603223  0.071
N  N65  1  0.15201104  0.14015917  0.97287685  1  -0.248385  0.08003  3.317992  0.099  -0.215376  0.050796  3.611758  0.067  -0.236683  0.042735  3.628674  0.059  -0.325075  -0.203118  0.055433  3.602917  0.071
N  N66  1  0.34798553  0.14016186  0.47286655  1  -0.248253  0.080045  3.318391  0.099  -0.215393  0.050808  3.612331  0.067  -0.236666  0.042747  3.62925  0.059  -0.325126  -0.203137  0.055447  3.603473  0.071
N  N67  1  0.84798552  0.85984291  0.02712916  1  -0.248266  0.080023  3.318032  0.099  -0.215307  0.050793  3.611813  0.067  -0.236612  0.042733  3.62873  0.059  -0.325016  -0.203055  0.055428  3.602982  0.071
N  N68  1  0.86041874  0.65550630  0.51489226  1  -0.22722  -0.085179  3.272075  -0.107  -0.190302  -0.052323  3.566875  -0.071  -0.213661  -0.043184  3.58413  -0.061  -0.313543  -0.175596  -0.057741  3.556127  -0.076
N  N69  1  0.36039539  0.34447123  0.98511000  1  -0.227085  -0.08517  3.273089  -0.107  -0.190051  -0.052326  3.567579  -0.071  -0.21342  -0.043182  3.584851  -0.061  -0.313552  -0.175345  -0.05775  3.556828  -0.076
N  N70  1  0.13957919  0.34449143  0.48510154  1  -0.227222  -0.085181  3.272031  -0.107  -0.190328  -0.052324  3.566852  -0.071  -0.2137  -0.043185  3.584099  -0.061  -0.313573  -0.17562  -0.05774  3.556118  -0.076
N  N71  1  0.63960802  0.65552826  0.01488648  1  -0.227158  -0.085166  3.273135  -0.107  -0.190157  -0.052323  3.567682  -0.071  -0.213526  -0.043179  3.584949  -0.061  -0.313603  -0.175452  -0.057746  3.556946  -0.076
N  N72  1  0.98083050  0.96956085  0.33635760  1  -0.622026  0.000549  3.069753  0.001  -0.58041  0.001551  3.301628  0.002  -0.60533  0.000538  3.299369  0.001  -0.536055  -0.563637  0.002426  3.303288  0.003
N  N73  1  0.48082151  0.03044316  0.16365168  1  -0.622124  0.000551  3.069665  0.001  -0.580657  0.001551  3.301578  0.002  -0.605561  0.000539  3.299329  0.001  -0.53622  -0.563891  0.002426  3.303249  0.003
N  N74  1  0.01917700  0.03044127  0.66364333  1  -0.622061  0.000547  3.069831  0.001  -0.580569  0.001551  3.30169  0.002  -0.605489  0.000539  3.299426  0.001  -0.536114  -0.563805  0.002426  3.303364  0.003
N  N75  1  0.51917642  0.96955896  0.83635010  1  -0.622168  0.000551  3.069417  0.001  -0.580714  0.001551  3.301333  0.002  -0.605623  0.00054  3.299076  0.001  -0.53624  -0.563951  0.002426  3.303002  0.003
O  O76  1  0.69325949  0.02757479  0.38805957  1  -0.516921  0.08763  2.04104  0.115  -0.487866  0.055069  2.317851  0.079  -0.527118  0.042175  2.31265  0.064  -0.295493  -0.46171  0.063617  2.321301  0.088
O  O77  1  0.19324848  0.97243347  0.11195974  1  -0.517023  0.087636  2.041184  0.115  -0.487816  0.055066  2.317737  0.079  -0.527063  0.042164  2.312563  0.064  -0.295463  -0.461667  0.063616  2.321178  0.088
O  O78  1  0.30674802  0.97242732  0.61194220  1  -0.516982  0.087625  2.040967  0.115  -0.487895  0.055068  2.317776  0.079  -0.527148  0.042172  2.312578  0.064  -0.2955  -0.461737  0.063619  2.321219  0.088
O  O79  1  0.80674945  0.02757039  0.88804641  1  -0.517082  0.087636  2.040996  0.115  -0.487945  0.055066  2.317633  0.079  -0.527201  0.042165  2.31245  0.064  -0.295498  -0.461793  0.063618  2.321069  0.088
O  O80  1  0.96599858  0.47832784  0.70340371  1  -0.864035  0.001515  1.819266  0.001  -0.828313  0.001278  2.000174  0.001  -0.845622  0.001306  1.964647  0.001  -0.610853  -0.814943  0.001195  2.025146  0.001
O  O81  1  0.46598164  0.52166184  0.79664028  1  -0.863605  0.001516  1.819955  0.001  -0.828083  0.001279  2.000658  0.001  -0.845352  0.001308  1.965247  0.001  -0.610728  -0.814764  0.001197  2.025475  0.001
O  O82  1  0.03401030  0.52166716  0.29659750  1  -0.863942  0.001516  1.819438  0.001  -0.8283  0.001278  2.000242  0.001  -0.845577  0.001306  1.964786  0.001  -0.610849  -0.814935  0.001195  2.025214  0.001
O  O83  1  0.53401629  0.47833761  0.20335958  1  -0.863643  0.001516  1.819922  0.001  -0.828125  0.001279  2.000637  0.001  -0.84539  0.001308  1.965216  0.001  -0.610745  -0.814812  0.001197  2.025454  0.001
O  O84  1  0.76137672  0.41797165  0.47068222  1  -0.817932  -0.069197  1.937465  -0.091  -0.790171  -0.045709  2.159876  -0.065  -0.821821  -0.035672  2.126379  -0.053  -0.587765  -0.767453  -0.052464  2.18328  -0.072
O  O85  1  0.26141432  0.58204702  0.02932174  1  -0.817666  -0.069183  1.937967  -0.091  -0.789884  -0.045692  2.16041  -0.065  -0.82155  -0.035662  2.126932  -0.053  -0.587591  -0.767165  -0.052441  2.183791  -0.072
O  O86  1  0.23862669  0.58202689  0.52932096  1  -0.817875  -0.069193  1.937562  -0.091  -0.790114  -0.045706  2.159947  -0.065  -0.821765  -0.035669  2.126465  -0.053  -0.587798  -0.767397  -0.052461  2.183342  -0.072
O  O87  1  0.73857677  0.41795066  0.97067799  1  -0.817602  -0.069192  1.938012  -0.091  -0.789824  -0.045697  2.160452  -0.065  -0.821489  -0.035666  2.126974  -0.053  -0.587556  -0.767096  -0.052447  2.183812  -0.072
O  O88  1  0.44995732  0.65845461  0.36860428  1  -0.742334  -0.002715  1.967585  -0.004  -0.67391  -0.000966  2.196118  -0.001  -0.699143  -0.000503  2.182436  -0.001  -0.353733  -0.655383  -0.001557  2.204907  -0.002
O  O89  1  0.94991154  0.34155142  0.13138085  1  -0.742462  -0.002714  1.967306  -0.004  -0.673963  -0.000968  2.195814  -0.001  -0.699183  -0.000506  2.182118  -0.001  -0.353751  -0.655449  -0.001557  2.204608  -0.002
O  O90  1  0.55004334  0.34154839  0.63139841  1  -0.742322  -0.002716  1.967709  -0.004  -0.673875  -0.000968  2.196232  -0.001  -0.699108  -0.000505  2.182547  -0.001  -0.35368  -0.655353  -0.001557  2.205026  -0.002
O  O91  1  0.05007818  0.65844988  0.86861239  1  -0.742577  -0.002713  1.967352  -0.004  -0.674039  -0.000968  2.195836  -0.001  -0.699264  -0.000506  2.182141  -0.001  -0.353745  -0.65552  -0.001556  2.204638  -0.002
O  O92  1  0.53469372  0.80516579  0.23690443  1  -0.724629  -0.00083  1.962227  -0.001  -0.672795  -0.00013  2.212619  0.0  -0.69604  -5.1e-05  2.201467  0.0  -0.358794  -0.655495  -0.000304  2.219483  0.0
O  O93  1  0.03465326  0.19484225  0.26308167  1  -0.72476  -0.000828  1.962027  -0.001  -0.673051  -0.000129  2.212414  0.0  -0.69629  -4.9e-05  2.201246  0.0  -0.358812  -0.655754  -0.000304  2.219288  0.0
O  O94  1  0.46530285  0.19483546  0.76309473  1  -0.724643  -0.000831  1.962261  -0.001  -0.672799  -0.00013  2.212652  0.0  -0.696044  -5.1e-05  2.201502  0.0  -0.358798  -0.655499  -0.000304  2.219509  0.0
O  O95  1  0.96534468  0.80516349  0.73691361  1  -0.724776  -0.000828  1.962014  -0.001  -0.673029  -0.000129  2.212338  0.0  -0.696271  -5e-05  2.201175  0.0  -0.358813  -0.655724  -0.000304  2.219209  0.0
O  O96  1  0.30130142  0.85347618  0.38128063  1  -0.763919  -0.000866  1.995972  0.0  -0.723015  -0.000647  2.273846  0.0  -0.745769  -0.000827  2.254734  0.0  -0.368753  -0.70597  -0.000426  2.286254  0.0
O  O97  1  0.80129297  0.14654192  0.11872501  1  -0.764039  -0.000866  1.996021  0.0  -0.723148  -0.000647  2.273827  0.0  -0.745895  -0.000827  2.254704  0.0  -0.368731  -0.706146  -0.000425  2.286322  0.0
O  O98  1  0.69869651  0.14652686  0.61871783  1  -0.76386  -0.000867  1.995994  0.0  -0.722977  -0.000647  2.27386  0.0  -0.745731  -0.000824  2.254748  0.0  -0.368715  -0.70592  -0.000426  2.286243  0.0
O  O99  1  0.19869128  0.85346105  0.88128022  1  -0.764065  -0.000866  1.996015  0.0  -0.723217  -0.000647  2.27387  0.0  -0.745966  -0.000826  2.254748  0.0  -0.368773  -0.7062  -0.000426  2.28635  0.0
O  O100  1  0.23238416  0.70968414  0.22405965  1  -0.762217  -0.001434  2.014196  -0.002  -0.68622  -0.000658  2.245226  -0.001  -0.710243  -0.000359  2.227937  -0.001  -0.35646  -0.668659  -0.001007  2.256552  -0.002
O  O101  1  0.73233176  0.29033800  0.27594473  1  -0.762702  -0.001437  2.014258  -0.002  -0.686734  -0.000658  2.245144  -0.001  -0.710815  -0.000357  2.227945  -0.001  -0.356627  -0.669161  -0.001009  2.256475  -0.002
O  O102  1  0.76761514  0.29031443  0.77594015  1  -0.762212  -0.001434  2.014359  -0.002  -0.686189  -0.000657  2.245386  -0.001  -0.710215  -0.000358  2.228112  -0.001  -0.356456  -0.66863  -0.001008  2.256707  -0.002
O  O103  1  0.26767028  0.70967035  0.72405753  1  -0.762596  -0.001437  2.014048  -0.002  -0.686692  -0.000658  2.245027  -0.001  -0.710753  -0.000357  2.227793  -0.001  -0.356627  -0.669123  -0.001009  2.256373  -0.002
