# generated using pymatgen
data_NdH4C6N2O7
_symmetry_space_group_name_H-M   'P 1'
_cell_length_a   6.82621391
_cell_length_b   11.33598210
_cell_length_c   13.33891011
_cell_angle_alpha   104.96626761
_cell_angle_beta   90.00201910
_cell_angle_gamma   107.56214250
_symmetry_Int_Tables_number   1
_chemical_formula_structural   NdH4C6N2O7
_chemical_formula_sum   'Nd4 H16 C24 N8 O28'
_cell_volume   947.28572903
_cell_formula_units_Z   4
loop_
 _symmetry_equiv_pos_site_id
 _symmetry_equiv_pos_as_xyz
  1  'x, y, z'
loop_
 _atom_site_type_symbol
 _atom_site_label
 _atom_site_symmetry_multiplicity
 _atom_site_fract_x
 _atom_site_fract_y
 _atom_site_fract_z
 _atom_site_occupancy
 _atom_site_hle17_bader_spin_density
 _atom_site_hle17_ddec_charge
 _atom_site_hle17_ddec_spin_density
 _atom_site_hle17_ddec_sum_bond_order
 _atom_site_hle17_magmom
 _atom_site_hse06_10hf_bader_spin_density
 _atom_site_hse06_10hf_ddec_charge
 _atom_site_hse06_10hf_ddec_spin_density
 _atom_site_hse06_10hf_ddec_sum_bond_order
 _atom_site_hse06_10hf_magmom
 _atom_site_hse06_bader_spin_density
 _atom_site_hse06_ddec_charge
 _atom_site_hse06_ddec_spin_density
 _atom_site_hse06_ddec_sum_bond_order
 _atom_site_hse06_magmom
 _atom_site_pbe_bader_spin_density
 _atom_site_pbe_cm5_charge
 _atom_site_pbe_ddec_charge
 _atom_site_pbe_ddec_spin_density
 _atom_site_pbe_ddec_sum_bond_order
 _atom_site_pbe_magmom
Nd  Nd0  1  0.57942873  0.30004254  0.11909556  1  0  2.288899  0  1.681818  0  0  2.121045  0  2.159229  0  0  2.213694  0  2.016344  0  0  1.515931  2.088972  0  2.193834  0
Nd  Nd1  1  0.27924206  0.69988974  0.38092084  1  0  2.288235  0  1.682578  0  0  2.119868  0  2.160837  0  0  2.213  0  2.017181  0  0  1.515561  2.087939  0  2.195104  0
Nd  Nd2  1  0.42056626  0.69995603  0.88090580  1  0  2.288955  0  1.68184  0  0  2.121154  0  2.159185  0  0  2.213759  0  2.016369  0  0  1.515854  2.088997  0  2.193907  0
Nd  Nd3  1  0.72076319  0.30010884  0.61907828  1  0  2.288243  0  1.682725  0  0  2.119876  0  2.160997  0  0  2.213008  0  2.017337  0  0  1.515509  2.087942  0  2.195264  0
H  H4  1  0.99777222  0.12777404  0.19566745  1  0  0.101883  0  0.922477  0  0  0.110713  0  0.982999  0  0  0.113963  0  0.979067  0  0  0.143049  0.108298  0  0.985779  0
H  H5  1  0.87031649  0.87207695  0.30421945  1  0  0.102046  0  0.921349  0  0  0.111026  0  0.981936  0  0  0.114234  0  0.978015  0  0  0.143237  0.108726  0  0.984543  0
H  H6  1  0.00222419  0.87223029  0.80433521  1  0  0.101881  0  0.922476  0  0  0.110701  0  0.983016  0  0  0.113953  0  0.979081  0  0  0.143031  0.108285  0  0.985798  0
H  H7  1  0.12968480  0.12792836  0.69578117  1  0  0.102046  0  0.921293  0  0  0.111009  0  0.981901  0  0  0.114213  0  0.97798  0  0  0.143238  0.108708  0  0.984504  0
H  H8  1  0.91766944  0.16611235  0.38731117  1  0  0.327292  0  0.893573  0  0  0.305576  0  0.95637  0  0  0.315337  0  0.94794  0  0  0.323062  0.29864  0  0.962466  0
H  H9  1  0.75191409  0.83384144  0.11258588  1  0  0.327434  0  0.894164  0  0  0.305895  0  0.956428  0  0  0.315665  0  0.947988  0  0  0.323475  0.298956  0  0.962509  0
H  H10  1  0.08233628  0.83388717  0.61269191  1  0  0.327343  0  0.893388  0  0  0.305634  0  0.956167  0  0  0.315393  0  0.94774  0  0  0.323081  0.298697  0  0.96226  0
H  H11  1  0.24809354  0.16616482  0.88741645  1  0  0.327337  0  0.894267  0  0  0.305866  0  0.956437  0  0  0.315636  0  0.948  0  0  0.323418  0.298937  0  0.962513  0
H  H12  1  0.54456887  0.56907354  0.17763851  1  0  0.443947  0  0.852409  0  0  0.412819  0  0.915874  0  0  0.424601  0  0.898928  0  0  0.305908  0.404329  0  0.928293  0
H  H13  1  0.97557366  0.43084332  0.32232411  1  0  0.442627  0  0.854662  0  0  0.411805  0  0.917648  0  0  0.423592  0  0.900699  0  0  0.305172  0.403286  0  0.930101  0
H  H14  1  0.45541488  0.43092599  0.82236232  1  0  0.443931  0  0.852453  0  0  0.412794  0  0.91593  0  0  0.42458  0  0.898975  0  0  0.305865  0.404302  0  0.928352  0
H  H15  1  0.02442475  0.56915622  0.67767373  1  0  0.442653  0  0.854629  0  0  0.41181  0  0.91765  0  0  0.4236  0  0.900695  0  0  0.305155  0.403289  0  0.930106  0
H  H16  1  0.67140414  0.56736183  0.27210819  1  0  0.435213  0  0.860878  0  0  0.403969  0  0.926122  0  0  0.415001  0  0.910145  0  0  0.307501  0.395979  0  0.93789  0
H  H17  1  0.10392863  0.43271002  0.22780376  1  0  0.435738  0  0.860282  0  0  0.40466  0  0.925263  0  0  0.415687  0  0.909288  0  0  0.307597  0.396712  0  0.936976  0
H  H18  1  0.32859130  0.43264349  0.72788943  1  0  0.435221  0  0.860857  0  0  0.403988  0  0.926086  0  0  0.415015  0  0.910116  0  0  0.307471  0.395999  0  0.937857  0
H  H19  1  0.89606735  0.56728758  0.77219665  1  0  0.435728  0  0.860266  0  0  0.404645  0  0.925255  0  0  0.415672  0  0.909287  0  0  0.307566  0.396694  0  0.936974  0
C  C20  1  0.39958707  0.27372652  0.35951604  1  0  0.002952  0  3.757012  0  0  -0.002803  0  4.019534  0  0  -0.005465  0  4.041685  0  0  0.095165  -0.001468  0  4.006818  0
C  C21  1  0.12586696  0.72618272  0.14041992  1  0  0.005443  0  3.755853  0  0  -0.001773  0  4.019111  0  0  -0.004376  0  4.041238  0  0  0.0955  -0.000455  0  4.006424  0
C  C22  1  0.60041671  0.72627206  0.64048233  1  0  0.002945  0  3.756844  0  0  -0.002823  0  4.019351  0  0  -0.005494  0  4.041512  0  0  0.095146  -0.00148  0  4.00663  0
C  C23  1  0.87413047  0.27381779  0.85957739  1  0  0.005288  0  3.755845  0  0  -0.001877  0  4.01918  0  0  -0.004476  0  4.041316  0  0  0.095459  -0.000532  0  4.006467  0
C  C24  1  0.62464215  0.33916762  0.37973776  1  0  0.703631  0  3.887532  0  0  0.650419  0  4.18762  0  0  0.685918  0  4.178641  0  0  0.240934  0.626338  0  4.195201  0
C  C25  1  0.28532226  0.66075038  0.12020238  1  0  0.702286  0  3.888867  0  0  0.650224  0  4.18763  0  0  0.685686  0  4.178596  0  0  0.240746  0.626024  0  4.195509  0
C  C26  1  0.37535778  0.66082913  0.62024596  1  0  0.703622  0  3.888198  0  0  0.65045  0  4.188208  0  0  0.685951  0  4.179223  0  0  0.240883  0.626365  0  4.195788  0
C  C27  1  0.71466781  0.33925006  0.87980690  1  0  0.702477  0  3.88869  0  0  0.650355  0  4.187534  0  0  0.68582  0  4.178503  0  0  0.240806  0.626125  0  4.195449  0
C  C28  1  0.11322829  0.17449559  0.26150987  1  0  0.278496  0  3.636861  0  0  0.215702  0  3.925517  0  0  0.230077  0  3.935645  0  0  0.169562  0.206473  0  3.919205  0
C  C29  1  0.93894232  0.82539311  0.23837161  1  0  0.278696  0  3.634784  0  0  0.215376  0  3.923661  0  0  0.229807  0  3.933848  0  0  0.169681  0.206114  0  3.917279  0
C  C30  1  0.88676722  0.82549816  0.73849192  1  0  0.278498  0  3.637002  0  0  0.215695  0  3.925672  0  0  0.230068  0  3.935798  0  0  0.169548  0.206463  0  3.919359  0
C  C31  1  0.06106042  0.17461508  0.76163041  1  0  0.278832  0  3.634959  0  0  0.215536  0  3.92383  0  0  0.229973  0  3.934011  0  0  0.169801  0.206292  0  3.91745  0
C  C32  1  0.24146935  0.25875296  0.42617519  1  0  0.009354  0  3.642298  0  0  -0.003713  0  3.895145  0  0  -0.005022  0  3.912754  0  0  0.103669  -0.002855  0  3.882943  0
C  C33  1  0.98279563  0.74118342  0.07371077  1  0  0.007518  0  3.641537  0  0  -0.00475  0  3.893575  0  0  -0.006093  0  3.91121  0  0  0.103612  -0.003853  0  3.881343  0
C  C34  1  0.75853785  0.74124367  0.57382874  1  0  0.009295  0  3.642385  0  0  -0.003729  0  3.895236  0  0  -0.005037  0  3.91285  0  0  0.103623  -0.002883  0  3.883048  0
C  C35  1  0.01720666  0.25882094  0.92628665  1  0  0.007647  0  3.641434  0  0  -0.0048  0  3.893641  0  0  -0.006168  0  3.911313  0  0  0.103639  -0.00389  0  3.881401  0
C  C36  1  0.23112783  0.30792726  0.53983315  1  0  0.719188  0  3.891004  0  0  0.67038  0  4.184596  0  0  0.706253  0  4.174288  0  0  0.248734  0.646393  0  4.191797  0
C  C37  1  0.92301277  0.69200934  0.96006319  1  0  0.72173  0  3.890654  0  0  0.673024  0  4.183558  0  0  0.708902  0  4.173173  0  0  0.249049  0.648942  0  4.191021  0
C  C38  1  0.76887694  0.69207037  0.46016501  1  0  0.71928  0  3.890768  0  0  0.670351  0  4.184544  0  0  0.706225  0  4.174231  0  0  0.24869  0.646369  0  4.191748  0
C  C39  1  0.07699094  0.30799787  0.03994160  1  0  0.721799  0  3.890643  0  0  0.673227  0  4.18339  0  0  0.70911  0  4.173006  0  0  0.249175  0.649152  0  4.190852  0
C  C40  1  0.56693835  0.99494622  0.04532444  1  0  0.560204  0  3.943295  0  0  0.518751  0  4.241652  0  0  0.547782  0  4.237958  0  0  0.218264  0.498674  0  4.247282  0
C  C41  1  0.57180166  0.00513307  0.45461523  1  0  0.560928  0  3.941084  0  0  0.51955  0  4.239139  0  0  0.548592  0  4.235436  0  0  0.218328  0.499513  0  4.244861  0
C  C42  1  0.43305111  0.00507057  0.95468550  1  0  0.560283  0  3.943569  0  0  0.518751  0  4.242024  0  0  0.547781  0  4.238337  0  0  0.218254  0.498689  0  4.247626  0
C  C43  1  0.42819252  0.99484340  0.54537821  1  0  0.560971  0  3.940791  0  0  0.519557  0  4.238887  0  0  0.548612  0  4.235172  0  0  0.21828  0.499517  0  4.244609  0
N  N44  1  0.31620468  0.22170094  0.25735724  1  0  -0.495875  0  3.159229  0  0  -0.4545  0  3.447521  0  0  -0.474906  0  3.462501  0  0  -0.385566  -0.444639  0  3.437814  0
N  N45  1  0.09456661  0.77816765  0.24255676  1  0  -0.496005  0  3.159267  0  0  -0.454272  0  3.447799  0  0  -0.474744  0  3.462801  0  0  -0.385307  -0.444447  0  3.438114  0
N  N46  1  0.68379713  0.77829956  0.74264231  1  0  -0.495824  0  3.159346  0  0  -0.454465  0  3.447656  0  0  -0.47486  0  3.462637  0  0  -0.385518  -0.444594  0  3.437941  0
N  N47  1  0.90543326  0.22183188  0.75744333  1  0  -0.496056  0  3.159428  0  0  -0.454321  0  3.447952  0  0  -0.474793  0  3.462949  0  0  -0.38536  -0.4445  0  3.438254  0
N  N48  1  0.06321674  0.19511314  0.36126910  1  0  -0.276848  0  3.393626  0  0  -0.214241  0  3.628494  0  0  -0.229309  0  3.640099  0  0  -0.353046  -0.203925  0  3.619914  0
N  N49  1  0.86833582  0.80481228  0.13861140  1  0  -0.277624  0  3.395111  0  0  -0.214711  0  3.629156  0  0  -0.22982  0  3.640809  0  0  -0.353848  -0.204335  0  3.620527  0
N  N50  1  0.93677581  0.80488350  0.63873259  1  0  -0.276934  0  3.393696  0  0  -0.214312  0  3.628537  0  0  -0.22938  0  3.640144  0  0  -0.353058  -0.203991  0  3.61996  0
N  N51  1  0.13165914  0.19519209  0.86138527  1  0  -0.277642  0  3.395533  0  0  -0.214727  0  3.629588  0  0  -0.229831  0  3.641252  0  0  -0.353887  -0.204395  0  3.620988  0
O  O52  1  0.72238297  0.35041779  0.29862694  1  0  -0.714798  0  2.047455  0  0  -0.648427  0  2.288366  0  0  -0.679487  0  2.273942  0  0  -0.377393  -0.63042  0  2.29666  0
O  O53  1  0.37177006  0.64947120  0.20126768  1  0  -0.714655  0  2.047292  0  0  -0.648322  0  2.287558  0  0  -0.679438  0  2.273142  0  0  -0.377278  -0.63037  0  2.295995  0
O  O54  1  0.27762031  0.64958271  0.70137336  1  0  -0.714961  0  2.046911  0  0  -0.648611  0  2.287835  0  0  -0.679673  0  2.273409  0  0  -0.377497  -0.630584  0  2.296127  0
O  O55  1  0.62822054  0.35052740  0.79872770  1  0  -0.714816  0  2.046861  0  0  -0.64842  0  2.28714  0  0  -0.679518  0  2.272662  0  0  -0.377293  -0.630453  0  2.295583  0
O  O56  1  0.05845369  0.31566319  0.56985730  1  0  -0.729142  0  2.057684  0  0  -0.677583  0  2.31994  0  0  -0.708231  0  2.302936  0  0  -0.409325  -0.661065  0  2.32882  0
O  O57  1  0.74270500  0.68451637  0.93007327  1  0  -0.73002  0  2.05848  0  0  -0.67881  0  2.321028  0  0  -0.709363  0  2.304043  0  0  -0.409847  -0.662239  0  2.330012  0
O  O58  1  0.94155204  0.68433344  0.43014739  1  0  -0.729181  0  2.057675  0  0  -0.677585  0  2.320002  0  0  -0.708234  0  2.302995  0  0  -0.409253  -0.661068  0  2.328885  0
O  O59  1  0.25729237  0.31549281  0.06992297  1  0  -0.729985  0  2.058524  0  0  -0.678876  0  2.321185  0  0  -0.709435  0  2.304193  0  0  -0.409908  -0.662318  0  2.330167  0
O  O60  1  0.71328515  0.38100906  0.47043084  1  0  -0.687149  0  2.017687  0  0  -0.639037  0  2.271694  0  0  -0.667996  0  2.256546  0  0  -0.392784  -0.623199  0  2.279755  0
O  O61  1  0.33208723  0.61900954  0.02950356  1  0  -0.687303  0  2.017906  0  0  -0.639565  0  2.271433  0  0  -0.668453  0  2.256247  0  0  -0.392995  -0.62371  0  2.279848  0
O  O62  1  0.28673132  0.61898853  0.52957331  1  0  -0.686983  0  2.019017  0  0  -0.638861  0  2.272934  0  0  -0.667811  0  2.257776  0  0  -0.392581  -0.623057  0  2.281068  0
O  O63  1  0.66790878  0.38098522  0.97048946  1  0  -0.687253  0  2.018346  0  0  -0.639497  0  2.27191  0  0  -0.668389  0  2.256717  0  0  -0.392952  -0.623641  0  2.280318  0
O  O64  1  0.39123284  0.34138126  0.60242209  1  0  -0.725642  0  2.052181  0  0  -0.665955  0  2.29852  0  0  -0.697616  0  2.284169  0  0  -0.375602  -0.64819  0  2.306187  0
O  O65  1  0.04937522  0.65827569  0.89748429  1  0  -0.726935  0  2.052973  0  0  -0.667504  0  2.29916  0  0  -0.699084  0  2.284792  0  0  -0.375211  -0.649712  0  2.307107  0
O  O66  1  0.60877484  0.65861632  0.39758356  1  0  -0.725662  0  2.052223  0  0  -0.665927  0  2.298606  0  0  -0.697588  0  2.284257  0  0  -0.375609  -0.648162  0  2.306272  0
O  O67  1  0.95062613  0.34172387  0.10251280  1  0  -0.727067  0  2.053153  0  0  -0.667644  0  2.299287  0  0  -0.699228  0  2.284912  0  0  -0.375267  -0.649864  0  2.30723  0
O  O68  1  0.64744660  0.09530843  0.11796031  1  0  -0.650616  0  2.024021  0  0  -0.610333  0  2.266051  0  0  -0.637312  0  2.254369  0  0  -0.36378  -0.595544  0  2.272787  0
O  O69  1  0.55191590  0.90479778  0.38198284  1  0  -0.651215  0  2.023939  0  0  -0.611045  0  2.266093  0  0  -0.638076  0  2.254332  0  0  -0.364017  -0.596304  0  2.2728  0
O  O70  1  0.35253675  0.90468151  0.88203389  1  0  -0.650873  0  2.023162  0  0  -0.610581  0  2.265224  0  0  -0.637564  0  2.253548  0  0  -0.363905  -0.595778  0  2.271947  0
O  O71  1  0.44810053  0.09520557  0.61802334  1  0  -0.651367  0  2.022855  0  0  -0.611191  0  2.265045  0  0  -0.638237  0  2.253279  0  0  -0.36409  -0.596445  0  2.271751  0
O  O72  1  0.64598263  0.52823926  0.19594856  1  0  -0.912284  0  1.838976  0  0  -0.865403  0  2.038242  0  0  -0.89076  0  2.00056  0  0  -0.654028  -0.852127  0  2.062308  0
O  O73  1  0.11785816  0.47176040  0.30399143  1  0  -0.911672  0  1.839537  0  0  -0.865081  0  2.038487  0  0  -0.890507  0  2.000805  0  0  -0.653921  -0.851822  0  2.062529  0
O  O74  1  0.35400503  0.47175931  0.80405206  1  0  -0.912299  0  1.839058  0  0  -0.865447  0  2.038319  0  0  -0.890794  0  2.00064  0  0  -0.653992  -0.852174  0  2.062397  0
O  O75  1  0.88214416  0.52823818  0.69600695  1  0  -0.911698  0  1.839455  0  0  -0.865097  0  2.038448  0  0  -0.890533  0  2.000753  0  0  -0.653916  -0.851842  0  2.06249  0
O  O76  1  0.58422504  0.88439378  0.03749509  1  0  -0.677855  0  2.094102  0  0  -0.626436  0  2.333178  0  0  -0.655759  0  2.322917  0  0  -0.359933  -0.609687  0  2.339114  0
O  O77  1  0.69949359  0.11580406  0.46239493  1  0  -0.678139  0  2.093976  0  0  -0.626546  0  2.333115  0  0  -0.655965  0  2.322858  0  0  -0.359787  -0.609892  0  2.338998  0
O  O78  1  0.41575778  0.11559803  0.96250851  1  0  -0.677594  0  2.095266  0  0  -0.626155  0  2.334384  0  0  -0.655476  0  2.324128  0  0  -0.359774  -0.609428  0  2.34031  0
O  O79  1  0.30051848  0.88419645  0.53760387  1  0  -0.678044  0  2.094727  0  0  -0.626445  0  2.333878  0  0  -0.655862  0  2.323616  0  0  -0.359699  -0.609794  0  2.339767  0
