# generated using pymatgen
data_Cu3H4C8N7
_symmetry_space_group_name_H-M   'P 1'
_cell_length_a   8.46743464
_cell_length_b   8.46748393
_cell_length_c   8.62303760
_cell_angle_alpha   63.70262518
_cell_angle_beta   63.70246745
_cell_angle_gamma   88.80109565
_symmetry_Int_Tables_number   1
_chemical_formula_structural   Cu3H4C8N7
_chemical_formula_sum   'Cu6 H8 C16 N14'
_cell_volume   484.93385608
_cell_formula_units_Z   2
loop_
 _symmetry_equiv_pos_site_id
 _symmetry_equiv_pos_as_xyz
  1  'x, y, z'
loop_
 _atom_site_type_symbol
 _atom_site_label
 _atom_site_symmetry_multiplicity
 _atom_site_fract_x
 _atom_site_fract_y
 _atom_site_fract_z
 _atom_site_occupancy
 _atom_site_hle17_bader_spin_density
 _atom_site_hle17_ddec_charge
 _atom_site_hle17_ddec_spin_density
 _atom_site_hle17_ddec_sum_bond_order
 _atom_site_hle17_magmom
 _atom_site_hse06_10hf_bader_spin_density
 _atom_site_hse06_10hf_ddec_charge
 _atom_site_hse06_10hf_ddec_spin_density
 _atom_site_hse06_10hf_ddec_sum_bond_order
 _atom_site_hse06_10hf_magmom
 _atom_site_hse06_bader_spin_density
 _atom_site_hse06_ddec_charge
 _atom_site_hse06_ddec_spin_density
 _atom_site_hse06_ddec_sum_bond_order
 _atom_site_hse06_magmom
 _atom_site_pbe_bader_spin_density
 _atom_site_pbe_cm5_charge
 _atom_site_pbe_ddec_charge
 _atom_site_pbe_ddec_spin_density
 _atom_site_pbe_ddec_sum_bond_order
 _atom_site_pbe_magmom
Cu  Cu0  1  0.71842137  0.91456394  0.40609691  1  0  0.379901  0  2.353194  0  0  0.29075  0  2.861273  0  0  0.279081  0  2.819071  0  0  0.551763  0.302188  0  2.886807  0
Cu  Cu1  1  0.08543897  0.28157643  0.09390257  1  0  0.379854  0  2.353154  0  0  0.290711  0  2.861216  0  0  0.279037  0  2.81902  0  0  0.551753  0.302161  0  2.886676  0
Cu  Cu2  1  0.28157953  0.08543727  0.59390069  1  0  0.379899  0  2.353114  0  0  0.290712  0  2.861192  0  0  0.279041  0  2.818987  0  0  0.551752  0.302162  0  2.886717  0
Cu  Cu3  1  0.91456324  0.71842476  0.90609330  1  0  0.379862  0  2.353188  0  0  0.290721  0  2.861254  0  0  0.279049  0  2.819059  0  0  0.551751  0.302171  0  2.886715  0
Cu  Cu4  1  0.94647516  0.05352641  0.75000151  1  0  0.386114  0  2.096349  0  0  0.311103  0  2.552888  0  0  0.31165  0  2.50675  0  0  0.441673  0.312512  0  2.582995  0
Cu  Cu5  1  0.05352446  0.94647482  0.24999897  1  0  0.386107  0  2.096372  0  0  0.311095  0  2.55291  0  0  0.311638  0  2.506773  0  0  0.44168  0.312506  0  2.583011  0
H  H6  1  0.63755835  0.09983358  0.05602741  1  0  0.084266  0  0.973249  0  0  0.092509  0  1.036872  0  0  0.094145  0  1.036365  0  0  0.113485  0.091177  0  1.037438  0
H  H7  1  0.90016919  0.36243722  0.44398257  1  0  0.08435  0  0.973135  0  0  0.092502  0  1.036871  0  0  0.094165  0  1.036332  0  0  0.113472  0.091169  0  1.037437  0
H  H8  1  0.36243952  0.90017171  0.94397437  1  0  0.084261  0  0.973221  0  0  0.092463  0  1.036894  0  0  0.094139  0  1.036339  0  0  0.113469  0.09113  0  1.037462  0
H  H9  1  0.09983003  0.63755591  0.55602168  1  0  0.084343  0  0.973167  0  0  0.092498  0  1.036891  0  0  0.094166  0  1.036348  0  0  0.113475  0.091167  0  1.037456  0
H  H10  1  0.42046586  0.30268898  0.06955490  1  0  0.11409  0  0.984521  0  0  0.122097  0  1.049492  0  0  0.124898  0  1.048789  0  0  0.105735  0.119961  0  1.050302  0
H  H11  1  0.69731149  0.57953041  0.43045105  1  0  0.114102  0  0.984482  0  0  0.122085  0  1.049475  0  0  0.124884  0  1.048773  0  0  0.105731  0.11995  0  1.050286  0
H  H12  1  0.57953627  0.69731770  0.93044553  1  0  0.11413  0  0.984524  0  0  0.122135  0  1.04949  0  0  0.124936  0  1.048786  0  0  0.105759  0.12  0  1.050299  0
H  H13  1  0.30268859  0.42046678  0.56955102  1  0  0.114104  0  0.984518  0  0  0.122087  0  1.049506  0  0  0.124887  0  1.048806  0  0  0.105733  0.119953  0  1.050317  0
C  C14  1  0.64536657  0.20771597  0.92093048  1  0  0.132503  0  3.659178  0  0  0.104272  0  3.900902  0  0  0.110106  0  3.920627  0  0  0.043197  0.100316  0  3.888141  0
C  C15  1  0.79228087  0.35463205  0.57907814  1  0  0.132552  0  3.659204  0  0  0.104379  0  3.900913  0  0  0.110195  0  3.920625  0  0  0.043246  0.100418  0  3.888166  0
C  C16  1  0.35463468  0.79228665  0.07907098  1  0  0.132578  0  3.659048  0  0  0.104384  0  3.900763  0  0  0.11019  0  3.920469  0  0  0.043228  0.100424  0  3.88801  0
C  C17  1  0.20771628  0.64536377  0.42092583  1  0  0.132456  0  3.659175  0  0  0.104287  0  3.900886  0  0  0.110098  0  3.920594  0  0  0.043192  0.100328  0  3.888133  0
C  C18  1  0.52527580  0.32171842  0.92733065  1  0  -0.138448  0  3.689221  0  0  -0.157981  0  3.934503  0  0  -0.164808  0  3.955218  0  0  -0.081952  -0.153882  0  3.921336  0
C  C19  1  0.67827651  0.47471624  0.57267820  1  0  -0.138487  0  3.68931  0  0  -0.157995  0  3.934587  0  0  -0.164826  0  3.955318  0  0  -0.081941  -0.153894  0  3.921409  0
C  C20  1  0.47472412  0.67828417  0.07267025  1  0  -0.138585  0  3.689238  0  0  -0.158108  0  3.934552  0  0  -0.164935  0  3.955276  0  0  -0.081995  -0.154011  0  3.921384  0
C  C21  1  0.32172034  0.52527821  0.42732535  1  0  -0.138489  0  3.689253  0  0  -0.157987  0  3.934562  0  0  -0.164815  0  3.955284  0  0  -0.081943  -0.153887  0  3.921385  0
C  C22  1  0.54096706  0.45902902  0.75000384  1  0  0.065788  0  3.772105  0  0  0.081267  0  3.996806  0  0  0.08445  0  4.01851  0  0  0.016814  0.078911  0  3.982628  0
C  C23  1  0.45903359  0.54097087  0.24999678  1  0  0.065856  0  3.772027  0  0  0.081267  0  3.996804  0  0  0.084452  0  4.018505  0  0  0.016821  0.078911  0  3.982627  0
C  C24  1  0.41757955  0.58241973  0.75000008  1  0  0.259878  0  3.748895  0  0  0.243615  0  4.002023  0  0  0.249335  0  4.021416  0  0  0.224995  0.239888  0  3.989274  0
C  C25  1  0.58242240  0.41758015  0.24999881  1  0  0.259919  0  3.748883  0  0  0.243704  0  4.00196  0  0  0.249423  0  4.021352  0  0  0.225002  0.239975  0  3.989217  0
C  C26  1  0.83603958  0.86556129  0.03492625  1  0  -0.120578  0  3.674977  0  0  -0.12937  0  4.085976  0  0  -0.105802  0  4.063458  0  0  -0.093315  -0.146431  0  4.10123  0
C  C27  1  0.13444046  0.16396021  0.46507290  1  0  -0.120635  0  3.675032  0  0  -0.129417  0  4.086006  0  0  -0.105853  0  4.063493  0  0  -0.093354  -0.146489  0  4.101302  0
C  C28  1  0.16396501  0.13443861  0.96507146  1  0  -0.120644  0  3.67485  0  0  -0.129431  0  4.08583  0  0  -0.105864  0  4.063316  0  0  -0.093374  -0.146491  0  4.101086  0
C  C29  1  0.86555647  0.83604095  0.53492532  1  0  -0.120657  0  3.674913  0  0  -0.129448  0  4.085909  0  0  -0.105882  0  4.063397  0  0  -0.09338  -0.146518  0  4.101196  0
N  N30  1  0.46663794  0.76231126  0.62733696  1  0  -0.242791  0  3.187399  0  0  -0.197779  0  3.497073  0  0  -0.205238  0  3.502453  0  0  -0.243701  -0.193563  0  3.493868  0
N  N31  1  0.23768326  0.53335824  0.87266433  1  0  -0.242883  0  3.187383  0  0  -0.197858  0  3.497061  0  0  -0.205314  0  3.502437  0  0  -0.243759  -0.193646  0  3.493846  0
N  N32  1  0.53336325  0.23769129  0.37265992  1  0  -0.242813  0  3.187376  0  0  -0.197771  0  3.497011  0  0  -0.205224  0  3.502383  0  0  -0.243685  -0.193553  0  3.493804  0
N  N33  1  0.76231633  0.46664296  0.12733386  1  0  -0.242922  0  3.187308  0  0  -0.197905  0  3.496981  0  0  -0.205362  0  3.502358  0  0  -0.243753  -0.193692  0  3.493766  0
N  N34  1  0.31406915  0.82356432  0.67724521  1  0  -0.052511  0  3.195894  0  0  -0.020972  0  3.52159  0  0  -0.017207  0  3.520455  0  0  -0.130901  -0.024461  0  3.523494  0
N  N35  1  0.17643059  0.68592648  0.82275377  1  0  -0.052384  0  3.195895  0  0  -0.020871  0  3.521593  0  0  -0.017106  0  3.52046  0  0  -0.130826  -0.024358  0  3.523474  0
N  N36  1  0.68593174  0.17643687  0.32275124  1  0  -0.052556  0  3.195795  0  0  -0.021038  0  3.521508  0  0  -0.017273  0  3.520371  0  0  -0.130943  -0.024525  0  3.523409  0
N  N37  1  0.82357192  0.31407608  0.17724252  1  0  -0.052311  0  3.195691  0  0  -0.02082  0  3.521422  0  0  -0.017054  0  3.520288  0  0  -0.130793  -0.024307  0  3.523301  0
N  N38  1  0.77750494  0.22249423  0.75000485  1  0  -0.261904  0  3.310816  0  0  -0.181571  0  3.58509  0  0  -0.195657  0  3.597485  0  0  -0.34977  -0.172816  0  3.577096  0
N  N39  1  0.22249442  0.77750568  0.24999865  1  0  -0.261856  0  3.310717  0  0  -0.181526  0  3.58497  0  0  -0.19561  0  3.597375  0  0  -0.349758  -0.172772  0  3.576974  0
N  N40  1  0.76795714  0.87591304  0.18267298  1  0  -0.381405  0  3.230677  0  0  -0.330752  0  3.560604  0  0  -0.340085  0  3.557182  0  0  -0.431186  -0.324576  0  3.562493  0
N  N41  1  0.12408136  0.23203975  0.31733070  1  0  -0.381368  0  3.230692  0  0  -0.330693  0  3.560583  0  0  -0.340029  0  3.557172  0  0  -0.431144  -0.32451  0  3.562448  0
N  N42  1  0.23204585  0.12408550  0.81732604  1  0  -0.381347  0  3.230568  0  0  -0.330683  0  3.560478  0  0  -0.340021  0  3.557063  0  0  -0.431127  -0.324509  0  3.56237  0
N  N43  1  0.87591666  0.76796012  0.68267109  1  0  -0.381339  0  3.230528  0  0  -0.330666  0  3.56043  0  0  -0.340004  0  3.55702  0  0  -0.431125  -0.324485  0  3.562293  0
