# generated using pymatgen
data_ZnH21C17(NO2)2
_symmetry_space_group_name_H-M   'P 1'
_cell_length_a   8.99109271
_cell_length_b   9.37785897
_cell_length_c   11.27331934
_cell_angle_alpha   101.93797460
_cell_angle_beta   112.55951382
_cell_angle_gamma   100.02581628
_symmetry_Int_Tables_number   1
_chemical_formula_structural   ZnH21C17(NO2)2
_chemical_formula_sum   'Zn2 H42 C34 N4 O8'
_cell_volume   824.33399735
_cell_formula_units_Z   2
loop_
 _symmetry_equiv_pos_site_id
 _symmetry_equiv_pos_as_xyz
  1  'x, y, z'
loop_
 _atom_site_type_symbol
 _atom_site_label
 _atom_site_symmetry_multiplicity
 _atom_site_fract_x
 _atom_site_fract_y
 _atom_site_fract_z
 _atom_site_occupancy
 _atom_site_pbe_bader_spin_density
 _atom_site_pbe_cm5_charge
 _atom_site_pbe_ddec_charge
 _atom_site_pbe_ddec_spin_density
 _atom_site_pbe_ddec_sum_bond_order
 _atom_site_pbe_magmom
Zn  Zn0  1  0.55147259  0.02516842  0.39420839  1  0  0.671098  0.850366  0  2.358227  0
Zn  Zn1  1  0.44852441  0.97483021  0.60578994  1  0  0.671041  0.850316  0  2.358421  0
H  H2  1  0.56956742  0.34851969  0.34313673  1  0  0.110444  0.127163  0  1.020467  0
H  H3  1  0.43043442  0.65147898  0.65686663  1  0  0.110434  0.127161  0  1.020472  0
H  H4  1  0.57726934  0.54090923  0.21957147  1  0  0.099764  0.102403  0  1.019153  0
H  H5  1  0.42273284  0.45909057  0.78043130  1  0  0.099767  0.102387  0  1.019184  0
H  H6  1  0.65032127  0.49485043  0.02682534  1  0  0.094954  0.08769  0  1.037859  0
H  H7  1  0.34967883  0.50515049  0.97317521  1  0  0.094953  0.087698  0  1.037877  0
H  H8  1  0.71915365  0.25677203  0.95037778  1  0  0.103743  0.123035  0  1.045662  0
H  H9  1  0.28084576  0.74322662  0.04962307  1  0  0.103741  0.123027  0  1.045666  0
H  H10  1  0.67721709  0.74464600  0.10697149  1  0  0.093101  0.08868  0  1.030441  0
H  H11  1  0.32278474  0.25535267  0.89303098  1  0  0.093099  0.088665  0  1.030486  0
H  H12  1  0.63631107  0.78567929  0.24988131  1  0  0.105677  0.121233  0  1.012361  0
H  H13  1  0.36368955  0.21431937  0.75012080  1  0  0.105639  0.121141  0  1.012481  0
H  H14  1  0.90956339  0.72686505  0.31194042  1  0  0.091454  0.126914  0  1.009075  0
H  H15  1  0.09043758  0.27313474  0.68806199  1  0  0.091484  0.126944  0  1.009077  0
H  H16  1  0.94029984  0.91778087  0.39881146  1  0  0.091812  0.131175  0  1.017536  0
H  H17  1  0.05969993  0.08221892  0.60119057  1  0  0.091766  0.131127  0  1.017609  0
H  H18  1  0.98852519  0.87622510  0.25890818  1  0  0.083376  0.111868  0  1.02459  0
H  H19  1  0.01147578  0.12377469  0.74109423  1  0  0.083365  0.111842  0  1.024623  0
H  H20  1  0.70968272  0.98461095  0.90141685  1  0  0.115814  0.106883  0  0.987146  0
H  H21  1  0.29031789  0.01538770  0.09858348  1  0  0.115818  0.106855  0  0.987171  0
H  H22  1  0.75080605  0.84413549  0.98188711  1  0  0.112539  0.09053  0  0.987855  0
H  H23  1  0.24919699  0.15586318  0.01811573  1  0  0.112517  0.090479  0  0.987822  0
H  H24  1  0.99321555  0.15975610  0.06165622  1  0  0.096626  0.096185  0  0.97815  0
H  H25  1  0.00678456  0.84024482  0.93834612  1  0  0.096609  0.096147  0  0.978202  0
H  H26  1  0.03788022  0.02495012  0.14871565  1  0  0.095868  0.093339  0  1.010493  0
H  H27  1  0.96212074  0.97504967  0.85128497  1  0  0.095871  0.093338  0  1.010503  0
H  H28  1  0.93884053  0.78721839  0.65467193  1  0  0.099401  0.114842  0  0.983359  0
H  H29  1  0.06115630  0.21278365  0.34532782  1  0  0.099404  0.114854  0  0.983294  0
H  H30  1  0.80361976  0.66271205  0.49385451  1  0  0.098763  0.115592  0  0.98625  0
H  H31  1  0.19637948  0.33729000  0.50614597  1  0  0.09877  0.115597  0  0.986196  0
H  H32  1  0.74125518  0.66209299  0.74356640  1  0  0.083835  0.071692  0  1.020934  0
H  H33  1  0.25874457  0.33790679  0.25643386  1  0  0.083834  0.071697  0  1.020941  0
H  H34  1  0.63555852  0.52189706  0.58567573  1  0  0.086742  0.080827  0  0.989089  0
H  H35  1  0.36444159  0.47810386  0.41432482  1  0  0.086751  0.080837  0  0.989067  0
H  H36  1  0.01116647  0.60011915  0.77210269  1  0  0.077458  0.064673  0  1.053169  0
H  H37  1  0.98883364  0.39988177  0.22789875  1  0  0.077463  0.064695  0  1.053123  0
H  H38  1  0.90582204  0.45623950  0.61579121  1  0  0.090446  0.091408  0  0.989335  0
H  H39  1  0.09417996  0.54376369  0.38420941  1  0  0.090454  0.091422  0  0.989315  0
H  H40  1  0.95822791  0.37533803  0.83280137  1  0  0.097176  0.107641  0  0.991345  0
H  H41  1  0.04177079  0.62465833  0.16719533  1  0  0.097188  0.107664  0  0.991296  0
H  H42  1  0.79828408  0.45405331  0.84321861  1  0  0.093454  0.105349  0  0.988661  0
H  H43  1  0.20171377  0.54594419  0.15677979  1  0  0.093456  0.105347  0  0.98866  0
C  C44  1  0.68879080  0.17426304  0.10939695  1  0  0.088403  0.077205  0  4.034345  0
C  C45  1  0.31121017  0.82573675  0.89060456  1  0  0.088417  0.077219  0  4.034491  0
C  C46  1  0.64405677  0.19738892  0.21776092  1  0  0.086706  0.148136  0  4.056772  0
C  C47  1  0.35594351  0.80260860  0.78224088  1  0  0.086701  0.148185  0  4.05674  0
C  C48  1  0.60477464  0.33087169  0.26021197  1  0  -0.088123  -0.148498  0  3.96573  0
C  C49  1  0.39522633  0.66912810  0.73979043  1  0  -0.088108  -0.148462  0  3.965771  0
C  C50  1  0.60929304  0.43653900  0.19007539  1  0  -0.104897  -0.11704  0  4.043685  0
C  C51  1  0.39070878  0.56345966  0.80992619  1  0  -0.104907  -0.117046  0  4.043755  0
C  C52  1  0.65168694  0.41079029  0.08084691  1  0  -0.100504  -0.093709  0  4.042308  0
C  C53  1  0.34831282  0.58920950  0.91915334  1  0  -0.100553  -0.093807  0  4.042444  0
C  C54  1  0.69236099  0.27888771  0.03796495  1  0  -0.097717  -0.168472  0  3.998467  0
C  C55  1  0.30763843  0.72111094  0.96203590  1  0  -0.097683  -0.168415  0  3.998445  0
C  C56  1  0.69293720  0.97450507  0.18790538  1  0  0.24109  0.330535  0  3.908937  0
C  C57  1  0.30706497  0.02549472  0.81209561  1  0  0.241056  0.330537  0  3.908862  0
C  C58  1  0.71865426  0.82688806  0.20608399  1  0  -0.157482  -0.213506  0  3.98982  0
C  C59  1  0.28134791  0.17311175  0.79391878  1  0  -0.157445  -0.213395  0  3.989875  0
C  C60  1  0.90025734  0.83833011  0.29904135  1  0  -0.243493  -0.340475  0  3.90113  0
C  C61  1  0.09974363  0.16166969  0.70096105  1  0  -0.243456  -0.340427  0  3.901179  0
C  C62  1  0.78049603  0.96727926  0.99855891  1  0  -0.049358  -0.049402  0  3.873769  0
C  C63  1  0.21950339  0.03271940  0.00144283  1  0  -0.049373  -0.04934  0  3.873762  0
C  C64  1  0.96839959  0.03694540  0.04880815  1  0  -0.161564  -0.164669  0  3.924818  0
C  C65  1  0.03160052  0.96305552  0.95119241  1  0  -0.161496  -0.164534  0  3.924875  0
C  C66  1  0.70200696  0.83023401  0.57007097  1  0  0.215601  0.636176  0  4.132283  0
C  C67  1  0.29799617  0.16976911  0.42991580  1  0  0.215428  0.635962  0  4.132736  0
C  C68  1  0.80725827  0.71863215  0.59117045  1  0  -0.164357  -0.289333  0  3.911654  0
C  C69  1  0.19274063  0.28136876  0.40882974  1  0  -0.164315  -0.289245  0  3.911502  0
C  C70  1  0.75851606  0.60285925  0.65672777  1  0  -0.170588  -0.126612  0  3.953225  0
C  C71  1  0.24148404  0.39714166  0.34327189  1  0  -0.170611  -0.126672  0  3.953231  0
C  C72  1  0.88956933  0.51732774  0.70245340  1  0  -0.173538  -0.134596  0  3.959389  0
C  C73  1  0.11043111  0.48267431  0.29754656  1  0  -0.173516  -0.134595  0  3.95934  0
C  C74  1  0.84522762  0.40444887  0.77199517  1  0  -0.165783  -0.288943  0  3.932701  0
C  C75  1  0.15477299  0.59554978  0.22800427  1  0  -0.165804  -0.288981  0  3.932699  0
C  C76  1  0.71714403  0.25398163  0.67699803  1  0  0.214691  0.637585  0  4.128738  0
C  C77  1  0.28285720  0.74601922  0.32298867  1  0  0.214723  0.637631  0  4.128644  0
N  N78  1  0.71960610  0.03305341  0.09370450  1  0  -0.240528  -0.075624  0  3.692865  0
N  N79  1  0.28039451  0.96694524  0.90629583  1  0  -0.240505  -0.075649  0  3.692853  0
N  N80  1  0.64549991  0.06995160  0.26291567  1  0  -0.348106  -0.382008  0  3.418314  0
N  N81  1  0.35449916  0.93004591  0.73708399  1  0  -0.348122  -0.382053  0  3.418251  0
O  O82  1  0.69279475  0.88789187  0.47557412  1  0  -0.318671  -0.565312  0  2.361718  0
O  O83  1  0.30720605  0.11211132  0.52442881  1  0  -0.318638  -0.565294  0  2.361449  0
O  O84  1  0.63324484  0.85997386  0.64852327  1  0  -0.316428  -0.560156  0  2.342486  0
O  O85  1  0.36674974  0.14002475  0.35147255  1  0  -0.316341  -0.560033  0  2.343041  0
O  O86  1  0.69864137  0.21636469  0.55633543  1  0  -0.313175  -0.544888  0  2.336877  0
O  O87  1  0.30135857  0.78363964  0.44366654  1  0  -0.31319  -0.544944  0  2.336615  0
O  O88  1  0.64053501  0.17551805  0.72717307  1  0  -0.325687  -0.575894  0  2.328795  0
O  O89  1  0.35945681  0.82447942  0.27282350  1  0  -0.325719  -0.575869  0  2.328957  0
