# generated using pymatgen
data_CuH19C17N9
_symmetry_space_group_name_H-M   'P 1'
_cell_length_a   8.16450150
_cell_length_b   10.51782751
_cell_length_c   11.59134586
_cell_angle_alpha   63.94388578
_cell_angle_beta   88.51431295
_cell_angle_gamma   76.74045830
_symmetry_Int_Tables_number   1
_chemical_formula_structural   CuH19C17N9
_chemical_formula_sum   'Cu2 H38 C34 N18'
_cell_volume   867.18427762
_cell_formula_units_Z   2
loop_
 _symmetry_equiv_pos_site_id
 _symmetry_equiv_pos_as_xyz
  1  'x, y, z'
loop_
 _atom_site_type_symbol
 _atom_site_label
 _atom_site_symmetry_multiplicity
 _atom_site_fract_x
 _atom_site_fract_y
 _atom_site_fract_z
 _atom_site_occupancy
 _atom_site_hle17_ddec_charge
 _atom_site_hle17_ddec_spin_density
 _atom_site_hle17_ddec_sum_bond_order
 _atom_site_hle17_magmom
 _atom_site_hse06_10hf_ddec_charge
 _atom_site_hse06_10hf_ddec_spin_density
 _atom_site_hse06_10hf_ddec_sum_bond_order
 _atom_site_hse06_10hf_magmom
 _atom_site_hse06_ddec_charge
 _atom_site_hse06_ddec_spin_density
 _atom_site_hse06_ddec_sum_bond_order
 _atom_site_hse06_magmom
 _atom_site_pbe_cm5_charge
 _atom_site_pbe_ddec_charge
 _atom_site_pbe_ddec_spin_density
 _atom_site_pbe_ddec_sum_bond_order
 _atom_site_pbe_magmom
Cu  Cu0  1  0.73884074  0.40925562  0.41076168  1  0.735463  0.610382  1.966441  0.391  0.73961  0.741295  2.367734  0.533  0.825751  0.845399  2.298593  0.629  0.776066  0.695217  0.672097  2.411508  0.475
Cu  Cu1  1  0.31788648  0.62378752  0.27388518  1  0.733176  -0.602846  1.954475  -0.387  0.733773  -0.746372  2.366016  -0.541  0.826389  -0.854456  2.293827  -0.642  0.764581  0.686132  -0.674836  2.411191  -0.48
H  H2  1  0.94569251  0.31560342  0.60751259  1  0.264813  -0.001771  0.935815  -0.002  0.255746  -0.000666  0.998727  -0.001  0.262642  -0.000731  0.994747  -0.001  0.296163  0.251144  -0.000618  1.001609  -0.001
H  H3  1  0.49133098  0.70231088  0.39700426  1  0.26004  0.000666  0.940937  0.002  0.251107  3.4e-05  1.002524  0.001  0.25808  0.000151  0.999475  0.001  0.292184  0.246482  -0.000125  1.004908  0.001
H  H4  1  0.71427095  0.93858542  0.36313217  1  0.133464  0.000741  0.970109  0.001  0.144999  0.000791  1.028285  0.001  0.148332  0.000619  1.027728  0.001  0.105151  0.14296  0.000986  1.028113  0.001
H  H5  1  0.45786059  0.33077923  0.22559630  1  0.127258  -3.5e-05  0.968138  0.0  0.143767  -1.1e-05  1.035686  0.0  0.146324  -2.7e-05  1.034741  0.0  0.092939  0.141865  3.5e-05  1.036386  0.0
H  H6  1  0.54002336  0.19304103  0.17388485  1  0.102779  -9.4e-05  0.966384  0.0  0.123405  -0.000101  1.029683  0.0  0.124965  -7.9e-05  1.029444  0.0  0.086447  0.12234  -0.000144  1.029837  0.0
H  H7  1  0.64365266  0.33401282  0.14377996  1  0.121051  -0.000202  0.953709  0.0  0.14177  -9.3e-05  1.012699  0.0  0.143551  -0.000116  1.012947  0.0  0.094167  0.140476  -9.7e-05  1.012566  0.0
H  H8  1  0.04968573  0.81840837  0.63081155  1  0.115408  -0.000137  0.967472  0.0  0.133057  -5e-05  1.034266  0.0  0.134649  -6.8e-05  1.034719  0.0  0.094091  0.131881  -4e-05  1.034033  0.0
H  H9  1  0.89575499  0.74469164  0.59263025  1  0.133903  0.000157  0.932297  0.0  0.160226  0.000155  0.980882  0.0  0.162106  0.000114  0.980546  0.0  0.104987  0.159149  0.000241  0.980728  0.0
H  H10  1  0.85908516  0.81232523  0.70928445  1  0.120155  -0.000225  0.946161  0.0  0.139958  -0.000106  1.009449  0.0  0.141736  -0.000114  1.008933  0.0  0.098947  0.138456  -7.3e-05  1.010161  0.0
H  H11  1  0.93604379  0.03911282  0.70102985  1  0.065132  0.002158  0.930296  0.002  0.08247  0.001973  0.993129  0.002  0.081886  0.001536  0.993861  0.002  0.120748  0.082798  0.002336  0.992627  0.002
H  H12  1  0.05207112  0.13038452  0.56849120  1  0.073217  8.2e-05  0.94408  0.0  0.084806  -1.4e-05  1.014702  0.0  0.084808  0.0  1.015306  0.0  0.120964  0.084665  -2.3e-05  1.014435  0.0
H  H13  1  0.62482449  0.22251735  0.67474938  1  0.076126  -6.9e-05  0.923138  0.0  0.092385  -1.3e-05  0.986585  0.0  0.093094  -1.4e-05  0.98592  0.0  0.107707  0.091891  -5e-06  0.987104  0.0
H  H14  1  0.66026335  0.38718379  0.66249986  1  0.08339  7.5e-05  0.948362  0.001  0.09577  0.000199  1.020585  0.001  0.096645  0.000138  1.020206  0.0  0.10882  0.095014  0.0003  1.021187  0.001
H  H15  1  0.71708434  0.99781802  0.86160326  1  0.084654  7e-06  0.95565  0.0  0.096543  8.5e-05  1.019138  0.0  0.099394  5.6e-05  1.017472  0.0  0.097053  0.094517  0.000101  1.020377  0.0
H  H16  1  0.81926156  0.86460393  0.09239520  1  0.083539  0.000196  1.001013  0.0  0.088121  0.000178  1.074976  0.0  0.090973  0.000145  1.074011  0.0  0.093295  0.085888  0.000185  1.075947  0.0
H  H17  1  0.92569702  0.99025663  0.20070145  1  0.085892  -0.000125  0.987971  0.0  0.094453  -3.6e-05  1.059956  0.0  0.097202  -2.4e-05  1.05855  0.0  0.0953  0.092496  6e-05  1.061081  0.0
H  H18  1  0.99686725  0.21013346  0.19059520  1  0.087218  -0.000274  0.966713  0.0  0.097357  -0.000214  1.032917  0.0  0.100057  -0.000178  1.032079  0.0  0.095993  0.09548  -0.000284  1.033503  0.0
H  H19  1  0.04659638  0.45714999  0.06080235  1  0.090137  -0.000417  0.981531  0.0  0.100106  -0.000252  1.046007  0.0  0.102685  -0.00013  1.045648  0.0  0.099638  0.098526  -0.000341  1.045722  0.0
H  H20  1  0.98574154  0.57803108  0.82359720  1  0.082839  -2.8e-05  0.970389  0.0  0.099066  -6e-06  1.025586  0.0  0.100864  -8e-06  1.025954  0.0  0.098986  0.097789  -2e-06  1.025341  0.0
H  H21  1  0.86225035  0.46392885  0.71405882  1  0.089647  1.5e-05  0.970757  0.0  0.099989  -4.4e-05  1.035876  0.0  0.103244  -5.8e-05  1.034226  0.0  0.098186  0.097755  -1.4e-05  1.036993  0.0
H  H22  1  0.19184360  0.06639993  0.80663910  1  0.134372  -0.000604  0.964915  -0.001  0.145877  -0.000612  1.025251  -0.001  0.14945  -0.000491  1.0243  -0.001  0.104516  0.143416  -0.00087  1.02586  -0.001
H  H23  1  0.22278637  0.64875542  0.97346267  1  0.126841  6.2e-05  0.949764  0.0  0.148644  7.6e-05  1.007414  0.0  0.150837  0.000145  1.00693  0.0  0.096924  0.147229  1.7e-05  1.007425  0.0
H  H24  1  0.13378455  0.80960314  0.83117816  1  0.103816  0.000121  0.965811  0.0  0.124339  0.00012  1.030256  0.0  0.125681  9.8e-05  1.030749  0.0  0.087349  0.123479  0.000133  1.029849  0.0
H  H25  1  0.01905233  0.75404250  0.97128789  1  0.12481  0.000485  0.955468  0.0  0.144106  0.00041  1.021271  0.0  0.146072  0.00037  1.020418  0.0  0.095019  0.142744  0.000438  1.021619  0.0
H  H26  1  0.30191733  0.21182695  0.03143875  1  0.115182  0.000141  0.964096  0.0  0.134164  6.1e-05  1.027466  0.0  0.135912  7.7e-05  1.027394  0.0  0.092318  0.132918  3.1e-05  1.027403  0.0
H  H27  1  0.31031357  0.25162712  0.86675729  1  0.130281  -0.00052  0.940306  0.0  0.152582  -0.000418  0.9977  0.0  0.154451  -0.000332  0.997511  0.0  0.099355  0.151224  -0.000512  0.997907  0.0
H  H28  1  0.49681535  0.15542699  0.97439071  1  0.113331  0.000208  0.97994  0.0  0.131005  0.000111  1.04601  0.0  0.132353  0.000114  1.047036  0.0  0.089435  0.130063  8.1e-05  1.045288  0.0
H  H29  1  0.44266103  0.97955557  0.22543578  1  0.064835  -0.002112  0.927466  -0.002  0.084181  -0.001978  0.989723  -0.002  0.083859  -0.001535  0.989928  -0.002  0.122209  0.084246  -0.002271  0.98971  -0.002
H  H30  1  0.58180451  0.82989534  0.21111677  1  0.072213  -0.000175  0.932539  0.0  0.08602  -5e-05  0.99915  0.0  0.086006  -4.3e-05  0.99926  0.0  0.126175  0.085866  -6.7e-05  0.999208  0.0
H  H31  1  0.18312090  0.75279121  0.44372688  1  0.076596  -0.000275  0.962007  -0.001  0.089083  -0.000448  1.033869  -0.001  0.08975  -0.000311  1.033229  -0.001  0.106129  0.088453  -0.000594  1.034519  -0.001
H  H32  1  0.16139262  0.92154593  0.30830658  1  0.077058  4.2e-05  0.934067  0.0  0.094325  7.9e-05  0.99792  0.0  0.094835  7.2e-05  0.997596  0.0  0.109544  0.093662  9.3e-05  0.99846  0.0
H  H33  1  0.23325913  0.12010813  0.32345304  1  0.086757  6.8e-05  0.96527  0.0  0.098341  -4.7e-05  1.029094  0.0  0.101065  -2.8e-05  1.027988  0.0  0.096912  0.096274  -0.000128  1.029957  0.0
H  H34  1  0.34131803  0.22569950  0.45110495  1  0.092137  0.000157  0.974451  0.0  0.102581  9.5e-05  1.036393  0.0  0.104675  7.1e-05  1.036548  0.0  0.101596  0.101222  9.5e-05  1.036007  0.0
H  H35  1  0.47441203  0.06523791  0.67327253  1  0.083804  0.00015  0.959468  0.0  0.095951  2.2e-05  1.024131  0.0  0.098769  1.9e-05  1.022686  0.0  0.096249  0.093895  -5.3e-05  1.025374  0.0
H  H36  1  0.57189029  0.81911059  0.85395598  1  0.08679  0.000744  0.982258  0.0  0.092401  0.000504  1.055883  0.0  0.095375  0.000414  1.054301  0.0  0.094902  0.090185  0.000613  1.057203  0.0
H  H37  1  0.59598441  0.55518953  0.94930026  1  0.088496  3.5e-05  0.96336  0.0  0.099756  6.2e-05  1.022826  0.0  0.101893  4.2e-05  1.022924  0.0  0.100592  0.097922  8.1e-05  1.023161  0.0
H  H38  1  0.48187547  0.44700535  0.82496362  1  0.085721  6.4e-05  0.954309  0.0  0.102298  4e-06  1.005871  0.0  0.104314  4e-06  1.006027  0.0  0.099922  0.100728  1.1e-05  1.006029  0.0
H  H39  1  0.35785273  0.60099609  0.60203616  1  0.090966  2.4e-05  0.987622  0.0  0.103684  1.2e-05  1.048227  0.0  0.106417  2e-05  1.04757  0.0  0.09863  0.102061  -5e-06  1.048035  0.0
C  C40  1  0.67905349  0.16676176  0.33832671  1  0.286812  -0.003187  3.757998  -0.003  0.289801  -1.9e-05  4.021667  0.0  0.303233  -0.000881  4.03875  -0.001  0.106537  0.281589  0.000736  4.009854  0.001
C  C41  1  0.73719239  0.01355814  0.39801273  1  -0.32852  0.004854  3.723029  0.005  -0.353934  0.003034  3.97636  0.003  -0.365025  0.00268  3.993995  0.003  -0.119548  -0.346678  0.002994  3.963442  0.003
C  C42  1  0.82769812  0.97529981  0.51303415  1  0.236807  -0.003695  3.736926  -0.003  0.227106  -0.00099  3.999776  -0.001  0.239521  -0.001526  4.01582  -0.002  0.102307  0.21922  -0.000817  3.988129  -0.001
C  C43  1  0.57364089  0.26134516  0.21416364  1  -0.354929  0.000295  3.706706  0.001  -0.431803  0.000284  3.935603  0.001  -0.435804  0.000225  3.941338  0.001  -0.239629  -0.428695  0.0003  3.931204  0.001
C  C44  1  0.91320990  0.83043965  0.61705295  1  -0.358378  0.000645  3.722438  0.001  -0.4368  0.000515  3.95829  0.001  -0.439848  0.000424  3.963385  0.001  -0.232854  -0.434472  0.000691  3.954478  0.001
C  C45  1  0.92547566  0.12874273  0.60312341  1  0.12834  -0.000625  3.605058  -0.003  0.051669  0.001671  3.858996  -0.001  0.061926  0.000908  3.868838  -0.001  0.044266  0.044991  0.002303  3.852608  0.0
C  C46  1  0.72117656  0.27209586  0.69084373  1  -0.018663  -0.001812  3.664558  -0.003  -0.086478  -8.2e-05  3.932276  -0.002  -0.080505  -0.000565  3.94221  -0.002  -0.072709  -0.090422  0.000352  3.926049  -0.001
C  C47  1  0.78878220  0.19384810  0.83056357  1  0.008078  0.003334  3.730895  0.003  0.028286  0.00238  3.964849  0.003  0.027208  0.001587  3.988358  0.002  -0.019327  0.029341  0.002892  3.948767  0.003
C  C48  1  0.77469018  0.05229261  0.90517484  1  -0.123223  0.001603  3.775218  0.001  -0.141988  0.001238  4.023243  0.001  -0.144283  0.000978  4.04434  0.001  -0.096205  -0.140705  0.001308  4.008801  0.001
C  C49  1  0.82802767  0.97728718  0.03810108  1  -0.073811  -0.000429  3.809658  0.0  -0.088837  -0.00011  4.066701  0.0  -0.091616  -0.000205  4.089346  0.0  -0.100085  -0.08662  -1.7e-05  4.051058  0.0
C  C50  1  0.88966924  0.04689421  0.09736838  1  -0.108455  0.001737  3.741996  0.001  -0.133996  0.000822  3.997396  0.001  -0.136334  0.000665  4.019191  0.001  -0.091973  -0.132089  0.001181  3.982468  0.001
C  C51  1  0.90835342  0.19124919  0.02554765  1  0.054252  -0.000504  3.797462  -0.001  0.073147  -0.000129  4.019746  0.0  0.072632  -0.000169  4.045776  0.0  -0.009315  0.073318  -9e-05  4.002136  0.0
C  C52  1  0.86292920  0.26505672  0.88882110  1  0.012608  0.000914  3.737505  0.001  0.026468  0.000663  3.956141  0.001  0.024945  0.000562  3.981583  0.001  -0.007175  0.027213  0.000851  3.938939  0.001
C  C53  1  0.97136328  0.26417010  0.08594523  1  -0.124417  0.000259  3.757329  0.0  -0.142999  -0.000142  4.00484  0.0  -0.146362  -3.4e-05  4.02615  0.0  -0.094376  -0.140494  -0.000282  3.99031  0.0
C  C54  1  0.99781293  0.40144827  0.01443341  1  -0.072355  -0.001053  3.789131  -0.001  -0.08595  -0.000432  4.037586  0.0  -0.086924  -0.00037  4.058113  0.0  -0.094645  -0.085236  -0.000422  4.023099  0.0
C  C55  1  0.96140937  0.47085596  0.87937156  1  -0.063386  0.001019  3.777322  0.001  -0.078134  0.000348  4.025043  0.0  -0.080365  0.000314  4.046982  0.0  -0.089895  -0.076647  0.000463  4.009836  0.0
C  C56  1  0.89304521  0.40593295  0.81808819  1  -0.108028  -0.000638  3.751573  -0.001  -0.126535  -0.000219  3.999965  0.0  -0.128316  -0.00025  4.020552  0.0  -0.090266  -0.124856  -0.000199  3.985565  0.0
C  C57  1  0.22225433  0.84957192  0.97957291  1  0.294374  0.00267  3.752383  0.002  0.299614  -0.000128  4.013198  0.0  0.313496  0.000725  4.030578  0.001  0.10845  0.291164  -0.000709  4.001104  -0.001
C  C58  1  0.23550996  0.99453630  0.90689643  1  -0.327296  -0.003609  3.709681  -0.004  -0.353426  -0.002464  3.962253  -0.003  -0.364784  -0.002276  3.980002  -0.003  -0.117876  -0.345771  -0.00252  3.949467  -0.003
C  C59  1  0.31476112  0.03094213  0.98878184  1  0.238742  0.003911  3.728366  0.004  0.230803  0.001256  3.98923  0.001  0.243697  0.001713  4.004642  0.002  0.103844  0.222696  0.000944  3.977883  0.001
C  C60  1  0.14498140  0.76053758  0.93676049  1  -0.360601  -0.0  3.713547  0.0  -0.442785  8.1e-05  3.945374  0.0  -0.446781  0.000112  3.951948  0.0  -0.240106  -0.439963  4.4e-05  3.940141  0.0
C  C61  1  0.35952094  0.16932827  0.96479245  1  -0.365604  -0.000593  3.731931  -0.001  -0.442902  -0.000474  3.964161  -0.001  -0.446309  -0.000393  3.969737  -0.001  -0.238382  -0.440107  -0.000851  3.959974  -0.001
C  C62  1  0.44980928  0.87696271  0.21925544  1  0.129421  0.001054  3.62103  0.003  0.049819  -0.001301  3.878804  0.001  0.060503  -0.000646  3.888571  0.001  0.044972  0.042914  -0.001896  3.872504  0.001
C  C63  1  0.25086994  0.83636182  0.38835179  1  -0.018947  0.001097  3.670281  0.002  -0.085776  -0.00045  3.931195  0.001  -0.08013  6e-05  3.942513  0.001  -0.073819  -0.089318  -0.0009  3.924093  0.001
C  C64  1  0.31179807  0.89872501  0.46885606  1  0.014183  -0.002166  3.738878  -0.002  0.033539  -0.001979  3.974821  -0.002  0.032491  -0.001157  3.998474  -0.001  -0.019898  0.034138  -0.002656  3.958721  -0.003
C  C65  1  0.29515822  0.04754540  0.41992857  1  -0.121662  -0.00347  3.759778  -0.003  -0.143552  -0.001902  4.012866  -0.002  -0.146216  -0.001559  4.033643  -0.001  -0.097234  -0.141891  -0.00226  3.999027  -0.002
C  C66  1  0.35415816  0.10849081  0.49296100  1  -0.068289  0.001875  3.806855  0.002  -0.08255  0.000546  4.06268  0.001  -0.083391  0.00071  4.083449  0.001  -0.098163  -0.082045  0.000257  4.048685  0.0
C  C67  1  0.42957269  0.01918555  0.61576682  1  -0.113864  -0.005251  3.755238  -0.004  -0.140287  -0.002024  4.014038  -0.002  -0.142772  -0.001608  4.034666  -0.001  -0.093236  -0.138777  -0.002066  4.000472  -0.002
C  C68  1  0.44860315  0.86597148  0.67099346  1  0.053539  0.001463  3.799859  0.002  0.073112  0.000308  4.020838  0.0  0.072728  0.000384  4.046739  0.0  -0.010044  0.073427  0.000193  4.003367  0.0
C  C69  1  0.38803109  0.80387797  0.59711671  1  0.006598  -0.001227  3.753716  -0.001  0.020153  -0.000666  3.973542  -0.001  0.019128  -0.00065  3.997737  -0.001  -0.012334  0.020975  -0.000557  3.957047  -0.001
C  C70  1  0.52447564  0.77271170  0.79788460  1  -0.11782  -0.001783  3.755132  -0.002  -0.135067  -5.6e-05  4.000854  0.0  -0.138896  -0.000124  4.023586  0.0  -0.090791  -0.132843  0.000159  3.98608  0.0
C  C71  1  0.53660766  0.62486426  0.85194073  1  -0.058092  0.001639  3.776821  0.001  -0.070761  0.00042  4.023115  0.0  -0.072628  0.000466  4.045995  0.0  -0.089537  -0.069397  0.000311  4.008056  0.0
C  C72  1  0.47324333  0.56394970  0.78091293  1  -0.065813  -0.002258  3.779609  -0.002  -0.078363  -0.000806  4.025944  -0.001  -0.080107  -0.000718  4.047315  -0.001  -0.091456  -0.077477  -0.000751  4.011565  -0.001
C  C73  1  0.40243834  0.65087615  0.65602094  1  -0.123503  0.001128  3.753634  0.001  -0.141325  0.000427  3.99961  0.0  -0.143249  0.000486  4.019705  0.001  -0.098588  -0.139698  0.000315  3.985368  0.0
N  N74  1  0.73296868  0.21983119  0.41298052  1  -0.310867  0.04959  3.1552  0.055  -0.29025  0.045456  3.459466  0.055  -0.31471  0.041979  3.476566  0.053  -0.273444  -0.277753  0.04565  3.450782  0.053
N  N75  1  0.82145855  0.10269531  0.51898497  1  -0.025722  0.002574  3.50409  0.003  0.057084  0.002541  3.728758  0.003  0.04484  0.002109  3.756898  0.002  -0.156881  0.065355  0.002676  3.710182  0.003
N  N76  1  0.84968156  0.27107274  0.59772383  1  -0.401486  0.069612  3.279783  0.078  -0.346878  0.060822  3.54789  0.074  -0.374794  0.053312  3.559475  0.068  -0.483227  -0.330547  0.063103  3.54166  0.074
N  N77  1  0.60490415  0.53776096  0.24324204  1  -0.520487  0.076107  2.813473  0.085  -0.561805  0.04074  3.186566  0.049  -0.605901  0.02696  3.197806  0.035  -0.330362  -0.536664  0.049858  3.181605  0.057
N  N78  1  0.67546049  0.60917863  0.15370257  1  0.371496  -0.028969  4.180668  -0.041  0.418162  -0.002908  4.49433  -0.009  0.438097  -0.006303  4.527988  -0.013  0.077087  0.405722  0.00016  4.471279  -0.007
N  N79  1  0.73809619  0.68080725  0.06420213  1  -0.3458  0.130515  2.390195  0.133  -0.359089  0.06466  2.630396  0.069  -0.367716  0.055701  2.641031  0.063  -0.173902  -0.351893  0.072053  2.621893  0.075
N  N80  1  0.73294425  0.57824576  0.44916879  1  -0.507493  0.07323  2.688769  0.082  -0.537871  0.040517  3.018956  0.049  -0.574787  0.025638  3.031808  0.034  -0.316921  -0.518179  0.047703  3.013274  0.055
N  N81  1  0.84009543  0.64434488  0.40346760  1  0.359774  -0.028608  4.201107  -0.04  0.408612  -0.003804  4.509745  -0.011  0.42748  -0.006849  4.54535  -0.014  0.073339  0.397213  0.000363  4.487345  -0.006
N  N82  1  0.94157905  0.71128756  0.36053129  1  -0.361487  0.129873  2.412316  0.132  -0.384386  0.069139  2.66777  0.074  -0.399862  0.060346  2.680571  0.068  -0.181891  -0.376833  0.072424  2.66051  0.075
N  N83  1  0.20446629  0.51269350  0.21692038  1  -0.469369  -0.082404  2.706859  -0.092  -0.499852  -0.041272  3.034594  -0.051  -0.536376  -0.025274  3.044998  -0.034  -0.296007  -0.478815  -0.051336  3.028858  -0.06
N  N84  1  0.10533436  0.44822851  0.27985374  1  0.377516  0.028763  4.205207  0.04  0.43405  0.002834  4.506294  0.008  0.454809  0.004727  4.542574  0.01  0.082556  0.421624  0.0005  4.482207  0.006
N  N85  1  0.00957778  0.37990054  0.33702147  1  -0.400992  -0.128095  2.532117  -0.13  -0.438526  -0.061635  2.821853  -0.066  -0.459338  -0.051908  2.832309  -0.058  -0.220068  -0.426084  -0.067886  2.814988  -0.071
N  N86  1  0.35789849  0.47470854  0.45747577  1  -0.495539  -0.073985  2.699273  -0.083  -0.539273  -0.040815  3.050052  -0.049  -0.581629  -0.025052  3.061792  -0.033  -0.307018  -0.516488  -0.049481  3.044682  -0.057
N  N87  1  0.25692133  0.42465994  0.53028343  1  0.373332  0.028727  4.213973  0.041  0.427793  0.003193  4.51839  0.009  0.447727  0.005568  4.554984  0.011  0.08037  0.415949  0.000249  4.494022  0.006
N  N88  1  0.16719910  0.37087993  0.60821558  1  -0.387633  -0.137266  2.398932  -0.14  -0.411326  -0.067339  2.64054  -0.073  -0.425783  -0.05631  2.654127  -0.064  -0.203243  -0.402323  -0.073534  2.630989  -0.077
N  N89  1  0.29137562  0.79882739  0.10045768  1  -0.317091  -0.045651  3.130838  -0.051  -0.295069  -0.044619  3.431005  -0.054  -0.320671  -0.041464  3.448782  -0.053  -0.270416  -0.281625  -0.045037  3.421863  -0.053
N  N90  1  0.34542452  0.91037087  0.10489501  1  -0.026022  -0.002493  3.506894  -0.003  0.056667  -0.002582  3.732611  -0.003  0.044363  -0.002174  3.760831  -0.003  -0.159122  0.064928  -0.002781  3.714036  -0.003
N  N91  1  0.38947121  0.77013344  0.33080550  1  -0.403535  -0.06559  3.267975  -0.073  -0.345137  -0.05928  3.533543  -0.072  -0.373703  -0.051739  3.54577  -0.067  -0.481951  -0.328881  -0.060821  3.527057  -0.071
