# generated using pymatgen
data_CuH8C10S2BrN2
_symmetry_space_group_name_H-M   'P 1'
_cell_length_a   7.94012500
_cell_length_b   10.22319523
_cell_length_c   14.87200048
_cell_angle_alpha   89.99977604
_cell_angle_beta   89.99998665
_cell_angle_gamma   111.05871722
_symmetry_Int_Tables_number   1
_chemical_formula_structural   CuH8C10S2BrN2
_chemical_formula_sum   'Cu4 H32 C40 S8 Br4 N8'
_cell_volume   1126.58513102
_cell_formula_units_Z   4
loop_
 _symmetry_equiv_pos_site_id
 _symmetry_equiv_pos_as_xyz
  1  'x, y, z'
loop_
 _atom_site_type_symbol
 _atom_site_label
 _atom_site_symmetry_multiplicity
 _atom_site_fract_x
 _atom_site_fract_y
 _atom_site_fract_z
 _atom_site_occupancy
 _atom_site_hle17_bader_spin_density
 _atom_site_hle17_ddec_charge
 _atom_site_hle17_ddec_spin_density
 _atom_site_hle17_ddec_sum_bond_order
 _atom_site_hle17_magmom
 _atom_site_hse06_10hf_bader_spin_density
 _atom_site_hse06_10hf_ddec_charge
 _atom_site_hse06_10hf_ddec_spin_density
 _atom_site_hse06_10hf_ddec_sum_bond_order
 _atom_site_hse06_10hf_magmom
 _atom_site_hse06_bader_spin_density
 _atom_site_hse06_ddec_charge
 _atom_site_hse06_ddec_spin_density
 _atom_site_hse06_ddec_sum_bond_order
 _atom_site_hse06_magmom
 _atom_site_pbe_bader_spin_density
 _atom_site_pbe_cm5_charge
 _atom_site_pbe_ddec_charge
 _atom_site_pbe_ddec_spin_density
 _atom_site_pbe_ddec_sum_bond_order
 _atom_site_pbe_magmom
Cu  Cu0  1  0.02678316  0.65096109  0.95956605  1  0  0.397259  0  2.000011  0  0  0.299124  0  2.469878  0  0  0.296578  0  2.425844  0  0  0.399847  0.305299  0  2.496162  0
Cu  Cu1  1  0.47320071  0.84903310  0.45957248  1  0  0.397275  0  2.000051  0  0  0.299069  0  2.469883  0  0  0.296514  0  2.425834  0  0  0.399834  0.305258  0  2.496157  0
Cu  Cu2  1  0.97320785  0.34903326  0.04042977  1  0  0.397246  0  2.000057  0  0  0.299121  0  2.469896  0  0  0.296567  0  2.42587  0  0  0.399886  0.305296  0  2.496184  0
Cu  Cu3  1  0.52680803  0.15098005  0.54043679  1  0  0.397315  0  2.000076  0  0  0.299148  0  2.469903  0  0  0.296582  0  2.425866  0  0  0.399873  0.305331  0  2.496193  0
H  H4  1  0.94527479  0.81457745  0.64462291  1  0  0.105658  0  0.982024  0  0  0.111601  0  1.050724  0  0  0.114945  0  1.050191  0  0  0.096716  0.108887  0  1.051847  0
H  H5  1  0.55472522  0.68543576  0.14462112  1  0  0.105501  0  0.98196  0  0  0.111444  0  1.050706  0  0  0.114792  0  1.050167  0  0  0.096663  0.10873  0  1.051827  0
H  H6  1  0.05472126  0.18541160  0.35537897  1  0  0.105594  0  0.981921  0  0  0.111538  0  1.050645  0  0  0.114886  0  1.050107  0  0  0.096694  0.108823  0  1.051767  0
H  H7  1  0.44527675  0.31457639  0.85538210  1  0  0.105591  0  0.981807  0  0  0.111501  0  1.050572  0  0  0.11488  0  1.05  0  0  0.096678  0.10879  0  1.0517  0
H  H8  1  0.60839426  0.73285360  0.65074530  1  0  0.092366  0  0.974343  0  0  0.097663  0  1.045324  0  0  0.100933  0  1.042397  0  0  0.093329  0.095111  0  1.047562  0
H  H9  1  0.89161518  0.76717949  0.15074658  1  0  0.092332  0  0.974432  0  0  0.097667  0  1.04535  0  0  0.100879  0  1.042491  0  0  0.093392  0.095116  0  1.047589  0
H  H10  1  0.39160823  0.26715434  0.34925188  1  0  0.092378  0  0.974418  0  0  0.097729  0  1.045328  0  0  0.100945  0  1.042458  0  0  0.093353  0.095175  0  1.047568  0
H  H11  1  0.10839030  0.23283474  0.84925529  1  0  0.092381  0  0.974343  0  0  0.097718  0  1.045262  0  0  0.100943  0  1.04239  0  0  0.093365  0.095164  0  1.047504  0
H  H12  1  0.44842681  0.59325560  0.78752401  1  0  0.106405  0  0.97535  0  0  0.113057  0  1.041908  0  0  0.116042  0  1.042192  0  0  0.091265  0.110881  0  1.041874  0
H  H13  1  0.05157077  0.90677539  0.28752901  1  0  0.106431  0  0.975206  0  0  0.113047  0  1.041843  0  0  0.116015  0  1.042145  0  0  0.091288  0.110884  0  1.041774  0
H  H14  1  0.55156662  0.40675978  0.21247384  1  0  0.106423  0  0.975296  0  0  0.113045  0  1.041921  0  0  0.11601  0  1.042235  0  0  0.091247  0.110881  0  1.041852  0
H  H15  1  0.94843497  0.09323673  0.71247489  1  0  0.106442  0  0.975232  0  0  0.11304  0  1.041882  0  0  0.116007  0  1.042207  0  0  0.091266  0.110875  0  1.041811  0
H  H16  1  0.63643967  0.56459340  0.91492316  1  0  0.077037  0  0.982805  0  0  0.080514  0  1.05711  0  0  0.084062  0  1.054154  0  0  0.092451  0.077829  0  1.059301  0
H  H17  1  0.86354467  0.93541607  0.41492467  1  0  0.077115  0  0.9829  0  0  0.080593  0  1.057221  0  0  0.084135  0  1.054271  0  0  0.092493  0.077917  0  1.059385  0
H  H18  1  0.36353825  0.43541053  0.08508073  1  0  0.07709  0  0.982876  0  0  0.080565  0  1.057196  0  0  0.08411  0  1.05424  0  0  0.092466  0.077879  0  1.059384  0
H  H19  1  0.13645934  0.06458975  0.58507922  1  0  0.077111  0  0.982881  0  0  0.080585  0  1.057201  0  0  0.084131  0  1.054245  0  0  0.092501  0.077902  0  1.059384  0
H  H20  1  0.40470821  0.55536918  0.41509400  1  0  0.07215  0  0.952396  0  0  0.079216  0  1.020289  0  0  0.0814  0  1.018931  0  0  0.107434  0.077531  0  1.021457  0
H  H21  1  0.09530345  0.94461456  0.91509819  1  0  0.072024  0  0.952633  0  0  0.079111  0  1.020498  0  0  0.0813  0  1.01913  0  0  0.107307  0.077425  0  1.021664  0
H  H22  1  0.59532087  0.44464170  0.58491191  1  0  0.072054  0  0.952542  0  0  0.079138  0  1.0204  0  0  0.081323  0  1.019037  0  0  0.107337  0.077439  0  1.021583  0
H  H23  1  0.90471369  0.05537116  0.08489629  1  0  0.072073  0  0.952577  0  0  0.079157  0  1.020468  0  0  0.081339  0  1.019108  0  0  0.107356  0.077477  0  1.021618  0
H  H24  1  0.20988538  0.31882668  0.47124684  1  0  0.107009  0  0.959519  0  0  0.118639  0  1.019709  0  0  0.121897  0  1.018464  0  0  0.104452  0.115303  0  1.022289  0
H  H25  1  0.29015396  0.18114758  0.97124701  1  0  0.106806  0  0.959883  0  0  0.118452  0  1.020037  0  0  0.121677  0  1.018843  0  0  0.104405  0.11514  0  1.022586  0
H  H26  1  0.79013569  0.68117795  0.52874495  1  0  0.106916  0  0.959731  0  0  0.118609  0  1.019851  0  0  0.121906  0  1.01856  0  0  0.10446  0.115274  0  1.022428  0
H  H27  1  0.70985087  0.81884140  0.02874815  1  0  0.106857  0  0.959843  0  0  0.118533  0  1.019954  0  0  0.121809  0  1.018688  0  0  0.104405  0.115196  0  1.022534  0
H  H28  1  0.01387341  0.30423446  0.60588579  1  0  0.092515  0  0.973242  0  0  0.100566  0  1.040126  0  0  0.103148  0  1.038465  0  0  0.096285  0.098748  0  1.040939  0
H  H29  1  0.48616340  0.19573169  0.10588524  1  0  0.092321  0  0.973304  0  0  0.100356  0  1.04023  0  0  0.102935  0  1.038568  0  0  0.096256  0.098548  0  1.04103  0
H  H30  1  0.98611961  0.69575883  0.39409726  1  0  0.092466  0  0.973265  0  0  0.100532  0  1.040137  0  0  0.103111  0  1.038479  0  0  0.096274  0.098723  0  1.040931  0
H  H31  1  0.51382560  0.80426373  0.89411731  1  0  0.092406  0  0.97334  0  0  0.100444  0  1.040267  0  0  0.103023  0  1.038607  0  0  0.096261  0.098627  0  1.041078  0
H  H32  1  0.04745874  0.52431903  0.68987688  1  0  0.104089  0  0.986603  0  0  0.107972  0  1.058591  0  0  0.110984  0  1.058312  0  0  0.094533  0.10587  0  1.058874  0
H  H33  1  0.45256479  0.97564187  0.18987289  1  0  0.103993  0  0.986598  0  0  0.107916  0  1.058508  0  0  0.110928  0  1.058225  0  0  0.09457  0.105811  0  1.058792  0
H  H34  1  0.95252452  0.47566697  0.31011424  1  0  0.104008  0  0.986737  0  0  0.107916  0  1.058659  0  0  0.110927  0  1.058374  0  0  0.094574  0.105812  0  1.058944  0
H  H35  1  0.54742923  0.02435351  0.81013034  1  0  0.103965  0  0.986652  0  0  0.107892  0  1.058553  0  0  0.110904  0  1.05827  0  0  0.094555  0.105788  0  1.058833  0
C  C36  1  0.96357984  0.72779491  0.77476221  1  0  0.184587  0  3.769746  0  0  0.187894  0  4.030193  0  0  0.195649  0  4.048807  0  0  0.103825  0.182794  0  4.017708  0
C  C37  1  0.53641903  0.77220799  0.27476153  1  0  0.184331  0  3.769872  0  0  0.187626  0  4.030303  0  0  0.195398  0  4.048895  0  0  0.103718  0.182523  0  4.017825  0
C  C38  1  0.03641919  0.27220043  0.22524034  1  0  0.184534  0  3.76978  0  0  0.187779  0  4.030257  0  0  0.195537  0  4.048876  0  0  0.103823  0.18268  0  4.01777  0
C  C39  1  0.46358623  0.22779782  0.72524304  1  0  0.184366  0  3.769903  0  0  0.187658  0  4.03036  0  0  0.195399  0  4.04898  0  0  0.103744  0.182563  0  4.017869  0
C  C40  1  0.87070245  0.75651823  0.70230253  1  0  -0.164716  0  3.753549  0  0  -0.180468  0  3.997871  0  0  -0.189294  0  4.021221  0  0  -0.096636  -0.174614  0  3.9821  0
C  C41  1  0.62929884  0.74350301  0.20230527  1  0  -0.164338  0  3.753547  0  0  -0.180105  0  3.997904  0  0  -0.188937  0  4.021233  0  0  -0.096518  -0.174253  0  3.982134  0
C  C42  1  0.12929381  0.24347923  0.29769464  1  0  -0.164614  0  3.753666  0  0  -0.180372  0  3.998027  0  0  -0.1892  0  4.021362  0  0  -0.096602  -0.174518  0  3.982252  0
C  C43  1  0.37070841  0.25650699  0.79769324  1  0  -0.164438  0  3.753561  0  0  -0.180143  0  3.997901  0  0  -0.188992  0  4.021212  0  0  -0.096534  -0.174301  0  3.982136  0
C  C44  1  0.68318768  0.70910063  0.70595175  1  0  0.004826  0  3.715927  0  0  -0.011293  0  3.962135  0  0  -0.005413  0  3.978106  0  0  -0.075517  -0.014602  0  3.95053  0
C  C45  1  0.81681007  0.79092377  0.20595097  1  0  0.00471  0  3.716147  0  0  -0.011429  0  3.962312  0  0  -0.005498  0  3.978303  0  0  -0.075578  -0.014745  0  3.950723  0
C  C46  1  0.31680631  0.29090001  0.29404744  1  0  0.004804  0  3.716044  0  0  -0.011326  0  3.962187  0  0  -0.005403  0  3.97819  0  0  -0.075493  -0.014637  0  3.950589  0
C  C47  1  0.18319567  0.20908835  0.79405091  1  0  0.004763  0  3.716006  0  0  -0.011389  0  3.962167  0  0  -0.00547  0  3.978165  0  0  -0.075514  -0.014704  0  3.950571  0
C  C48  1  0.59505680  0.63460512  0.78151802  1  0  -0.135352  0  3.739028  0  0  -0.147622  0  3.988318  0  0  -0.155106  0  4.008886  0  0  -0.098575  -0.143002  0  3.974086  0
C  C49  1  0.90493595  0.86541672  0.28152106  1  0  -0.135166  0  3.738769  0  0  -0.147386  0  3.988033  0  0  -0.154852  0  4.008574  0  0  -0.098515  -0.142769  0  3.973817  0
C  C50  1  0.40493390  0.36540186  0.21847982  1  0  -0.135328  0  3.738682  0  0  -0.14758  0  3.987994  0  0  -0.155054  0  4.008529  0  0  -0.098583  -0.142963  0  3.973778  0
C  C51  1  0.09506605  0.13459017  0.71848217  1  0  -0.135278  0  3.738893  0  0  -0.147478  0  3.988161  0  0  -0.15496  0  4.008705  0  0  -0.098531  -0.142856  0  3.973935  0
C  C52  1  0.69809653  0.61699027  0.85275391  1  0  0.128593  0  3.692147  0  0  0.100368  0  3.943157  0  0  0.107456  0  3.957922  0  0  0.031883  0.095767  0  3.932774  0
C  C53  1  0.80189954  0.88302267  0.35276095  1  0  0.128431  0  3.691919  0  0  0.100116  0  3.942969  0  0  0.107205  0  3.957736  0  0  0.031829  0.095521  0  3.932587  0
C  C54  1  0.30189394  0.38301356  0.14724124  1  0  0.128511  0  3.69172  0  0  0.100212  0  3.942763  0  0  0.107309  0  3.957527  0  0  0.031829  0.095619  0  3.932375  0
C  C55  1  0.19810397  0.11698211  0.64724362  1  0  0.128455  0  3.691976  0  0  0.100166  0  3.943027  0  0  0.107251  0  3.95778  0  0  0.031768  0.095571  0  3.932636  0
C  C56  1  0.32420525  0.54379472  0.47596143  1  0  0.123193  0  3.715274  0  0  0.094132  0  3.972091  0  0  0.100841  0  3.988608  0  0  0.034411  0.089693  0  3.960656  0
C  C57  1  0.17579448  0.95617187  0.97596221  1  0  0.12344  0  3.714727  0  0  0.094372  0  3.971445  0  0  0.101086  0  3.987959  0  0  0.034692  0.089926  0  3.960005  0
C  C58  1  0.67580732  0.45620261  0.52404045  1  0  0.123303  0  3.715336  0  0  0.094275  0  3.972068  0  0  0.100979  0  3.988596  0  0  0.034498  0.089844  0  3.960635  0
C  C59  1  0.82421061  0.04381500  0.02403295  1  0  0.123258  0  3.715298  0  0  0.09419  0  3.972018  0  0  0.100904  0  3.988551  0  0  0.03459  0.089753  0  3.960582  0
C  C60  1  0.21392101  0.41292067  0.50662191  1  0  -0.124818  0  3.72793  0  0  -0.139962  0  3.979062  0  0  -0.146586  0  3.999026  0  0  -0.09376  -0.134914  0  3.965989  0
C  C61  1  0.28610876  0.08706513  0.00662304  1  0  -0.124989  0  3.727977  0  0  -0.140211  0  3.979153  0  0  -0.146815  0  3.999129  0  0  -0.093944  -0.135185  0  3.96608  0
C  C62  1  0.78609480  0.58708085  0.49337391  1  0  -0.124828  0  3.727913  0  0  -0.140041  0  3.979026  0  0  -0.146696  0  3.998974  0  0  -0.093762  -0.134995  0  3.965958  0
C  C63  1  0.71389280  0.91292492  0.99337884  1  0  -0.12482  0  3.728052  0  0  -0.140029  0  3.979183  0  0  -0.146665  0  3.999137  0  0  -0.093807  -0.134986  0  3.966121  0
C  C64  1  0.10865840  0.40497549  0.58307164  1  0  0.015717  0  3.707159  0  0  -0.001278  0  3.950857  0  0  0.004521  0  3.967828  0  0  -0.070677  -0.00536  0  3.939531  0
C  C65  1  0.39135467  0.09498575  0.08306600  1  0  0.015975  0  3.707863  0  0  -0.000923  0  3.951474  0  0  0.004877  0  3.968435  0  0  -0.070707  -0.005005  0  3.94015  0
C  C66  1  0.89133362  0.59501570  0.41691679  1  0  0.015849  0  3.70724  0  0  -0.001165  0  3.950942  0  0  0.004631  0  3.967923  0  0  -0.070697  -0.005243  0  3.939619  0
C  C67  1  0.60863710  0.90500755  0.91693319  1  0  0.015824  0  3.707973  0  0  -0.001145  0  3.951649  0  0  0.004648  0  3.968636  0  0  -0.070737  -0.005215  0  3.940294  0
C  C68  1  0.12521779  0.52729309  0.62912176  1  0  -0.159993  0  3.737262  0  0  -0.174448  0  3.980534  0  0  -0.183164  0  4.004037  0  0  -0.094964  -0.169931  0  3.965904  0
C  C69  1  0.37480687  0.97268609  0.12911846  1  0  -0.159684  0  3.737289  0  0  -0.174218  0  3.980595  0  0  -0.182913  0  4.004104  0  0  -0.094792  -0.169704  0  3.965972  0
C  C70  1  0.87477147  0.47270023  0.37087137  1  0  -0.160024  0  3.73743  0  0  -0.174491  0  3.980773  0  0  -0.183199  0  4.004268  0  0  -0.09499  -0.169977  0  3.96615  0
C  C71  1  0.62518741  0.02730718  0.87088342  1  0  -0.159598  0  3.73718  0  0  -0.174088  0  3.980496  0  0  -0.182794  0  4.003993  0  0  -0.094746  -0.169572  0  3.965863  0
C  C72  1  0.24425143  0.65488630  0.59570980  1  0  0.188866  0  3.747266  0  0  0.194087  0  4.002194  0  0  0.201869  0  4.021001  0  0  0.107469  0.188687  0  3.990237  0
C  C73  1  0.25574202  0.84508283  0.09570955  1  0  0.188601  0  3.747392  0  0  0.193841  0  4.002309  0  0  0.201588  0  4.021176  0  0  0.107354  0.188435  0  3.990346  0
C  C74  1  0.75574611  0.34510589  0.40428872  1  0  0.189059  0  3.747369  0  0  0.194261  0  4.002323  0  0  0.20204  0  4.021123  0  0  0.107482  0.188862  0  3.990365  0
C  C75  1  0.74425602  0.15491041  0.90429434  1  0  0.188604  0  3.747283  0  0  0.193795  0  4.002284  0  0  0.201581  0  4.021093  0  0  0.107323  0.188396  0  3.990327  0
S  S76  1  0.20032148  0.76776135  0.77780015  1  0  -0.017764  0  2.491725  0  0  -0.021274  0  2.875448  0  0  -0.017531  0  2.867368  0  0  0.034042  -0.024276  0  2.880486  0
S  S77  1  0.29967128  0.73222765  0.27780693  1  0  -0.017681  0  2.491524  0  0  -0.02124  0  2.875342  0  0  -0.017501  0  2.867253  0  0  0.034032  -0.024246  0  2.880389  0
S  S78  1  0.79966706  0.23222251  0.22220038  1  0  -0.017681  0  2.491309  0  0  -0.021198  0  2.875072  0  0  -0.017453  0  2.866987  0  0  0.034042  -0.024207  0  2.880116  0
S  S79  1  0.70032972  0.26777714  0.72219831  1  0  -0.017646  0  2.49136  0  0  -0.021186  0  2.875145  0  0  -0.017439  0  2.867066  0  0  0.034033  -0.024192  0  2.880187  0
S  S80  1  0.28437226  0.82037365  0.64669262  1  0  0.01249  0  2.544929  0  0  0.006734  0  2.928389  0  0  0.012075  0  2.919737  0  0  0.043659  0.002106  0  2.93374  0
S  S81  1  0.21561425  0.67959416  0.14670158  1  0  0.012562  0  2.54484  0  0  0.006779  0  2.928333  0  0  0.012132  0  2.91969  0  0  0.043681  0.002152  0  2.93369  0
S  S82  1  0.71562151  0.17961858  0.35331127  1  0  0.012369  0  2.544895  0  0  0.006614  0  2.928378  0  0  0.011956  0  2.919721  0  0  0.043604  0.001986  0  2.933732  0
S  S83  1  0.78438604  0.32040117  0.85330635  1  0  0.012472  0  2.544895  0  0  0.00672  0  2.928381  0  0  0.012061  0  2.919728  0  0  0.043665  0.002086  0  2.933737  0
Br  Br84  1  0.22499859  0.51160903  0.94127682  1  0  -0.549826  0  1.30684  0  0  -0.491017  0  1.68197  0  0  -0.511039  0  1.652256  0  0  -0.274141  -0.4766  0  1.701631  0
Br  Br85  1  0.27500712  0.98839667  0.44128358  1  0  -0.549793  0  1.306806  0  0  -0.490954  0  1.681922  0  0  -0.510976  0  1.652221  0  0  -0.274115  -0.476552  0  1.701596  0
Br  Br86  1  0.77499815  0.48839474  0.05872775  1  0  -0.549796  0  1.306749  0  0  -0.490987  0  1.681883  0  0  -0.511006  0  1.652173  0  0  -0.274135  -0.476572  0  1.70154  0
Br  Br87  1  0.72500714  0.01161748  0.55872368  1  0  -0.549833  0  1.30685  0  0  -0.490962  0  1.681909  0  0  -0.510975  0  1.652202  0  0  -0.274118  -0.476556  0  1.70158  0
N  N88  1  0.88048488  0.66315191  0.85057726  1  0  -0.328747  0  3.346885  0  0  -0.259096  0  3.631867  0  0  -0.269197  0  3.63751  0  0  -0.363345  -0.252921  0  3.627326  0
N  N89  1  0.61950421  0.83685163  0.35057975  1  0  -0.328663  0  3.346475  0  0  -0.258917  0  3.63137  0  0  -0.269023  0  3.637007  0  0  -0.363333  -0.252744  0  3.626827  0
N  N90  1  0.11949934  0.33684671  0.14942328  1  0  -0.328729  0  3.346474  0  0  -0.258963  0  3.631377  0  0  -0.26906  0  3.637008  0  0  -0.363334  -0.252789  0  3.62683  0
N  N91  1  0.38050006  0.16315209  0.64942549  1  0  -0.328721  0  3.346498  0  0  -0.259028  0  3.631453  0  0  -0.269095  0  3.637066  0  0  -0.363352  -0.252858  0  3.626906  0
N  N92  1  0.33889166  0.66437903  0.51860986  1  0  -0.3316  0  3.360715  0  0  -0.265153  0  3.654371  0  0  -0.275105  0  3.658834  0  0  -0.364015  -0.258342  0  3.650557  0
N  N93  1  0.16110827  0.83560108  0.01861033  1  0  -0.331479  0  3.360798  0  0  -0.264989  0  3.654338  0  0  -0.27495  0  3.658848  0  0  -0.363974  -0.258165  0  3.650517  0
N  N94  1  0.66111864  0.33562147  0.48139135  1  0  -0.331657  0  3.360981  0  0  -0.265229  0  3.654651  0  0  -0.275175  0  3.659112  0  0  -0.363965  -0.258409  0  3.65081  0
N  N95  1  0.83889981  0.16439208  0.98139222  1  0  -0.3315  0  3.361052  0  0  -0.265052  0  3.654751  0  0  -0.275023  0  3.659247  0  0  -0.364064  -0.258225  0  3.650898  0
