# generated using pymatgen
data_ZnH9C18NO7
_symmetry_space_group_name_H-M   'P 1'
_cell_length_a   10.83949411
_cell_length_b   11.49934996
_cell_length_c   13.22246578
_cell_angle_alpha   70.94722211
_cell_angle_beta   90.92447929
_cell_angle_gamma   72.07414647
_symmetry_Int_Tables_number   1
_chemical_formula_structural   ZnH9C18NO7
_chemical_formula_sum   'Zn2 H18 C36 N2 O14'
_cell_volume   1469.71704626
_cell_formula_units_Z   2
loop_
 _symmetry_equiv_pos_site_id
 _symmetry_equiv_pos_as_xyz
  1  'x, y, z'
loop_
 _atom_site_type_symbol
 _atom_site_label
 _atom_site_symmetry_multiplicity
 _atom_site_fract_x
 _atom_site_fract_y
 _atom_site_fract_z
 _atom_site_occupancy
 _atom_site_pbe_bader_charge
 _atom_site_pbe_bader_spin_density
 _atom_site_pbe_cm5_charge
 _atom_site_pbe_ddec_charge
 _atom_site_pbe_ddec_spin_density
 _atom_site_pbe_ddec_sum_bond_order
 _atom_site_pbe_magmom
Zn  Zn0  1  0.44842892  0.63988048  0.46784429  1  1.300285  0  0.68329  0.854556  0  2.343066  0
Zn  Zn1  1  0.55154389  0.36012444  0.53215422  1  1.299446  0  0.683272  0.854642  0  2.34297  0
H  H2  1  0.97182340  0.32406116  0.65218433  1  0.114335  0  0.111585  0.109928  0  0.969705  0
H  H3  1  0.02814957  0.67592378  0.34780451  1  0.089909  0  0.111676  0.109929  0  0.96971  0
H  H4  1  0.88257933  0.71088045  0.51797650  1  0.062689  0  0.102977  0.09724  0  0.983877  0
H  H5  1  0.11738773  0.28910456  0.48200546  1  0.062523  0  0.103009  0.097265  0  0.983801  0
H  H6  1  0.50294460  0.33869409  0.21040812  1  0.082464  0  0.097173  0.096515  0  1.031395  0
H  H7  1  0.49703301  0.66136167  0.78957189  1  0.082191  0  0.097163  0.096579  0  1.031201  0
H  H8  1  0.49472027  0.73508186  0.12702550  1  0.097143  0  0.107323  0.113873  0  0.99609  0
H  H9  1  0.50527433  0.26496256  0.87296705  1  0.097617  0  0.107269  0.113722  0  0.996227  0
H  H10  1  0.50494980  0.24162804  0.06666065  1  0.056409  0  0.10133  0.104236  0  0.999037  0
H  H11  1  0.49498664  0.75844408  0.93332831  1  0.056155  0  0.101299  0.104341  0  0.998738  0
H  H12  1  0.64204791  0.05059639  0.32740508  1  0.152012  0  0.121753  0.137195  0  1.026406  0
H  H13  1  0.35799112  0.94937706  0.67261294  1  0.15081  0  0.121761  0.137309  0  1.026445  0
H  H14  1  0.02470385  0.53393988  0.74732950  1  0.053794  0  0.099912  0.029015  0  0.950134  0
H  H15  1  0.97523985  0.46608556  0.25263814  1  0.052902  0  0.099871  0.028982  0  0.950392  0
H  H16  1  0.49545838  0.80077044  0.29693723  1  0.151107  0  0.117977  0.07447  0  1.034247  0
H  H17  1  0.50455772  0.19922535  0.70307102  1  0.159142  0  0.117987  0.074484  0  1.034066  0
H  H18  1  0.26181022  0.77586352  0.68995240  1  0.088078  0  0.112015  0.054397  0  0.95559  0
H  H19  1  0.73814278  0.22420205  0.31002302  1  0.087753  0  0.112041  0.054441  0  0.955728  0
C  C20  1  0.50086966  0.47674898  0.70450793  1  1.569511  0  0.222683  0.607832  0  4.13824  0
C  C21  1  0.49911589  0.52328615  0.29548622  1  1.568098  0  0.22301  0.608199  0  4.137968  0
C  C22  1  0.49823411  0.57018738  0.85070807  1  -0.093331  0  -0.082968  -0.148281  0  3.95033  0
C  C23  1  0.50173678  0.42986977  0.14927327  1  -0.092827  0  -0.082906  -0.147982  0  3.950164  0
C  C24  1  0.49874356  0.56054576  0.96015668  1  0.018109  0  -0.005465  0.08  0  4.00075  0
C  C25  1  0.50121841  0.43951409  0.03982502  1  -0.02708  0  -0.005623  0.079918  0  4.000961  0
C  C26  1  0.60512207  0.06140931  0.40104894  1  -0.018936  0  -0.055889  -0.160874  0  3.867843  0
C  C27  1  0.39492114  0.93856633  0.59896946  1  -0.019787  0  -0.055874  -0.161046  0  3.868134  0
C  C28  1  0.64029297  0.14046766  0.44700835  1  0.453443  0  0.120863  0.180057  0  3.957943  0
C  C29  1  0.35972764  0.85953547  0.55299176  1  0.45452  0  0.120676  0.179874  0  3.958239  0
C  C30  1  0.51415193  0.09722509  0.58693816  1  0.55669  0  0.142874  0.155971  0  3.86332  0
C  C31  1  0.48591811  0.90273252  0.41309385  1  0.577383  0  0.142819  0.15607  0  3.863387  0
C  C32  1  0.47738169  0.00804697  0.54854289  1  -0.026612  0  0.022862  0.051778  0  3.922174  0
C  C33  1  0.52267339  0.99191961  0.45148845  1  0.020695  0  0.022997  0.051912  0  3.922177  0
C  C34  1  0.26909995  0.47830108  0.49691786  1  1.599209  0  0.219939  0.606953  0  4.172636  0
C  C35  1  0.73087913  0.52167945  0.50308165  1  1.598809  0  0.220062  0.606967  0  4.172655  0
C  C36  1  0.05068953  0.50504563  0.59253258  1  0.00981  0  0.00224  0.019386  0  3.649607  0
C  C37  1  0.94928090  0.49494189  0.40745354  1  0.011226  0  0.001925  0.019063  0  3.649971  0
C  C38  1  0.98512044  0.40195078  0.58386535  1  -0.050004  0  -0.056634  -0.064963  0  3.586073  0
C  C39  1  0.01485427  0.59802987  0.41612114  1  -0.024851  0  -0.056535  -0.06454  0  3.586041  0
C  C40  1  0.87020707  0.51466236  0.50287524  1  0.015247  0  -0.000897  -0.03929  0  3.650474  0
C  C41  1  0.12976743  0.48531976  0.49711329  1  0.01467  0  -0.000991  -0.040101  0  3.651092  0
C  C42  1  0.93390272  0.61710747  0.50957587  1  -0.002954  0  -0.063616  -0.073265  0  3.609209  0
C  C43  1  0.06606945  0.38287626  0.49041010  1  -0.002576  0  -0.063507  -0.072925  0  3.609082  0
C  C44  1  0.49903633  0.53482026  0.17975043  1  0.005993  0  -0.01557  -0.023787  0  3.980251  0
C  C45  1  0.50094512  0.46522818  0.82023768  1  0.00536  0  -0.015532  -0.023423  0  3.980615  0
C  C46  1  0.50356760  0.33345666  0.00616313  1  -0.053375  0  -0.088768  -0.133284  0  3.991481  0
C  C47  1  0.49639267  0.66660344  0.99382313  1  -0.053792  0  -0.088836  -0.133508  0  3.990923  0
C  C48  1  0.50415166  0.34565553  0.89921124  1  0.004268  0  -0.082909  -0.087226  0  3.98541  0
C  C49  1  0.49583263  0.65439311  0.10077912  1  0.004079  0  -0.083057  -0.08734  0  3.985168  0
C  C50  1  0.10186755  0.50627490  0.69595242  1  0.923324  0  0.105521  0.272519  0  3.988578  0
C  C51  1  0.89809045  0.49370284  0.30403999  1  0.923203  0  0.105375  0.272029  0  3.989735  0
C  C52  1  0.53008842  0.87466012  0.31363039  1  0.941359  0  0.111786  0.248821  0  3.887329  0
C  C53  1  0.47003887  0.12524480  0.68642855  1  0.953825  0  0.111964  0.248861  0  3.886692  0
C  C54  1  0.25859398  0.80106719  0.60090595  1  0.999642  0  0.108567  0.251203  0  3.952679  0
C  C55  1  0.74139455  0.19897223  0.39907292  1  1.00021  0  0.10855  0.251231  0  3.952605  0
N  N56  1  0.40775257  0.83874313  0.46319059  1  -1.179404  0  -0.284246  -0.251761  0  3.401337  0
N  N57  1  0.59228020  0.16124832  0.53681678  1  -1.179359  0  -0.284456  -0.252022  0  3.401326  0
O  O58  1  0.46612250  0.59132241  0.63357595  1  -1.169231  0  -0.306059  -0.555594  0  2.382035  0
O  O59  1  0.53387285  0.40870957  0.36641486  1  -1.168835  0  -0.306243  -0.55568  0  2.381871  0
O  O60  1  0.53750430  0.37137455  0.68397026  1  -1.163628  0  -0.310066  -0.544005  0  2.363234  0
O  O61  1  0.46246087  0.62865678  0.31602692  1  -1.162642  0  -0.310117  -0.544082  0  2.363107  0
O  O62  1  0.28726212  0.58785293  0.46763705  1  -1.153435  0  -0.308527  -0.532071  0  2.377375  0
O  O63  1  0.71272128  0.41212510  0.53238353  1  -1.153258  0  -0.308713  -0.532351  0  2.377319  0
O  O64  1  0.35734031  0.36658120  0.52473673  1  -1.165513  0  -0.313312  -0.5574  0  2.340839  0
O  O65  1  0.64264243  0.63339921  0.47526124  1  -1.165769  0  -0.313243  -0.557377  0  2.341205  0
O  O66  1  0.21758361  0.47838562  0.72730221  1  -1.072688  0  -0.248949  -0.337107  0  2.163956  0
O  O67  1  0.78237542  0.52153057  0.27272425  1  -1.072078  0  -0.248659  -0.336617  0  2.164622  0
O  O68  1  0.59447170  0.93022383  0.25283133  1  -1.071876  0  -0.247245  -0.325573  0  2.12175  0
O  O69  1  0.40578633  0.06955811  0.74728894  1  -1.072497  0  -0.247341  -0.325451  0  2.121611  0
O  O70  1  0.17375322  0.79136431  0.54573578  1  -1.054541  0  -0.241281  -0.31136  0  2.151677  0
O  O71  1  0.82625535  0.20866150  0.45423149  1  -1.05457  0  -0.241363  -0.311479  0  2.151598  0
