# generated using pymatgen
data_CsH10C9ClO4
_symmetry_space_group_name_H-M   'P 1'
_cell_length_a   7.13712805
_cell_length_b   8.77342925
_cell_length_c   18.10992844
_cell_angle_alpha   89.99992386
_cell_angle_beta   94.56726130
_cell_angle_gamma   89.99959881
_symmetry_Int_Tables_number   1
_chemical_formula_structural   CsH10C9ClO4
_chemical_formula_sum   'Cs4 H40 C36 Cl4 O16'
_cell_volume   1130.39004142
_cell_formula_units_Z   4
loop_
 _symmetry_equiv_pos_site_id
 _symmetry_equiv_pos_as_xyz
  1  'x, y, z'
loop_
 _atom_site_type_symbol
 _atom_site_label
 _atom_site_symmetry_multiplicity
 _atom_site_fract_x
 _atom_site_fract_y
 _atom_site_fract_z
 _atom_site_occupancy
 _atom_site_hle17_bader_spin_density
 _atom_site_hle17_ddec_charge
 _atom_site_hle17_ddec_spin_density
 _atom_site_hle17_ddec_sum_bond_order
 _atom_site_hle17_magmom
 _atom_site_hse06_10hf_bader_charge
 _atom_site_hse06_10hf_bader_spin_density
 _atom_site_hse06_10hf_ddec_charge
 _atom_site_hse06_10hf_ddec_spin_density
 _atom_site_hse06_10hf_ddec_sum_bond_order
 _atom_site_hse06_10hf_magmom
 _atom_site_hse06_bader_spin_density
 _atom_site_hse06_ddec_charge
 _atom_site_hse06_ddec_spin_density
 _atom_site_hse06_ddec_sum_bond_order
 _atom_site_hse06_magmom
 _atom_site_pbe_bader_spin_density
 _atom_site_pbe_cm5_charge
 _atom_site_pbe_ddec_charge
 _atom_site_pbe_ddec_spin_density
 _atom_site_pbe_ddec_sum_bond_order
 _atom_site_pbe_magmom
Cs  Cs0  1  0.27573167  0.56460322  0.56558056  1  0  0.968582  0  0.589933  0  0.908224  0  0.915592  0  0.834994  0  0  0.931765  0  0.809913  0  0  0.880736  0.903717  0  0.852806  0
Cs  Cs1  1  0.22426140  0.06460749  0.43442091  1  0  0.968597  0  0.589932  0  0.908214  0  0.915619  0  0.83497  0  0  0.931789  0  0.809879  0  0  0.880752  0.903738  0  0.852784  0
Cs  Cs2  1  0.72426740  0.43539609  0.43442094  1  0  0.968579  0  0.589927  0  0.908237  0  0.915587  0  0.834985  0  0  0.931769  0  0.809869  0  0  0.880728  0.903706  0  0.8528  0
Cs  Cs3  1  0.77573626  0.93539523  0.56557999  1  0  0.968577  0  0.589955  0  0.908212  0  0.915598  0  0.835007  0  0  0.93177  0  0.809918  0  0  0.880741  0.903716  0  0.852819  0
H  H4  1  0.21141368  0.55262006  0.98741589  1  0  0.100242  0  0.972275  0  0.098778  0  0.105467  0  1.043847  0  0  0.109153  0  1.041692  0  0  0.092449  0.102828  0  1.045463  0
H  H5  1  0.28858651  0.05262625  0.01258469  1  0  0.100278  0  0.972231  0  0.098455  0  0.105484  0  1.043814  0  0  0.109178  0  1.041655  0  0  0.092452  0.102845  0  1.045425  0
H  H6  1  0.78858395  0.44737583  0.01258280  1  0  0.100246  0  0.972262  0  0.098459  0  0.105454  0  1.043849  0  0  0.109139  0  1.041695  0  0  0.092444  0.10281  0  1.045469  0
H  H7  1  0.71141676  0.94737306  0.98741527  1  0  0.100277  0  0.972205  0  0.098488  0  0.105479  0  1.043784  0  0  0.109173  0  1.041635  0  0  0.092472  0.102847  0  1.045377  0
H  H8  1  0.49411065  0.71160500  0.96889438  1  0  0.083697  0  0.97151  0  0.060906  0  0.090746  0  1.038793  0  0  0.093241  0  1.037933  0  0  0.091653  0.088979  0  1.039425  0
H  H9  1  0.00588115  0.21161161  0.03110862  1  0  0.083732  0  0.971541  0  0.060977  0  0.090782  0  1.038796  0  0  0.093277  0  1.037937  0  0  0.091683  0.089016  0  1.039426  0
H  H10  1  0.50588562  0.28839430  0.03110759  1  0  0.083736  0  0.971427  0  0.060927  0  0.090794  0  1.038687  0  0  0.093288  0  1.037827  0  0  0.091687  0.089024  0  1.039315  0
H  H11  1  0.99412070  0.78839225  0.96889020  1  0  0.083726  0  0.971442  0  0.060927  0  0.090764  0  1.038724  0  0  0.093258  0  1.037865  0  0  0.091686  0.088999  0  1.039354  0
H  H12  1  0.63943291  0.70586013  0.85008271  1  0  0.101467  0  1.003256  0  0.098504  0  0.10898  0  1.073433  0  0  0.111095  0  1.07422  0  0  0.096625  0.107478  0  1.07298  0
H  H13  1  0.86055731  0.20586440  0.14991852  1  0  0.10142  0  1.003263  0  0.09839  0  0.108965  0  1.073423  0  0  0.111094  0  1.074165  0  0  0.096608  0.107463  0  1.072967  0
H  H14  1  0.36056615  0.29413917  0.14991768  1  0  0.101466  0  1.003253  0  0.098533  0  0.109006  0  1.073407  0  0  0.111129  0  1.074171  0  0  0.09664  0.107505  0  1.072951  0
H  H15  1  0.13944455  0.79413718  0.85008085  1  0  0.1015  0  1.003232  0  0.098395  0  0.10904  0  1.073384  0  0  0.111169  0  1.074127  0  0  0.096626  0.107537  0  1.072936  0
H  H16  1  0.10538938  0.66632810  0.41419274  1  0  0.404822  0  0.913609  0  0.636515  0  0.374718  0  0.977899  0  0  0.385306  0  0.96235  0  0  0.279203  0.367238  0  0.988875  0
H  H17  1  0.39461122  0.16632415  0.58580778  1  0  0.404843  0  0.913589  0  0.636484  0  0.374733  0  0.977888  0  0  0.385323  0  0.962336  0  0  0.279195  0.367251  0  0.988868  0
H  H18  1  0.89460829  0.33367348  0.58580927  1  0  0.404809  0  0.913638  0  0.636523  0  0.374699  0  0.977938  0  0  0.385289  0  0.962386  0  0  0.279182  0.367218  0  0.988914  0
H  H19  1  0.60538785  0.83367629  0.41419371  1  0  0.404841  0  0.913599  0  0.636504  0  0.374733  0  0.977895  0  0  0.385323  0  0.962343  0  0  0.279184  0.367251  0  0.988874  0
H  H20  1  0.94316170  0.79361119  0.40623388  1  0  0.419637  0  0.889323  0  0.64541  0  0.390489  0  0.951876  0  0  0.400907  0  0.936369  0  0  0.286169  0.383089  0  0.962893  0
H  H21  1  0.55683337  0.29361142  0.59376744  1  0  0.419646  0  0.889308  0  0.645381  0  0.390489  0  0.951883  0  0  0.400907  0  0.936372  0  0  0.286164  0.383088  0  0.962903  0
H  H22  1  0.05683315  0.20638697  0.59376749  1  0  0.419604  0  0.889348  0  0.64538  0  0.390446  0  0.951927  0  0  0.400864  0  0.936419  0  0  0.286157  0.383044  0  0.962951  0
H  H23  1  0.44316712  0.70639016  0.40623576  1  0  0.419509  0  0.889461  0  0.64545  0  0.390389  0  0.951965  0  0  0.400806  0  0.936461  0  0  0.286138  0.382994  0  0.962975  0
H  H24  1  0.79451057  0.57536236  0.77276013  1  0  0.087089  0  0.927494  0  0.070137  0  0.097965  0  0.994241  0  0  0.09877  0  0.993735  0  0  0.107668  0.097385  0  0.994747  0
H  H25  1  0.70547799  0.07536160  0.22724059  1  0  0.087185  0  0.927447  0  0.070134  0  0.098023  0  0.994217  0  0  0.098828  0  0.993713  0  0  0.107654  0.097442  0  0.994724  0
H  H26  1  0.20548851  0.42464150  0.22724192  1  0  0.087093  0  0.927415  0  0.070172  0  0.097927  0  0.994217  0  0  0.098732  0  0.993713  0  0  0.107662  0.097351  0  0.994717  0
H  H27  1  0.29452106  0.92463542  0.77275814  1  0  0.087166  0  0.927464  0  0.070155  0  0.098  0  0.994259  0  0  0.098805  0  0.993754  0  0  0.107679  0.097423  0  0.994764  0
H  H28  1  0.67099765  0.72806817  0.72515240  1  0  0.092445  0  0.935676  0  0.063313  0  0.100878  0  1.004037  0  0  0.103066  0  1.002007  0  0  0.111629  0.099337  0  1.005569  0
H  H29  1  0.82898816  0.22807000  0.27484924  1  0  0.092438  0  0.935605  0  0.063334  0  0.100849  0  1.003991  0  0  0.103035  0  1.001965  0  0  0.111614  0.099308  0  1.005516  0
H  H30  1  0.32900282  0.27193113  0.27484914  1  0  0.092414  0  0.93569  0  0.06329  0  0.100856  0  1.004037  0  0  0.103042  0  1.00201  0  0  0.111638  0.099317  0  1.005566  0
H  H31  1  0.17100526  0.77192930  0.72514877  1  0  0.092433  0  0.935689  0  0.063323  0  0.100874  0  1.004058  0  0  0.103061  0  1.00203  0  0  0.111645  0.099334  0  1.00559  0
H  H32  1  0.30904414  0.32278528  0.70905401  1  0  0.11074  0  0.968254  0  0.070553  0  0.128283  0  1.035498  0  0  0.130976  0  1.033738  0  0  0.093556  0.12626  0  1.036896  0
H  H33  1  0.19095648  0.82278680  0.29094586  1  0  0.11074  0  0.968284  0  0.070219  0  0.128283  0  1.035519  0  0  0.130968  0  1.033768  0  0  0.093567  0.126262  0  1.036911  0
H  H34  1  0.69095630  0.67721402  0.29094422  1  0  0.110711  0  0.968353  0  0.070247  0  0.128312  0  1.035529  0  0  0.131003  0  1.033771  0  0  0.093578  0.126285  0  1.03693  0
H  H35  1  0.80904397  0.17721250  0.70905292  1  0  0.110756  0  0.968243  0  0.070545  0  0.128303  0  1.035477  0  0  0.130998  0  1.033714  0  0  0.093571  0.12628  0  1.03687  0
H  H36  1  0.08323191  0.40567711  0.71365021  1  0  0.106392  0  0.963872  0  0.036079  0  0.130168  0  1.024269  0  0  0.131223  0  1.024765  0  0  0.091579  0.12932  0  1.024012  0
H  H37  1  0.41676378  0.90567735  0.28635056  1  0  0.106393  0  0.963815  0  0.036157  0  0.130163  0  1.024226  0  0  0.131214  0  1.024724  0  0  0.091582  0.129317  0  1.023966  0
H  H38  1  0.91676574  0.59432219  0.28634959  1  0  0.106417  0  0.963834  0  0.036098  0  0.13018  0  1.024255  0  0  0.131235  0  1.02475  0  0  0.091582  0.129335  0  1.023987  0
H  H39  1  0.58323526  0.09432309  0.71364818  1  0  0.106396  0  0.963869  0  0.036229  0  0.130169  0  1.024266  0  0  0.131219  0  1.024766  0  0  0.091571  0.129323  0  1.024005  0
H  H40  1  0.14685669  0.24358288  0.76774273  1  0  0.116786  0  0.969916  0  0.071555  0  0.13325  0  1.038183  0  0  0.134942  0  1.037756  0  0  0.087477  0.131969  0  1.038553  0
H  H41  1  0.35314323  0.74358478  0.23225717  1  0  0.116793  0  0.969948  0  0.071579  0  0.133243  0  1.038207  0  0  0.134936  0  1.037779  0  0  0.087467  0.131965  0  1.038573  0
H  H42  1  0.85314799  0.75641642  0.23225783  1  0  0.116789  0  0.969992  0  0.071553  0  0.133288  0  1.038218  0  0  0.134981  0  1.03779  0  0  0.087484  0.131995  0  1.038597  0
H  H43  1  0.64685862  0.25641453  0.76774110  1  0  0.116854  0  0.969917  0  0.071546  0  0.133285  0  1.038197  0  0  0.134979  0  1.037768  0  0  0.087484  0.132009  0  1.038559  0
C  C44  1  0.44066251  0.54153277  0.79978664  1  0  0.220032  0  3.775214  0  0.383114  0  0.20756  0  4.03744  0  0  0.217704  0  4.053118  0  0  0.079737  0.20047  0  4.026932  0
C  C45  1  0.05932936  0.04153748  0.20021481  1  0  0.219989  0  3.77534  0  0.383123  0  0.207617  0  4.037478  0  0  0.21776  0  4.05316  0  0  0.079822  0.20053  0  4.026966  0
C  C46  1  0.55933795  0.45846653  0.20021380  1  0  0.219846  0  3.775383  0  0.38296  0  0.207506  0  4.037509  0  0  0.217648  0  4.053191  0  0  0.079747  0.200418  0  4.026999  0
C  C47  1  0.94066967  0.95846296  0.79978282  1  0  0.219951  0  3.775452  0  0.383003  0  0.207558  0  4.037589  0  0  0.217704  0  4.053268  0  0  0.07975  0.20047  0  4.027083  0
C  C48  1  0.27847549  0.45240958  0.80782765  1  0  -0.022193  0  3.74993  0  0.036255  0  -0.010422  0  3.998787  0  0  -0.012841  0  4.021327  0  0  -0.030498  -0.008936  0  3.983724  0
C  C49  1  0.22152118  0.95241119  0.19217202  1  0  -0.022368  0  3.750056  0  0.035779  0  -0.010593  0  3.99887  0  0  -0.013016  0  4.021409  0  0  -0.030574  -0.00911  0  3.983819  0
C  C50  1  0.72152356  0.54759200  0.19217109  1  0  -0.022086  0  3.749887  0  0.036176  0  -0.010404  0  3.998789  0  0  -0.012824  0  4.02133  0  0  -0.030498  -0.00892  0  3.983725  0
C  C51  1  0.77847785  0.04758697  0.80782562  1  0  -0.022259  0  3.749912  0  0.036201  0  -0.010541  0  3.998794  0  0  -0.012964  0  4.021334  0  0  -0.030578  -0.00906  0  3.983743  0
C  C52  1  0.19936704  0.46257449  0.87605035  1  0  0.084951  0  3.787789  0  0.00477  0  0.091222  0  4.053537  0  0  0.094692  0  4.074971  0  0  0.00513  0.088768  0  4.039108  0
C  C53  1  0.30062955  0.96257926  0.12394930  1  0  0.085185  0  3.787696  0  0.005508  0  0.091435  0  4.053436  0  0  0.094908  0  4.074873  0  0  0.005252  0.088971  0  4.039024  0
C  C54  1  0.80063341  0.53742709  0.12394787  1  0  0.084981  0  3.787687  0  0.005291  0  0.091303  0  4.053399  0  0  0.094773  0  4.074832  0  0  0.005149  0.088845  0  4.038975  0
C  C55  1  0.69936810  0.03741890  0.87604994  1  0  0.085145  0  3.787479  0  0.005049  0  0.091418  0  4.053223  0  0  0.094892  0  4.074658  0  0  0.005248  0.088964  0  4.038799  0
C  C56  1  0.27537235  0.55210475  0.93482359  1  0  -0.161876  0  3.801256  0  0.002849  0  -0.185979  0  4.056633  0  0  -0.190273  0  4.077543  0  0  -0.114116  -0.183017  0  4.042441  0
C  C57  1  0.22462365  0.05210775  0.06517798  1  0  -0.162066  0  3.801212  0  0.002826  0  -0.186185  0  4.056706  0  0  -0.19048  0  4.077584  0  0  -0.114205  -0.183219  0  4.042521  0
C  C58  1  0.72462529  0.44789569  0.06517510  1  0  -0.161879  0  3.801198  0  0.002753  0  -0.185964  0  4.056542  0  0  -0.190258  0  4.077452  0  0  -0.114088  -0.182996  0  4.042349  0
C  C59  1  0.77537820  0.94789042  0.93482029  1  0  -0.162011  0  3.801149  0  0.002817  0  -0.186124  0  4.056644  0  0  -0.19042  0  4.077505  0  0  -0.114181  -0.183162  0  4.042457  0
C  C60  1  0.43362473  0.63947836  0.92417191  1  0  -0.025604  0  3.792035  0  -0.066104  0  -0.036078  0  4.04189  0  0  -0.035866  0  4.062341  0  0  -0.094056  -0.036101  0  4.027931  0
C  C61  1  0.06636769  0.13948223  0.07583005  1  0  -0.025522  0  3.792049  0  -0.065767  0  -0.035988  0  4.041895  0  0  -0.035776  0  4.062357  0  0  -0.094029  -0.036011  0  4.027936  0
C  C62  1  0.56637294  0.36052436  0.07583010  1  0  -0.025657  0  3.792128  0  -0.065685  0  -0.036137  0  4.041999  0  0  -0.035926  0  4.062455  0  0  -0.094114  -0.036158  0  4.028036  0
C  C63  1  0.93363134  0.86052050  0.92416758  1  0  -0.025504  0  3.791899  0  -0.06565  0  -0.035956  0  4.041723  0  0  -0.035743  0  4.062185  0  0  -0.094078  -0.035978  0  4.027764  0
C  C64  1  0.51621445  0.63597788  0.85688480  1  0  -0.210049  0  3.777654  0  0.050386  0  -0.236178  0  4.036837  0  0  -0.240893  0  4.056913  0  0  -0.118775  -0.233054  0  4.023482  0
C  C65  1  0.98378060  0.13598374  0.14311607  1  0  -0.210005  0  3.777734  0  0.050365  0  -0.236169  0  4.036811  0  0  -0.240884  0  4.056898  0  0  -0.118777  -0.233047  0  4.023451  0
C  C66  1  0.48379024  0.36402485  0.14311631  1  0  -0.21002  0  3.777855  0  0.050366  0  -0.236192  0  4.036983  0  0  -0.240906  0  4.057066  0  0  -0.118811  -0.233074  0  4.023629  0
C  C67  1  0.01621985  0.86401898  0.85688215  1  0  -0.210121  0  3.777615  0  0.05031  0  -0.236276  0  4.036698  0  0  -0.240992  0  4.056781  0  0  -0.118779  -0.233157  0  4.023348  0
C  C68  1  0.69260249  0.60387836  0.72571230  1  0  -0.068625  0  3.62362  0  0.440908  0  -0.125957  0  3.886774  0  0  -0.121731  0  3.886177  0  0  -0.072296  -0.12908  0  3.887335  0
C  C69  1  0.80738863  0.10387803  0.27428847  1  0  -0.068694  0  3.62327  0  0.440533  0  -0.125914  0  3.886367  0  0  -0.121691  0  3.885776  0  0  -0.072218  -0.129035  0  3.886921  0
C  C70  1  0.30739939  0.39612208  0.27428928  1  0  -0.068504  0  3.623384  0  0.44088  0  -0.125789  0  3.886578  0  0  -0.121564  0  3.885986  0  0  -0.072256  -0.128907  0  3.88713  0
C  C71  1  0.19261182  0.89612013  0.72570976  1  0  -0.068607  0  3.623405  0  0.440539  0  -0.125941  0  3.886652  0  0  -0.121713  0  3.886054  0  0  -0.072289  -0.129067  0  3.887217  0
C  C72  1  0.78068116  0.55754057  0.65498783  1  0  0.672124  0  3.922856  0  1.633874  0  0.623652  0  4.229901  0  0  0.656115  0  4.2207  0  0  0.189216  0.601684  0  4.235434  0
C  C73  1  0.71931037  0.05754169  0.34501354  1  0  0.672161  0  3.922755  0  1.63426  0  0.623656  0  4.229852  0  0  0.656118  0  4.220649  0  0  0.189161  0.601683  0  4.235388  0
C  C74  1  0.21931932  0.44245418  0.34501426  1  0  0.671994  0  3.922907  0  1.633949  0  0.623532  0  4.229964  0  0  0.655993  0  4.220765  0  0  0.189113  0.601553  0  4.235503  0
C  C75  1  0.28068587  0.94245989  0.65498567  1  0  0.672223  0  3.922606  0  1.633989  0  0.623704  0  4.229746  0  0  0.656167  0  4.220543  0  0  0.189207  0.601738  0  4.235274  0
C  C76  1  0.20069376  0.35044747  0.74642815  1  0  -0.326829  0  3.742627  0  -0.061704  0  -0.411927  0  3.988162  0  0  -0.413335  0  3.995866  0  0  -0.254417  -0.41064  0  3.983004  0
C  C77  1  0.29930240  0.85045075  0.25357101  1  0  -0.326799  0  3.742693  0  -0.061412  0  -0.411872  0  3.98822  0  0  -0.413267  0  3.995932  0  0  -0.254425  -0.41059  0  3.983055  0
C  C78  1  0.79930668  0.64955183  0.25357007  1  0  -0.326871  0  3.742695  0  -0.061664  0  -0.412028  0  3.988222  0  0  -0.413434  0  3.995929  0  0  -0.254445  -0.410727  0  3.983065  0
C  C79  1  0.70069525  0.14954855  0.74642823  1  0  -0.326932  0  3.742724  0  -0.06171  0  -0.411989  0  3.988264  0  0  -0.413392  0  3.995971  0  0  -0.254445  -0.410706  0  3.983096  0
Cl  Cl80  1  0.99707957  0.35771127  0.88887900  1  0  -0.084075  0  1.373958  0  -0.249515  0  -0.053452  0  1.604879  0  0  -0.058101  0  1.60106  0  0  0.0209  -0.050008  0  1.607577  0
Cl  Cl81  1  0.50292337  0.85772004  0.11112251  1  0  -0.084163  0  1.37394  0  -0.249684  0  -0.053535  0  1.604871  0  0  -0.058186  0  1.601058  0  0  0.020846  -0.050089  0  1.607582  0
Cl  Cl82  1  0.00292508  0.64228233  0.11111825  1  0  -0.084079  0  1.373915  0  -0.249532  0  -0.053486  0  1.60484  0  0  -0.058134  0  1.601021  0  0  0.020873  -0.05004  0  1.607543  0
Cl  Cl83  1  0.49707428  0.14228040  0.88887784  1  0  -0.084167  0  1.373886  0  -0.249699  0  -0.053555  0  1.604819  0  0  -0.058206  0  1.601003  0  0  0.020824  -0.050115  0  1.607529  0
O  O84  1  0.01476165  0.72585350  0.44171467  1  0  -0.954683  0  1.811361  0  -1.328006  0  -0.909184  0  1.985702  0  0  -0.927763  0  1.955607  0  0  -0.753896  -0.89599  0  2.00684  0
O  O85  1  0.48523844  0.22585368  0.55828635  1  0  -0.954705  0  1.8113  0  -1.327954  0  -0.909202  0  1.985641  0  0  -0.92778  0  1.955547  0  0  -0.753884  -0.896009  0  2.006781  0
O  O86  1  0.98523601  0.27414808  0.55828623  1  0  -0.95465  0  1.811398  0  -1.327987  0  -0.909145  0  1.985737  0  0  -0.927727  0  1.955642  0  0  -0.753872  -0.895947  0  2.006872  0
O  O87  1  0.51476205  0.77415247  0.44171629  1  0  -0.954562  0  1.81147  0  -1.328045  0  -0.909074  0  1.985791  0  0  -0.927654  0  1.955693  0  0  -0.75385  -0.89588  0  2.006929  0
O  O88  1  0.51816679  0.52707763  0.73291194  1  0  -0.286523  0  2.394813  0  -1.114793  0  -0.213752  0  2.632015  0  0  -0.231196  0  2.635172  0  0  -0.208746  -0.201389  0  2.629548  0
O  O89  1  0.98182780  0.02707976  0.26708788  1  0  -0.286468  0  2.394693  0  -1.114744  0  -0.213819  0  2.631931  0  0  -0.231261  0  2.635083  0  0  -0.208788  -0.20145  0  2.629452  0
O  O90  1  0.48183509  0.47292281  0.26708964  1  0  -0.286448  0  2.394686  0  -1.11484  0  -0.213779  0  2.631909  0  0  -0.231222  0  2.635063  0  0  -0.208747  -0.201413  0  2.629433  0
O  O91  1  0.01817405  0.97292183  0.73291038  1  0  -0.286554  0  2.39482  0  -1.11467  0  -0.213778  0  2.631992  0  0  -0.231226  0  2.635149  0  0  -0.208723  -0.201409  0  2.629516  0
O  O92  1  0.71429909  0.44411082  0.61700703  1  0  -0.713928  0  2.051933  0  -1.252558  0  -0.64716  0  2.280672  0  0  -0.673064  0  2.270228  0  0  -0.387785  -0.628995  0  2.287387  0
O  O93  1  0.78570028  0.94410926  0.38299432  1  0  -0.713979  0  2.051792  0  -1.252563  0  -0.647208  0  2.280561  0  0  -0.673112  0  2.270113  0  0  -0.387795  -0.629042  0  2.287274  0
O  O94  1  0.28570700  0.55588849  0.38299413  1  0  -0.7139  0  2.051791  0  -1.252295  0  -0.647151  0  2.280525  0  0  -0.673056  0  2.270082  0  0  -0.387787  -0.628984  0  2.28724  0
O  O95  1  0.21430158  0.05589232  0.61700505  1  0  -0.71395  0  2.051765  0  -1.252314  0  -0.64716  0  2.280543  0  0  -0.673062  0  2.270094  0  0  -0.387771  -0.628996  0  2.287256  0
O  O96  1  0.92036543  0.63643864  0.63984487  1  0  -0.714636  0  1.953914  0  -1.239467  0  -0.668876  0  2.197055  0  0  -0.6939  0  2.189039  0  0  -0.479142  -0.651299  0  2.201977  0
O  O97  1  0.57963526  0.13643938  0.36015837  1  0  -0.714633  0  1.954091  0  -1.239545  0  -0.66888  0  2.197282  0  0  -0.693901  0  2.189261  0  0  -0.479094  -0.6513  0  2.202196  0
O  O98  1  0.07964350  0.36355724  0.36015968  1  0  -0.714596  0  1.95413  0  -1.239837  0  -0.66882  0  2.197236  0  0  -0.693837  0  2.18921  0  0  -0.479076  -0.651262  0  2.202207  0
O  O99  1  0.42037081  0.86355992  0.63984002  1  0  -0.714668  0  1.953874  0  -1.239582  0  -0.668896  0  2.197061  0  0  -0.693921  0  2.189045  0  0  -0.479134  -0.651317  0  2.201972  0
