# generated using pymatgen
data_AgH11C17N4O5
_symmetry_space_group_name_H-M   'P 1'
_cell_length_a   7.55998248
_cell_length_b   8.08160566
_cell_length_c   14.03234281
_cell_angle_alpha   74.74277349
_cell_angle_beta   79.45024524
_cell_angle_gamma   73.38844923
_symmetry_Int_Tables_number   1
_chemical_formula_structural   AgH11C17N4O5
_chemical_formula_sum   'Ag2 H22 C34 N8 O10'
_cell_volume   787.18151787
_cell_formula_units_Z   2
loop_
 _symmetry_equiv_pos_site_id
 _symmetry_equiv_pos_as_xyz
  1  'x, y, z'
loop_
 _atom_site_type_symbol
 _atom_site_label
 _atom_site_symmetry_multiplicity
 _atom_site_fract_x
 _atom_site_fract_y
 _atom_site_fract_z
 _atom_site_occupancy
 _atom_site_hle17_bader_spin_density
 _atom_site_hle17_ddec_charge
 _atom_site_hle17_ddec_spin_density
 _atom_site_hle17_ddec_sum_bond_order
 _atom_site_hle17_magmom
 _atom_site_hse06_10hf_bader_spin_density
 _atom_site_hse06_10hf_ddec_charge
 _atom_site_hse06_10hf_ddec_spin_density
 _atom_site_hse06_10hf_ddec_sum_bond_order
 _atom_site_hse06_10hf_magmom
 _atom_site_hse06_bader_spin_density
 _atom_site_hse06_ddec_charge
 _atom_site_hse06_ddec_spin_density
 _atom_site_hse06_ddec_sum_bond_order
 _atom_site_hse06_magmom
 _atom_site_pbe_bader_spin_density
 _atom_site_pbe_cm5_charge
 _atom_site_pbe_ddec_charge
 _atom_site_pbe_ddec_spin_density
 _atom_site_pbe_ddec_sum_bond_order
 _atom_site_pbe_magmom
Ag  Ag0  1  0.38143122  0.36144815  0.51901177  1  0  0.476359  0  1.465071  0  0  0.32408  0  1.911677  0  0  0.355499  0  1.866719  0  0  0.459919  0.302658  0  1.942745  0
Ag  Ag1  1  0.61856158  0.63856142  0.48098688  1  0  0.476333  0  1.465007  0  0  0.324021  0  1.911666  0  0  0.355439  0  1.86671  0  0  0.459881  0.302617  0  1.942699  0
H  H2  1  0.48748278  0.49062746  0.29734711  1  0  0.089157  0  0.978804  0  0  0.09133  0  1.054179  0  0  0.094012  0  1.051431  0  0  0.11578  0.089281  0  1.05627  0
H  H3  1  0.51251284  0.50937142  0.70265013  1  0  0.089121  0  0.97889  0  0  0.091339  0  1.054178  0  0  0.094022  0  1.051425  0  0  0.11579  0.089293  0  1.056269  0
H  H4  1  0.95289461  0.09221614  0.20089718  1  0  0.122614  0  0.938533  0  0  0.12995  0  0.999997  0  0  0.133753  0  0.996148  0  0  0.118109  0.127143  0  1.00285  0
H  H5  1  0.04710375  0.90777772  0.79910914  1  0  0.122602  0  0.938562  0  0  0.130029  0  0.999919  0  0  0.133831  0  0.996069  0  0  0.118109  0.127226  0  1.002769  0
H  H6  1  0.92727609  0.90540420  0.37364491  1  0  0.103945  0  0.966086  0  0  0.111567  0  1.032054  0  0  0.114339  0  1.031849  0  0  0.106674  0.109523  0  1.032458  0
H  H7  1  0.07271845  0.09459901  0.62636314  1  0  0.103973  0  0.965997  0  0  0.111607  0  1.031954  0  0  0.114377  0  1.03175  0  0  0.106691  0.109566  0  1.032359  0
H  H8  1  0.67419843  0.02560468  0.50106860  1  0  0.071441  0  0.967786  0  0  0.077769  0  1.040019  0  0  0.080345  0  1.036977  0  0  0.111352  0.075799  0  1.042367  0
H  H9  1  0.32579669  0.97440647  0.49893740  1  0  0.071314  0  0.967815  0  0  0.077798  0  1.039889  0  0  0.080375  0  1.036846  0  0  0.111313  0.075826  0  1.042246  0
H  H10  1  0.79038612  0.68244429  0.97161656  1  0  0.134595  0  0.951978  0  0  0.140175  0  1.0161  0  0  0.144652  0  1.012545  0  0  0.116435  0.13695  0  1.018791  0
H  H11  1  0.20962271  0.31754547  0.02838439  1  0  0.134551  0  0.952057  0  0  0.140207  0  1.016104  0  0  0.144691  0  1.012529  0  0  0.116376  0.136978  0  1.018797  0
H  H12  1  0.53095293  0.92327279  0.89262061  1  0  0.109143  0  0.950296  0  0  0.114776  0  1.014044  0  0  0.118882  0  1.011262  0  0  0.106922  0.111741  0  1.016139  0
H  H13  1  0.46905718  0.07672229  0.10738006  1  0  0.109203  0  0.950148  0  0  0.114818  0  1.013928  0  0  0.118925  0  1.011138  0  0  0.106946  0.111782  0  1.016025  0
H  H14  1  0.20058963  0.93154688  0.97235481  1  0  0.131754  0  0.968219  0  0  0.136322  0  1.033954  0  0  0.140919  0  1.030242  0  0  0.114654  0.133029  0  1.036734  0
H  H15  1  0.79942007  0.06845481  0.02764413  1  0  0.131786  0  0.968181  0  0  0.136334  0  1.033944  0  0  0.140929  0  1.030234  0  0  0.11464  0.13304  0  1.036724  0
H  H16  1  0.81154845  0.76461959  0.27393457  1  0  0.091497  0  0.955458  0  0  0.097337  0  1.024817  0  0  0.10021  0  1.021966  0  0  0.119007  0.095159  0  1.02703  0
H  H17  1  0.18845312  0.23538731  0.72606220  1  0  0.091526  0  0.955468  0  0  0.097355  0  1.024828  0  0  0.100227  0  1.021982  0  0  0.119041  0.095178  0  1.027044  0
H  H18  1  0.28208223  0.34280603  0.21094164  1  0  0.10906  0  0.955611  0  0  0.115028  0  1.022258  0  0  0.118253  0  1.019296  0  0  0.113822  0.112605  0  1.024498  0
H  H19  1  0.71791508  0.65719160  0.78905776  1  0  0.109099  0  0.955606  0  0  0.115067  0  1.022255  0  0  0.118293  0  1.019291  0  0  0.113846  0.112643  0  1.024494  0
H  H20  1  0.19725697  0.16183896  0.37639298  1  0  0.104838  0  0.968895  0  0  0.114579  0  1.029019  0  0  0.116815  0  1.029506  0  0  0.10572  0.112883  0  1.02899  0
H  H21  1  0.80273355  0.83816397  0.62360697  1  0  0.104816  0  0.96884  0  0  0.114576  0  1.028922  0  0  0.116816  0  1.02941  0  0  0.105718  0.112878  0  1.028897  0
H  H22  1  0.92135634  0.29592161  0.48830333  1  0  0.084557  0  0.966729  0  0  0.094887  0  1.031686  0  0  0.097235  0  1.0293  0  0  0.112654  0.093097  0  1.033517  0
H  H23  1  0.07863751  0.70408398  0.51169586  1  0  0.084535  0  0.966804  0  0  0.094936  0  1.031674  0  0  0.097285  0  1.029285  0  0  0.112664  0.093142  0  1.033501  0
C  C24  1  0.58614120  0.36157429  0.31003884  1  0  0.110866  0  3.661337  0  0  0.069476  0  3.907753  0  0  0.078317  0  3.926084  0  0  0.052985  0.063813  0  3.895348  0
C  C25  1  0.41385505  0.63842738  0.68996216  1  0  0.110736  0  3.661564  0  0  0.069356  0  3.907949  0  0  0.078199  0  3.926277  0  0  0.052947  0.063694  0  3.895542  0
C  C26  1  0.72042812  0.30496557  0.23449225  1  0  -0.068383  0  3.710692  0  0  -0.047123  0  3.943897  0  0  -0.058256  0  3.96864  0  0  -0.006981  -0.040094  0  3.92745  0
C  C27  1  0.27957358  0.69503085  0.76551047  1  0  -0.06826  0  3.710816  0  0  -0.047017  0  3.944013  0  0  -0.058148  0  3.968756  0  0  -0.006895  -0.03999  0  3.927567  0
C  C28  1  0.84447055  0.13778228  0.25768820  1  0  0.013969  0  3.628889  0  0  -0.01627  0  3.874558  0  0  -0.009256  0  3.88966  0  0  -0.045594  -0.020567  0  3.864272  0
C  C29  1  0.15552745  0.86221292  0.74231866  1  0  0.01399  0  3.628962  0  0  -0.016302  0  3.874606  0  0  -0.00929  0  3.889708  0  0  -0.045578  -0.0206  0  3.864322  0
C  C30  1  0.82997018  0.03418523  0.35376032  1  0  -0.116711  0  3.725714  0  0  -0.125264  0  3.975369  0  0  -0.134568  0  3.997705  0  0  -0.082496  -0.119435  0  3.960597  0
C  C31  1  0.17002740  0.96581665  0.64624693  1  0  -0.116904  0  3.725746  0  0  -0.125491  0  3.975486  0  0  -0.134794  0  3.997824  0  0  -0.082576  -0.119658  0  3.960712  0
C  C32  1  0.69245167  0.09968444  0.42441253  1  0  0.132828  0  3.685292  0  0  0.101397  0  3.928522  0  0  0.109745  0  3.947079  0  0  0.048034  0.09597  0  3.916082  0
C  C33  1  0.30754451  0.90032269  0.57559259  1  0  0.133057  0  3.685372  0  0  0.101532  0  3.92857  0  0  0.109879  0  3.947129  0  0  0.048134  0.096104  0  3.916131  0
C  C34  1  0.75190239  0.41712506  0.13224991  1  0  0.35636  0  3.716431  0  0  0.334497  0  3.979164  0  0  0.354715  0  3.985143  0  0  0.167736  0.320739  0  3.975037  0
C  C35  1  0.24809294  0.58286998  0.86775225  1  0  0.356435  0  3.716531  0  0  0.334584  0  3.979215  0  0  0.3548  0  3.985193  0  0  0.167729  0.320829  0  3.975087  0
C  C36  1  0.60113008  0.56853624  0.08828902  1  0  0.113773  0  3.766193  0  0  0.117428  0  4.013969  0  0  0.116919  0  4.035262  0  0  0.109232  0.117682  0  3.999554  0
C  C37  1  0.39887302  0.43145478  0.91171087  1  0  0.113634  0  3.766336  0  0  0.11729  0  4.014103  0  0  0.116779  0  4.0354  0  0  0.109175  0.11754  0  3.999689  0
C  C38  1  0.64552588  0.69238390  0.00252929  1  0  -0.072957  0  3.61324  0  0  -0.100987  0  3.863053  0  0  -0.102755  0  3.881802  0  0  -0.058744  -0.099773  0  3.850398  0
C  C39  1  0.35447957  0.30760849  0.99747156  1  0  -0.072987  0  3.61347  0  0  -0.101063  0  3.863212  0  0  -0.102836  0  3.881967  0  0  -0.058707  -0.099844  0  3.850551  0
C  C40  1  0.50058979  0.82527680  0.95941084  1  0  -0.019638  0  3.682298  0  0  -0.031417  0  3.934916  0  0  -0.033734  0  3.9558  0  0  -0.064389  -0.029685  0  3.920702  0
C  C41  1  0.49941997  0.17471959  0.04058894  1  0  -0.019664  0  3.682333  0  0  -0.031437  0  3.93495  0  0  -0.033755  0  3.955843  0  0  -0.064394  -0.029704  0  3.92073  0
C  C42  1  0.31845607  0.83013522  0.00281518  1  0  -0.077819  0  3.617782  0  0  -0.104449  0  3.865573  0  0  -0.107046  0  3.885211  0  0  -0.059755  -0.102623  0  3.85223  0
C  C43  1  0.68154966  0.16986113  0.99718430  1  0  -0.077758  0  3.617867  0  0  -0.104381  0  3.865668  0  0  -0.106977  0  3.885303  0  0  -0.059767  -0.102557  0  3.852323  0
C  C44  1  0.28794147  0.70124461  0.08895151  1  0  0.128249  0  3.756569  0  0  0.128556  0  4.008467  0  0  0.128685  0  4.028223  0  0  0.114447  0.128342  0  3.995195  0
C  C45  1  0.71206158  0.29875169  0.91104682  1  0  0.128167  0  3.75658  0  0  0.128514  0  4.008488  0  0  0.128643  0  4.028241  0  0  0.114452  0.128305  0  3.995211  0
C  C46  1  0.09382724  0.70539039  0.13765377  1  0  0.382962  0  3.677904  0  0  0.359421  0  3.941214  0  0  0.381586  0  3.942536  0  0  0.178071  0.344168  0  3.940623  0
C  C47  1  0.90617984  0.29460592  0.86234415  1  0  0.382783  0  3.678041  0  0  0.359146  0  3.941489  0  0  0.38131  0  3.942809  0  0  0.177971  0.343893  0  3.940901  0
C  C48  1  0.90232529  0.63283721  0.29595554  1  0  0.111162  0  3.64685  0  0  0.068978  0  3.89224  0  0  0.077516  0  3.910152  0  0  0.054787  0.063419  0  3.88018  0
C  C49  1  0.09767231  0.36716436  0.70404178  1  0  0.111128  0  3.646893  0  0  0.068945  0  3.89233  0  0  0.07748  0  3.910242  0  0  0.05478  0.063381  0  3.880278  0
C  C50  1  0.05856067  0.57293998  0.23158547  1  0  -0.054968  0  3.700532  0  0  -0.036728  0  3.938257  0  0  -0.046775  0  3.960591  0  0  -0.003458  -0.030407  0  3.923598  0
C  C51  1  0.94143658  0.42706290  0.76841167  1  0  -0.05479  0  3.700613  0  0  -0.036502  0  3.938332  0  0  -0.046547  0  3.960669  0  0  -0.003361  -0.030174  0  3.923662  0
C  C52  1  0.16471255  0.39871497  0.26003618  1  0  0.014808  0  3.64306  0  0  -0.018392  0  3.896487  0  0  -0.011513  0  3.910998  0  0  -0.047856  -0.022779  0  3.886853  0
C  C53  1  0.83528540  0.60128524  0.73996060  1  0  0.014687  0  3.643392  0  0  -0.018522  0  3.896824  0  0  -0.011643  0  3.91134  0  0  -0.04787  -0.022906  0  3.887181  0
C  C54  1  0.11637628  0.29737876  0.35301201  1  0  -0.127391  0  3.751438  0  0  -0.13655  0  4.007959  0  0  -0.145111  0  4.030042  0  0  -0.086184  -0.131214  0  3.993451  0
C  C55  1  0.88361524  0.70262548  0.64698692  1  0  -0.127327  0  3.751396  0  0  -0.13649  0  4.007935  0  0  -0.145056  0  4.030022  0  0  -0.086239  -0.131159  0  3.993427  0
C  C56  1  0.96450485  0.36957738  0.41478779  1  0  0.112619  0  3.700413  0  0  0.079399  0  3.945287  0  0  0.08689  0  3.964973  0  0  0.04183  0.074583  0  3.932046  0
C  C57  1  0.03548865  0.63042947  0.58520909  1  0  0.112524  0  3.700295  0  0  0.079271  0  3.945177  0  0  0.086762  0  3.964861  0  0  0.041809  0.074467  0  3.931922  0
N  N58  1  0.57356273  0.26100949  0.40307005  1  0  -0.300353  0  3.372788  0  0  -0.203193  0  3.645783  0  0  -0.225732  0  3.664563  0  0  -0.353987  -0.188079  0  3.632782  0
N  N59  1  0.42643077  0.73899749  0.59693108  1  0  -0.300259  0  3.372894  0  0  -0.203157  0  3.645973  0  0  -0.225698  0  3.664761  0  0  -0.354004  -0.188042  0  3.63297  0
N  N60  1  0.42643165  0.57397184  0.13100834  1  0  -0.33503  0  3.143683  0  0  -0.302151  0  3.398042  0  0  -0.313614  0  3.420015  0  0  -0.293129  -0.293924  0  3.38302  0
N  N61  1  0.57357040  0.42602315  0.86899101  1  0  -0.334944  0  3.143741  0  0  -0.302092  0  3.398112  0  0  -0.313554  0  3.420084  0  0  -0.293093  -0.293864  0  3.383088  0
N  N62  1  0.85651638  0.53482591  0.38575550  1  0  -0.294704  0  3.372372  0  0  -0.198511  0  3.648449  0  0  -0.220589  0  3.667864  0  0  -0.354794  -0.183695  0  3.635038  0
N  N63  1  0.14348115  0.46518100  0.61424239  1  0  -0.294628  0  3.372239  0  0  -0.198473  0  3.648363  0  0  -0.220553  0  3.667786  0  0  -0.354807  -0.183659  0  3.634955  0
N  N64  1  0.66238102  0.14234048  0.68718630  1  0  0.690437  0  4.153941  0  0  0.726777  0  4.442441  0  0  0.755043  0  4.448236  0  0  0.087361  0.70766  0  4.437794  0
N  N65  1  0.33761828  0.85765981  0.31281248  1  0  0.690503  0  4.153955  0  0  0.726751  0  4.442558  0  0  0.755017  0  4.448358  0  0  0.087352  0.707623  0  4.437925  0
O  O66  1  0.90504931  0.38108436  0.08319512  1  0  -0.422476  0  1.976384  0  0  -0.384746  0  2.19539  0  0  -0.402611  0  2.194431  0  0  -0.233786  -0.372413  0  2.19594  0
O  O67  1  0.09495953  0.61890539  0.91680582  1  0  -0.42248  0  1.97667  0  0  -0.384753  0  2.195665  0  0  -0.402612  0  2.194705  0  0  -0.233768  -0.372421  0  2.196216  0
O  O68  1  0.96141233  0.82269365  0.10377669  1  0  -0.429611  0  1.947231  0  0  -0.388475  0  2.157723  0  0  -0.405807  0  2.153569  0  0  -0.237221  -0.376794  0  2.160689  0
O  O69  1  0.03858833  0.17730649  0.89621699  1  0  -0.429464  0  1.947482  0  0  -0.388309  0  2.158027  0  0  -0.405638  0  2.153872  0  0  -0.237163  -0.376636  0  2.161007  0
O  O70  1  0.53258147  0.09057659  0.66585210  1  0  -0.506212  0  1.749851  0  0  -0.489493  0  1.977548  0  0  -0.506458  0  1.97036  0  0  -0.221907  -0.477195  0  1.982113  0
O  O71  1  0.46741748  0.90942506  0.33414792  1  0  -0.50624  0  1.749827  0  0  -0.489494  0  1.977566  0  0  -0.506464  0  1.970379  0  0  -0.221916  -0.477191  0  1.98213  0
O  O72  1  0.71851649  0.27116838  0.62710247  1  0  -0.525004  0  1.758037  0  0  -0.513432  0  1.99684  0  0  -0.529475  0  1.987923  0  0  -0.221875  -0.50178  0  2.002667  0
O  O73  1  0.28148245  0.72883323  0.37289613  1  0  -0.524989  0  1.758017  0  0  -0.513398  0  1.996879  0  0  -0.529444  0  1.987964  0  0  -0.221864  -0.501743  0  2.002711  0
O  O74  1  0.73484459  0.06611422  0.76630916  1  0  -0.445761  0  1.735505  0  0  -0.436581  0  1.940038  0  0  -0.451065  0  1.936142  0  0  -0.183381  -0.425834  0  1.942343  0
O  O75  1  0.26515570  0.93388742  0.23369001  1  0  -0.445788  0  1.735538  0  0  -0.436563  0  1.940097  0  0  -0.451036  0  1.936187  0  0  -0.183362  -0.42581  0  1.942402  0
