# generated using pymatgen
data_CdH6C10Br2(NCl2)2
_symmetry_space_group_name_H-M   'P 1'
_cell_length_a   3.89001821
_cell_length_b   14.32154249
_cell_length_c   14.32158019
_cell_angle_alpha   91.07130863
_cell_angle_beta   96.08555222
_cell_angle_gamma   96.08548656
_symmetry_Int_Tables_number   1
_chemical_formula_structural   CdH6C10Br2(NCl2)2
_chemical_formula_sum   'Cd2 H12 C20 Br4 N4 Cl8'
_cell_volume   788.54175207
_cell_formula_units_Z   2
loop_
 _symmetry_equiv_pos_site_id
 _symmetry_equiv_pos_as_xyz
  1  'x, y, z'
loop_
 _atom_site_type_symbol
 _atom_site_label
 _atom_site_symmetry_multiplicity
 _atom_site_fract_x
 _atom_site_fract_y
 _atom_site_fract_z
 _atom_site_occupancy
 _atom_site_hle17_bader_spin_density
 _atom_site_hle17_ddec_charge
 _atom_site_hle17_ddec_spin_density
 _atom_site_hle17_ddec_sum_bond_order
 _atom_site_hle17_magmom
 _atom_site_hse06_10hf_bader_spin_density
 _atom_site_hse06_10hf_ddec_charge
 _atom_site_hse06_10hf_ddec_spin_density
 _atom_site_hse06_10hf_ddec_sum_bond_order
 _atom_site_hse06_10hf_magmom
 _atom_site_hse06_bader_spin_density
 _atom_site_hse06_ddec_charge
 _atom_site_hse06_ddec_spin_density
 _atom_site_hse06_ddec_sum_bond_order
 _atom_site_hse06_magmom
 _atom_site_pbe_bader_spin_density
 _atom_site_pbe_cm5_charge
 _atom_site_pbe_ddec_charge
 _atom_site_pbe_ddec_spin_density
 _atom_site_pbe_ddec_sum_bond_order
 _atom_site_pbe_magmom
Cd  Cd0  1  0.00000167  0.50000039  0.50000009  1  0  0.839314  0  2.040715  0  0  0.67607  0  2.490741  0  0  0.724126  0  2.454387  0  0  0.53689  0.642963  0  2.514676  0
Cd  Cd1  1  0.00000098  0.99999837  0.00000167  1  0  0.84831  0  2.052949  0  0  0.690132  0  2.501382  0  0  0.738255  0  2.464831  0  0  0.539565  0.656904  0  2.525539  0
H  H2  1  0.74616835  0.52248683  0.27971015  1  0  0.091342  0  0.973542  0  0  0.09203  0  1.052749  0  0  0.095839  0  1.048503  0  0  0.097742  0.089221  0  1.055891  0
H  H3  1  0.25382958  0.72029036  0.47750935  1  0  0.091375  0  0.973584  0  0  0.092067  0  1.052749  0  0  0.095876  0  1.048502  0  0  0.097762  0.089259  0  1.055896  0
H  H4  1  0.25383223  0.47751176  0.72029102  1  0  0.091336  0  0.973545  0  0  0.092022  0  1.052754  0  0  0.095832  0  1.048508  0  0  0.097749  0.089213  0  1.055898  0
H  H5  1  0.74616637  0.27970963  0.52248822  1  0  0.091349  0  0.973516  0  0  0.092045  0  1.052717  0  0  0.095855  0  1.048471  0  0  0.097734  0.089235  0  1.055857  0
H  H6  1  0.00000020  0.80737137  0.19263013  1  0  0.136647  0  0.9651  0  0  0.143559  0  1.031667  0  0  0.147619  0  1.027622  0  0  0.091853  0.140502  0  1.034769  0
H  H7  1  0.00000286  0.19262870  0.80737072  1  0  0.136552  0  0.965117  0  0  0.143481  0  1.031655  0  0  0.147541  0  1.027613  0  0  0.09181  0.140426  0  1.034762  0
H  H8  1  0.94109735  0.77328362  0.97679592  1  0  0.093489  0  0.957447  0  0  0.094105  0  1.035863  0  0  0.097851  0  1.031772  0  0  0.100397  0.091298  0  1.038985  0
H  H9  1  0.05890890  0.02320367  0.22671641  1  0  0.093413  0  0.957501  0  0  0.094012  0  1.035918  0  0  0.097755  0  1.031834  0  0  0.100357  0.091205  0  1.039041  0
H  H10  1  0.05890693  0.22671778  0.02320261  1  0  0.093438  0  0.957495  0  0  0.094083  0  1.035882  0  0  0.097827  0  1.031793  0  0  0.100386  0.091276  0  1.039011  0
H  H11  1  0.94108992  0.97679702  0.77328195  1  0  0.093437  0  0.957463  0  0  0.094101  0  1.035842  0  0  0.097844  0  1.031755  0  0  0.100384  0.091293  0  1.038965  0
H  H12  1  0.20107051  0.70002858  0.70003007  1  0  0.132441  0  0.968306  0  0  0.139139  0  1.036163  0  0  0.143146  0  1.032375  0  0  0.091182  0.136152  0  1.039036  0
H  H13  1  0.79893294  0.29997071  0.29997119  1  0  0.13244  0  0.968316  0  0  0.139148  0  1.036152  0  0  0.143151  0  1.032375  0  0  0.09118  0.13616  0  1.039021  0
C  C14  1  0.85844542  0.59503078  0.29414633  1  0  0.058478  0  3.685501  0  0  0.013276  0  3.944191  0  0  0.020135  0  3.960736  0  0  0.029903  0.00881  0  3.933158  0
C  C15  1  0.14155139  0.70585428  0.40496993  1  0  0.058404  0  3.685595  0  0  0.013202  0  3.944304  0  0  0.020064  0  3.960847  0  0  0.029891  0.008735  0  3.933274  0
C  C16  1  0.14155313  0.40496922  0.70585341  1  0  0.058518  0  3.685557  0  0  0.013328  0  3.944244  0  0  0.020191  0  3.960797  0  0  0.02994  0.008858  0  3.933207  0
C  C17  1  0.85844773  0.29414712  0.59503055  1  0  0.058436  0  3.685459  0  0  0.013205  0  3.944179  0  0  0.020067  0  3.960726  0  0  0.029896  0.008742  0  3.933137  0
C  C18  1  0.85272576  0.66210662  0.22464865  1  0  0.10724  0  3.782108  0  0  0.124777  0  4.049165  0  0  0.123656  0  4.071338  0  0  0.015479  0.125005  0  4.034418  0
C  C19  1  0.14727217  0.77535212  0.33789390  1  0  0.107279  0  3.781958  0  0  0.124836  0  4.048984  0  0  0.123713  0  4.071158  0  0  0.015515  0.125063  0  4.034241  0
C  C20  1  0.14727566  0.33789408  0.77535188  1  0  0.107345  0  3.781926  0  0  0.124856  0  4.049006  0  0  0.12372  0  4.071201  0  0  0.015535  0.125094  0  4.034247  0
C  C21  1  0.85272842  0.22464647  0.66210797  1  0  0.107296  0  3.782044  0  0  0.124847  0  4.049076  0  0  0.123719  0  4.071257  0  0  0.015535  0.125076  0  4.034325  0
C  C22  1  0.00000068  0.75413725  0.24586221  1  0  -0.128085  0  3.672156  0  0  -0.16616  0  3.9221  0  0  -0.164625  0  3.938992  0  0  -0.084785  -0.166834  0  3.91089  0
C  C23  1  0.99999978  0.24586282  0.75413577  1  0  -0.128146  0  3.672253  0  0  -0.166219  0  3.922236  0  0  -0.164678  0  3.939136  0  0  -0.084801  -0.166899  0  3.91103  0
C  C24  1  0.97689051  0.79052751  0.90437363  1  0  0.057728  0  3.69553  0  0  0.012748  0  3.956762  0  0  0.020176  0  3.972758  0  0  0.029413  0.007931  0  3.946031  0
C  C25  1  0.02311289  0.09562868  0.20947027  1  0  0.057751  0  3.695827  0  0  0.012812  0  3.957033  0  0  0.020241  0  3.973032  0  0  0.029432  0.007996  0  3.946296  0
C  C26  1  0.02310490  0.20947108  0.09562599  1  0  0.05781  0  3.69564  0  0  0.01282  0  3.956852  0  0  0.020253  0  3.972848  0  0  0.029467  0.008002  0  3.946123  0
C  C27  1  0.97688363  0.90437272  0.79052804  1  0  0.057802  0  3.695786  0  0  0.012747  0  3.957053  0  0  0.02018  0  3.97305  0  0  0.029414  0.007921  0  3.946352  0
C  C28  1  0.06772754  0.72438317  0.84109880  1  0  0.107458  0  3.777695  0  0  0.125459  0  4.043639  0  0  0.12405  0  4.065637  0  0  0.016055  0.125866  0  4.029003  0
C  C29  1  0.93227454  0.15889834  0.27561629  1  0  0.107465  0  3.777632  0  0  0.125482  0  4.043535  0  0  0.124074  0  4.065529  0  0  0.016103  0.125886  0  4.028901  0
C  C30  1  0.93227159  0.27561823  0.15890238  1  0  0.107495  0  3.777665  0  0  0.125491  0  4.04361  0  0  0.124081  0  4.065607  0  0  0.016053  0.125895  0  4.028979  0
C  C31  1  0.06772289  0.84109885  0.72438336  1  0  0.107417  0  3.77767  0  0  0.125453  0  4.04359  0  0  0.124042  0  4.065588  0  0  0.016089  0.125856  0  4.028954  0
C  C32  1  0.12001073  0.74966931  0.74967089  1  0  -0.12343  0  3.67666  0  0  -0.160175  0  3.923454  0  0  -0.158722  0  3.941177  0  0  -0.085335  -0.160787  0  3.911686  0
C  C33  1  0.87999013  0.25032998  0.25032890  1  0  -0.123463  0  3.676605  0  0  -0.160223  0  3.923431  0  0  -0.158772  0  3.941149  0  0  -0.085344  -0.160834  0  3.911652  0
Br  Br34  1  0.57651619  0.59969664  0.59969718  1  0  -0.497248  0  1.11031  0  0  -0.436448  0  1.424634  0  0  -0.456798  0  1.403407  0  0  -0.243977  -0.421761  0  1.439006  0
Br  Br35  1  0.42348496  0.40030335  0.40030403  1  0  -0.497245  0  1.11033  0  0  -0.436446  0  1.424671  0  0  -0.456795  0  1.403446  0  0  -0.243975  -0.421763  0  1.43904  0
Br  Br36  1  0.49999993  0.90361988  0.09638052  1  0  -0.509922  0  1.112222  0  0  -0.450602  0  1.429031  0  0  -0.471747  0  1.408399  0  0  -0.251904  -0.435248  0  1.442951  0
Br  Br37  1  0.50000149  0.09638081  0.90361931  1  0  -0.50991  0  1.112156  0  0  -0.450606  0  1.428975  0  0  -0.47175  0  1.408343  0  0  -0.251908  -0.435246  0  1.4429  0
N  N38  1  0.00000049  0.61783532  0.38216585  1  0  -0.279341  0  3.299918  0  0  -0.198435  0  3.559841  0  0  -0.219028  0  3.583774  0  0  -0.323465  -0.184474  0  3.543289  0
N  N39  1  0.00000055  0.38216616  0.61783566  1  0  -0.279391  0  3.300036  0  0  -0.19848  0  3.559992  0  0  -0.219071  0  3.583918  0  0  -0.323527  -0.184522  0  3.543434  0
N  N40  1  0.93891691  0.87872720  0.87872421  1  0  -0.27906  0  3.294171  0  0  -0.201221  0  3.55534  0  0  -0.221627  0  3.578586  0  0  -0.325587  -0.187429  0  3.539307  0
N  N41  1  0.06107647  0.12127279  0.12127398  1  0  -0.279101  0  3.294222  0  0  -0.201288  0  3.55536  0  0  -0.221695  0  3.578605  0  0  -0.325644  -0.187495  0  3.539337  0
Cl  Cl42  1  0.66152537  0.63035484  0.11269345  1  0  -0.079309  0  1.384088  0  0  -0.065857  0  1.615592  0  0  -0.069871  0  1.612173  0  0  0.005658  -0.062897  0  1.618113  0
Cl  Cl43  1  0.33847897  0.88730827  0.36964705  1  0  -0.079327  0  1.384049  0  0  -0.065885  0  1.615537  0  0  -0.069898  0  1.61212  0  0  0.005639  -0.062923  0  1.61806  0
Cl  Cl44  1  0.33847837  0.36964516  0.88730783  1  0  -0.079313  0  1.384045  0  0  -0.065853  0  1.615562  0  0  -0.069862  0  1.612153  0  0  0.005662  -0.062893  0  1.618084  0
Cl  Cl45  1  0.66152505  0.11269243  0.63035495  1  0  -0.079289  0  1.384074  0  0  -0.065839  0  1.615576  0  0  -0.069851  0  1.612161  0  0  0.005656  -0.062879  0  1.618097  0
Cl  Cl46  1  0.12391181  0.61216965  0.87715565  1  0  -0.084316  0  1.381108  0  0  -0.072902  0  1.612807  0  0  -0.076525  0  1.609058  0  0  0.00223  -0.070242  0  1.61556  0
Cl  Cl47  1  0.87609018  0.12284500  0.38782959  1  0  -0.084283  0  1.381131  0  0  -0.072881  0  1.612822  0  0  -0.076504  0  1.609072  0  0  0.002233  -0.070225  0  1.615572  0
Cl  Cl48  1  0.87608389  0.38782964  0.12284469  1  0  -0.084315  0  1.381139  0  0  -0.072905  0  1.612848  0  0  -0.076527  0  1.609098  0  0  0.002237  -0.070246  0  1.615601  0
Cl  Cl49  1  0.12391585  0.87715430  0.61216965  1  0  -0.084309  0  1.381123  0  0  -0.072907  0  1.612807  0  0  -0.07653  0  1.609057  0  0  0.002224  -0.070242  0  1.615562  0
