# generated using pymatgen
data_Cu3H18C14(N3O7)2
_symmetry_space_group_name_H-M   'P 1'
_cell_length_a   7.25696481
_cell_length_b   8.59907559
_cell_length_c   9.39085599
_cell_angle_alpha   72.97618336
_cell_angle_beta   76.80410769
_cell_angle_gamma   82.45383725
_symmetry_Int_Tables_number   1
_chemical_formula_structural   Cu3H18C14(N3O7)2
_chemical_formula_sum   'Cu3 H18 C14 N6 O14'
_cell_volume   544.23550992
_cell_formula_units_Z   1
loop_
 _symmetry_equiv_pos_site_id
 _symmetry_equiv_pos_as_xyz
  1  'x, y, z'
loop_
 _atom_site_type_symbol
 _atom_site_label
 _atom_site_symmetry_multiplicity
 _atom_site_fract_x
 _atom_site_fract_y
 _atom_site_fract_z
 _atom_site_occupancy
 _atom_site_hle17_ddec_charge
 _atom_site_hle17_ddec_spin_density
 _atom_site_hle17_ddec_sum_bond_order
 _atom_site_hle17_magmom
 _atom_site_hse06_10hf_ddec_charge
 _atom_site_hse06_10hf_ddec_spin_density
 _atom_site_hse06_10hf_ddec_sum_bond_order
 _atom_site_hse06_10hf_magmom
 _atom_site_hse06_ddec_charge
 _atom_site_hse06_ddec_spin_density
 _atom_site_hse06_ddec_sum_bond_order
 _atom_site_hse06_magmom
 _atom_site_pbe_cm5_charge
 _atom_site_pbe_ddec_charge
 _atom_site_pbe_ddec_spin_density
 _atom_site_pbe_ddec_sum_bond_order
 _atom_site_pbe_magmom
Cu  Cu0  1  0.49886715  0.99862945  0.99863073  1  0.865314  0.727119  1.830015  0.534  0.83015  0.815581  2.226975  0.653  0.91591  0.881862  2.164769  0.735  0.748351  0.775905  0.75362  2.271382  0.588
Cu  Cu1  1  0.63836311  0.71314546  0.67667798  1  0.847473  -0.737142  1.824372  -0.515  0.828552  -0.826338  2.21455  -0.64  0.917023  -0.911728  2.149151  -0.73  0.740818  0.772254  -0.749204  2.261283  -0.57
Cu  Cu2  1  0.36053458  0.28202599  0.32786321  1  0.843804  0.700021  1.817481  0.514  0.822135  0.789352  2.20796  0.632  0.907827  0.861508  2.145099  0.718  0.742546  0.768142  0.733794  2.253569  0.573
H  H3  1  0.03086579  0.58277981  0.72322145  1  0.124173  -0.000526  0.909852  -0.001  0.133859  -0.000321  0.961725  -0.001  0.136145  -0.000242  0.959573  -0.001  0.138427  0.13202  -0.000352  0.963555  -0.001
H  H4  1  0.97560785  0.41531805  0.28419010  1  0.117394  0.000378  0.92117  0.001  0.12742  0.000224  0.973553  0.001  0.129757  0.000172  0.971429  0.001  0.134601  0.125548  0.000283  0.975365  0.001
H  H5  1  0.70118597  0.56716777  0.41955149  1  0.119838  -0.000406  0.939723  -0.001  0.125596  -0.000305  1.000952  -0.001  0.128845  -0.000262  0.99821  -0.001  0.130674  0.122877  -0.000316  1.003701  -0.001
H  H6  1  0.30406786  0.43227141  0.58820048  1  0.124159  0.000357  0.927985  0.001  0.130672  0.00026  0.986679  0.001  0.133737  0.000211  0.984176  0.001  0.133768  0.128128  0.000323  0.989182  0.001
H  H7  1  0.05765006  0.09874444  0.63361394  1  0.140152  -0.000147  0.977703  0.0  0.147082  -0.000224  1.041091  0.0  0.150494  -0.00019  1.039456  0.0  0.113555  0.144733  -0.000199  1.042083  0.0
H  H8  1  0.94306630  0.90171669  0.36197684  1  0.142903  0.000737  0.975156  0.001  0.150375  0.000669  1.037101  0.001  0.153819  0.000499  1.035359  0.001  0.115619  0.148065  0.000776  1.038162  0.001
H  H9  1  0.80493022  0.82283973  0.83176832  1  0.423193  0.00036  0.885806  0.001  0.393692  -0.000122  0.948321  0.0  0.407007  -6.5e-05  0.929311  0.0  0.290452  0.38426  -0.000134  0.961828  0.0
H  H10  1  0.19442216  0.18012954  0.16607926  1  0.427225  -0.000311  0.880447  -0.002  0.397631  0.000407  0.942128  0.0  0.411151  0.000148  0.923085  -0.001  0.292285  0.388352  0.000608  0.95517  0.0
H  H11  1  0.82993931  0.93785302  0.65928492  1  0.414431  0.000689  0.887881  0.002  0.382692  7.3e-05  0.96177  0.001  0.394438  0.000125  0.945151  0.001  0.292429  0.374504  4.8e-05  0.973279  0.0
H  H12  1  0.16864986  0.06591211  0.33869134  1  0.411793  -0.00068  0.892332  -0.002  0.38007  8e-06  0.967282  0.0  0.391807  -9.4e-05  0.950703  0.0  0.290533  0.372011  6.7e-05  0.978557  0.0
H  H13  1  0.56810270  0.39954354  0.82767485  1  0.426678  2.2e-05  0.877191  0.0  0.402293  -7.9e-05  0.930368  0.0  0.414119  -4.7e-05  0.913412  0.0  0.278535  0.394066  -0.000105  0.942186  0.0
H  H14  1  0.40698182  0.60666933  0.15414011  1  0.440497  3.1e-05  0.862186  0.0  0.409901  1.8e-05  0.92421  0.0  0.422119  1.9e-05  0.906838  0.0  0.284468  0.401456  2.6e-05  0.936256  0.0
H  H15  1  0.17005064  0.76476351  0.15376934  1  0.419354  0.000211  0.886405  0.0  0.390926  0.000211  0.946564  0.0  0.401986  0.000119  0.930926  0.0  0.286409  0.383307  0.000334  0.957277  0.0
H  H16  1  0.81789911  0.22987089  0.85026628  1  0.416469  0.000288  0.890314  0.0  0.386664  0.000239  0.953373  0.0  0.397778  0.000147  0.937586  0.0  0.282749  0.379019  0.000358  0.964177  0.0
H  H17  1  0.27601218  0.79195182  0.27750650  1  0.416165  6.9e-05  0.891176  0.0  0.380896  5e-06  0.962996  0.0  0.393328  -3e-06  0.944938  0.0  0.282733  0.372184  4.8e-05  0.975574  0.0
H  H18  1  0.72002161  0.20407408  0.72278660  1  0.410547  -5.7e-05  0.898891  0.0  0.37819  -3e-05  0.965837  0.0  0.390303  -2.3e-05  0.94827  0.0  0.282345  0.369616  1.2e-05  0.978219  0.0
H  H19  1  0.46700595  0.50720251  0.93862447  1  0.420433  -1.7e-05  0.876232  0.0  0.399194  -0.000122  0.924153  0.0  0.410713  -8.4e-05  0.90728  0.0  0.284482  0.390962  -0.00015  0.9362  0.0
H  H20  1  0.60491330  0.50488186  0.12055434  1  0.420691  -4.8e-05  0.820789  0.0  0.409401  -1e-05  0.866681  0.0  0.418782  -1.8e-05  0.85671  0.0  0.322256  0.402854  5e-06  0.873758  0.0
C  C21  1  0.23904031  0.06420800  0.80546058  1  0.011065  -0.004501  3.77302  -0.005  0.013276  -0.00262  4.033909  -0.003  0.011417  -0.002139  4.054357  -0.003  0.069513  0.01381  -0.003233  4.021018  -0.004
C  C22  1  0.75771362  0.93295875  0.19321242  1  0.009047  0.000434  3.78037  0.004  0.011162  0.001942  4.041372  0.004  0.009598  -0.00023  4.061187  0.001  0.068327  0.011204  0.003601  4.029088  0.006
C  C23  1  0.17799164  0.03949955  0.68345474  1  -0.173298  -0.001201  3.689055  0.0  -0.214006  -0.000888  3.957068  0.0  -0.215597  -0.000686  3.972424  0.0  -0.101484  -0.212995  -0.001076  3.947229  0.0
C  C24  1  0.82231790  0.96050285  0.31241728  1  -0.15991  0.001617  3.673218  0.001  -0.20096  0.001064  3.939386  0.0  -0.20233  0.00113  3.954569  0.0  -0.096409  -0.200125  0.001256  3.929766  0.0
C  C25  1  0.30951997  0.91981602  0.63911440  1  0.001696  -0.001702  3.787379  -0.002  0.000522  -0.000494  4.056363  0.0  -0.001057  0.000316  4.076287  0.001  0.066731  0.002069  -0.001291  4.042976  -0.001
C  C26  1  0.69342957  0.08263710  0.35425612  1  -0.002177  0.00213  3.81209  0.005  -0.002309  0.002755  4.080311  0.005  -0.003617  0.000291  4.099621  0.002  0.064035  -0.001254  0.004516  4.067467  0.007
C  C27  1  0.16540455  0.16683450  0.91011430  1  0.63786  -0.004426  3.902669  -0.007  0.59107  -0.00074  4.201646  -0.003  0.627731  -0.000535  4.193377  -0.002  0.216218  0.565836  -0.000808  4.206421  -0.003
C  C28  1  0.82730689  0.82541090  0.09319248  1  0.626992  -0.002557  3.920662  -0.004  0.581649  0.000583  4.217814  -0.001  0.618047  0.000389  4.20954  0.0  0.211383  0.556437  0.000791  4.222606  -0.001
C  C29  1  0.33404064  0.83480632  0.51995280  1  0.637087  0.004848  3.918382  0.008  0.584656  0.001084  4.227958  0.003  0.621304  0.000854  4.221659  0.002  0.212946  0.559663  0.001139  4.231023  0.004
C  C30  1  0.67169560  0.17183360  0.46937890  1  0.632362  -0.004333  3.91899  -0.007  0.580488  -0.000112  4.228525  -0.002  0.617648  -0.000246  4.221572  -0.001  0.21247  0.555011  0.000128  4.232373  -0.002
C  C31  1  0.01775495  0.54464974  0.62567795  1  0.114224  0.016069  3.599179  0.017  0.083913  0.004907  3.855863  0.006  0.090204  0.005763  3.870095  0.007  0.069953  0.079096  0.004335  3.847922  0.006
C  C32  1  0.98748052  0.45394582  0.38173125  1  0.108797  -0.016645  3.619307  -0.017  0.078647  -0.005016  3.875847  -0.006  0.084713  -0.005978  3.890264  -0.007  0.064404  0.073971  -0.004128  3.867724  -0.005
C  C33  1  0.83645694  0.53677933  0.45616639  1  0.089352  0.015447  3.621662  0.017  0.061946  0.004492  3.876802  0.006  0.067482  0.005359  3.891095  0.007  0.063174  0.057448  0.003959  3.86931  0.005
C  C34  1  0.16906546  0.46187949  0.55104570  1  0.097516  -0.015956  3.602601  -0.017  0.069583  -0.004511  3.858624  -0.006  0.075222  -0.00549  3.872711  -0.007  0.067747  0.065022  -0.003653  3.851149  -0.005
N  N35  1  0.39888723  0.96548598  0.83013734  1  -0.19919  0.064288  3.254396  0.082  -0.175103  0.04459  3.570588  0.06  -0.196653  0.037699  3.595927  0.054  -0.256867  -0.160735  0.046125  3.555289  0.06
N  N36  1  0.59817941  0.03161681  0.16798038  1  -0.191683  0.073128  3.233783  0.091  -0.166688  0.051624  3.548271  0.068  -0.187275  0.042135  3.572564  0.058  -0.254424  -0.153421  0.055905  3.53371  0.071
N  N37  1  0.44043651  0.87799345  0.73029293  1  -0.200372  -0.087702  3.288805  -0.106  -0.174722  -0.057111  3.602994  -0.074  -0.200555  -0.046944  3.630744  -0.064  -0.258267  -0.159299  -0.060437  3.586663  -0.076
N  N38  1  0.56046302  0.12320120  0.26491182  1  -0.219563  0.088128  3.291933  0.111  -0.194033  0.060321  3.608221  0.08  -0.218539  0.04892  3.635014  0.068  -0.265184  -0.179485  0.065939  3.592372  0.084
N  N39  1  0.85216393  0.58200682  0.57788068  1  -0.239845  -0.077175  3.298623  -0.093  -0.193531  -0.051827  3.588904  -0.067  -0.21849  -0.044036  3.606981  -0.059  -0.324795  -0.179203  -0.054106  3.579826  -0.068
N  N40  1  0.15292956  0.41621303  0.42951959  1  -0.247275  0.071678  3.298843  0.092  -0.200619  0.049099  3.590477  0.066  -0.224748  0.041723  3.608316  0.059  -0.32789  -0.186629  0.052582  3.581485  0.068
O  O41  1  0.27473254  0.15860369  0.00566423  1  -0.602298  0.080229  2.117819  0.11  -0.562003  0.053083  2.386268  0.079  -0.604387  0.040886  2.375189  0.064  -0.320738  -0.533204  0.060922  2.393509  0.087
O  O42  1  0.71694387  0.83023977  0.99893189  1  -0.61771  0.074789  2.115707  0.102  -0.579194  0.05044  2.388119  0.074  -0.620805  0.039159  2.375992  0.061  -0.323616  -0.550371  0.057442  2.396038  0.081
O  O43  1  0.01253359  0.25236758  0.90923298  1  -0.569135  0.008686  1.935685  0.012  -0.528569  0.004844  2.147778  0.007  -0.553635  0.002674  2.138476  0.004  -0.30335  -0.509738  0.007775  2.152758  0.011
O  O44  1  0.97742476  0.73631001  0.09755950  1  -0.563956  0.015824  1.942297  0.021  -0.52315  0.006898  2.151937  0.01  -0.547978  0.003091  2.142692  0.005  -0.30141  -0.504016  0.011584  2.156755  0.016
O  O45  1  0.47238217  0.72620602  0.51629408  1  -0.580231  -0.07759  2.009042  -0.1  -0.562672  -0.044104  2.288381  -0.063  -0.603995  -0.03075  2.283626  -0.046  -0.312142  -0.533502  -0.052588  2.290816  -0.073
O  O46  1  0.53844614  0.28731596  0.46563287  1  -0.585414  0.089041  2.016003  0.121  -0.570018  0.054694  2.301617  0.081  -0.612353  0.040106  2.295594  0.063  -0.316297  -0.540887  0.064232  2.305725  0.091
O  O47  1  0.22041231  0.87085736  0.42782455  1  -0.630469  -0.006008  2.040712  -0.007  -0.562657  -0.003355  2.258324  -0.004  -0.590626  -0.001763  2.249081  -0.002  -0.307659  -0.542732  -0.004729  2.263474  -0.006
O  O48  1  0.77979680  0.13557839  0.56469281  1  -0.611308  0.010993  2.042598  0.014  -0.543879  0.005982  2.257235  0.008  -0.571934  0.003011  2.248435  0.004  -0.297882  -0.523692  0.008925  2.262405  0.012
O  O49  1  0.49736500  0.50783623  0.83018763  1  -0.847919  -0.010896  1.870207  -0.015  -0.804205  -0.008519  2.043217  -0.013  -0.828306  -0.006297  2.005252  -0.01  -0.608912  -0.78697  -0.009794  2.069938  -0.014
O  O50  1  0.46891501  0.49882430  0.13285913  1  -0.83038  0.0006  1.869061  0.002  -0.780602  0.001315  2.049421  0.003  -0.804005  0.000664  2.015841  0.002  -0.567546  -0.764041  0.001896  2.073013  0.004
O  O51  1  0.84162599  0.82203455  0.72128875  1  -0.788135  -0.07541  1.977295  -0.096  -0.764393  -0.055327  2.209813  -0.077  -0.799467  -0.043398  2.173754  -0.064  -0.572621  -0.742029  -0.0605  2.235581  -0.081
O  O52  1  0.15793177  0.18254565  0.27682074  1  -0.783958  0.07795  1.970524  0.104  -0.758988  0.056571  2.203954  0.082  -0.795194  0.044084  2.169517  0.068  -0.572832  -0.735265  0.063732  2.227821  0.088
O  O53  1  0.29727249  0.76637933  0.17739483  1  -0.848242  -0.000189  1.909955  0.001  -0.802341  -0.000479  2.096244  0.0  -0.825583  -0.000846  2.061154  0.0  -0.58142  -0.786629  1.2e-05  2.121278  0.001
O  O54  1  0.69279717  0.22513496  0.82465093  1  -0.846218  -0.000538  1.901026  0.001  -0.799665  -0.000681  2.081969  0.0  -0.823326  -0.000969  2.047432  0.0  -0.583187  -0.783604  -0.000297  2.106698  0.001
