# generated using pymatgen
data_HgH12C15(IN2)2
_symmetry_space_group_name_H-M   'P 1'
_cell_length_a   9.91959186
_cell_length_b   12.91454442
_cell_length_c   13.55455324
_cell_angle_alpha   90.00050426
_cell_angle_beta   90.00003108
_cell_angle_gamma   96.62187078
_symmetry_Int_Tables_number   1
_chemical_formula_structural   HgH12C15(IN2)2
_chemical_formula_sum   'Hg4 H48 C60 I8 N16'
_cell_volume   1724.84922375
_cell_formula_units_Z   4
loop_
 _symmetry_equiv_pos_site_id
 _symmetry_equiv_pos_as_xyz
  1  'x, y, z'
loop_
 _atom_site_type_symbol
 _atom_site_label
 _atom_site_symmetry_multiplicity
 _atom_site_fract_x
 _atom_site_fract_y
 _atom_site_fract_z
 _atom_site_occupancy
 _atom_site_hle17_bader_spin_density
 _atom_site_hle17_ddec_charge
 _atom_site_hle17_ddec_spin_density
 _atom_site_hle17_ddec_sum_bond_order
 _atom_site_hle17_magmom
 _atom_site_hse06_10hf_bader_spin_density
 _atom_site_hse06_10hf_ddec_charge
 _atom_site_hse06_10hf_ddec_spin_density
 _atom_site_hse06_10hf_ddec_sum_bond_order
 _atom_site_hse06_10hf_magmom
 _atom_site_hse06_bader_spin_density
 _atom_site_hse06_ddec_charge
 _atom_site_hse06_ddec_spin_density
 _atom_site_hse06_ddec_sum_bond_order
 _atom_site_hse06_magmom
 _atom_site_pbe_bader_spin_density
 _atom_site_pbe_cm5_charge
 _atom_site_pbe_ddec_charge
 _atom_site_pbe_ddec_spin_density
 _atom_site_pbe_ddec_sum_bond_order
 _atom_site_pbe_magmom
Hg  Hg0  1  0.84049889  0.54221689  0.81542143  1  0  0.584864  0  2.156166  0  0  0.455228  0  2.643888  0  0  0.497519  0  2.618732  0  0  0.422498  0.427742  0  2.660022  0
Hg  Hg1  1  0.65949599  0.95777917  0.31542436  1  0  0.584906  0  2.156164  0  0  0.455275  0  2.64388  0  0  0.497568  0  2.618717  0  0  0.422524  0.427788  0  2.660017  0
Hg  Hg2  1  0.15949894  0.45778580  0.18457831  1  0  0.584872  0  2.156174  0  0  0.455244  0  2.643902  0  0  0.497538  0  2.618739  0  0  0.422522  0.427759  0  2.660035  0
Hg  Hg3  1  0.34050083  0.04222352  0.68457463  1  0  0.584915  0  2.156153  0  0  0.455288  0  2.643863  0  0  0.497582  0  2.618701  0  0  0.422539  0.427803  0  2.659999  0
H  H4  1  0.03980445  0.70523239  0.65943230  1  0  0.084896  0  0.972752  0  0  0.090086  0  1.048431  0  0  0.09311  0  1.043914  0  0  0.119902  0.087727  0  1.051852  0
H  H5  1  0.46019631  0.79476639  0.15943399  1  0  0.084946  0  0.972819  0  0  0.090113  0  1.048537  0  0  0.093139  0  1.044019  0  0  0.119929  0.087757  0  1.05195  0
H  H6  1  0.96020394  0.29477339  0.34056817  1  0  0.084934  0  0.972711  0  0  0.090105  0  1.048425  0  0  0.09313  0  1.043905  0  0  0.119928  0.087733  0  1.051854  0
H  H7  1  0.53980193  0.20523240  0.84056722  1  0  0.084836  0  0.972691  0  0  0.090023  0  1.048385  0  0  0.093047  0  1.043869  0  0  0.11987  0.087655  0  1.05181  0
H  H8  1  0.57408274  0.37842020  0.43842191  1  0  0.090197  0  0.96336  0  0  0.101249  0  1.023642  0  0  0.104378  0  1.022114  0  0  0.087337  0.099162  0  1.024611  0
H  H9  1  0.92591811  0.12157872  0.93842484  1  0  0.090207  0  0.9634  0  0  0.101269  0  1.023671  0  0  0.104397  0  1.022145  0  0  0.087345  0.099183  0  1.024639  0
H  H10  1  0.42592255  0.62157857  0.56158668  1  0  0.090199  0  0.963515  0  0  0.101318  0  1.023695  0  0  0.104445  0  1.022169  0  0  0.087392  0.099232  0  1.024664  0
H  H11  1  0.07408061  0.87842318  0.06157711  1  0  0.090167  0  0.963405  0  0  0.101218  0  1.023687  0  0  0.104343  0  1.022165  0  0  0.087334  0.099132  0  1.024657  0
H  H12  1  0.63440660  0.44074747  0.60869854  1  0  0.107261  0  0.956971  0  0  0.117707  0  1.01886  0  0  0.120693  0  1.017222  0  0  0.09445  0.115676  0  1.019974  0
H  H13  1  0.86559278  0.05924991  0.10869674  1  0  0.107254  0  0.957155  0  0  0.117701  0  1.019018  0  0  0.120687  0  1.017379  0  0  0.09445  0.115669  0  1.020133  0
H  H14  1  0.36559562  0.55925754  0.39131004  1  0  0.107176  0  0.957023  0  0  0.117634  0  1.018897  0  0  0.120616  0  1.017265  0  0  0.094449  0.115601  0  1.020011  0
H  H15  1  0.13441257  0.94074263  0.89130447  1  0  0.107289  0  0.957141  0  0  0.117746  0  1.019007  0  0  0.120732  0  1.01737  0  0  0.094474  0.115714  0  1.020121  0
H  H16  1  0.90943831  0.57996947  0.31354375  1  0  0.098516  0  0.979932  0  0  0.104987  0  1.052419  0  0  0.107697  0  1.051534  0  0  0.091396  0.103026  0  1.053015  0
H  H17  1  0.59056452  0.92002578  0.81354758  1  0  0.098464  0  0.980043  0  0  0.104927  0  1.052559  0  0  0.107632  0  1.051678  0  0  0.091354  0.102966  0  1.053151  0
H  H18  1  0.09055851  0.42003322  0.68645819  1  0  0.098457  0  0.980061  0  0  0.104947  0  1.052503  0  0  0.107657  0  1.051616  0  0  0.09137  0.102985  0  1.0531  0
H  H19  1  0.40943514  0.07996911  0.18645732  1  0  0.098478  0  0.980058  0  0  0.10494  0  1.052546  0  0  0.107651  0  1.051657  0  0  0.091353  0.10298  0  1.053144  0
H  H20  1  0.71043108  0.44572087  0.29415925  1  0  0.088602  0  0.974532  0  0  0.098753  0  1.036347  0  0  0.100299  0  1.037909  0  0  0.092907  0.097738  0  1.035091  0
H  H21  1  0.78956567  0.05427826  0.79416304  1  0  0.088575  0  0.974472  0  0  0.0987  0  1.036324  0  0  0.100244  0  1.037889  0  0  0.092917  0.097692  0  1.035057  0
H  H22  1  0.28956716  0.55427792  0.70584638  1  0  0.088569  0  0.974622  0  0  0.09871  0  1.036458  0  0  0.100249  0  1.038038  0  0  0.092906  0.097697  0  1.035199  0
H  H23  1  0.21042890  0.94572287  0.20583964  1  0  0.088611  0  0.974475  0  0  0.098776  0  1.036278  0  0  0.100322  0  1.037842  0  0  0.092924  0.097767  0  1.03501  0
H  H24  1  0.82017707  0.75439485  0.38613557  1  0  0.085373  0  0.982368  0  0  0.090799  0  1.056782  0  0  0.093673  0  1.052682  0  0  0.121501  0.088662  0  1.059531  0
H  H25  1  0.67981926  0.74559719  0.88613575  1  0  0.085496  0  0.982286  0  0  0.090931  0  1.05667  0  0  0.093815  0  1.052551  0  0  0.121537  0.088781  0  1.059451  0
H  H26  1  0.17982354  0.24560627  0.61386195  1  0  0.085349  0  0.982336  0  0  0.090805  0  1.056719  0  0  0.093687  0  1.052617  0  0  0.121489  0.088667  0  1.059469  0
H  H27  1  0.32018224  0.25440315  0.11386840  1  0  0.085427  0  0.982383  0  0  0.090889  0  1.056726  0  0  0.093771  0  1.05262  0  0  0.121527  0.088742  0  1.059503  0
H  H28  1  0.30578689  0.90655837  0.45704955  1  0  0.08755  0  1.024777  0  0  0.09295  0  1.098408  0  0  0.096448  0  1.096288  0  0  0.078022  0.090904  0  1.099712  0
H  H29  1  0.19420364  0.59343154  0.95704403  1  0  0.08755  0  1.024628  0  0  0.092952  0  1.098262  0  0  0.096442  0  1.096169  0  0  0.078026  0.090909  0  1.099565  0
H  H30  1  0.69420780  0.09344354  0.54295019  1  0  0.087532  0  1.024705  0  0  0.092933  0  1.09835  0  0  0.096428  0  1.096243  0  0  0.078017  0.090887  0  1.099655  0
H  H31  1  0.80579323  0.40656491  0.04294832  1  0  0.087541  0  1.024744  0  0  0.092997  0  1.098327  0  0  0.096487  0  1.096234  0  0  0.078036  0.090952  0  1.099633  0
H  H32  1  0.12261107  0.67916236  0.39431982  1  0  0.073165  0  0.960549  0  0  0.078028  0  1.04004  0  0  0.079301  0  1.038657  0  0  0.107649  0.077111  0  1.040841  0
H  H33  1  0.37739476  0.82083550  0.89432293  1  0  0.073154  0  0.96055  0  0  0.078045  0  1.040033  0  0  0.079311  0  1.038656  0  0  0.107674  0.077129  0  1.04083  0
H  H34  1  0.87738729  0.32083720  0.60567917  1  0  0.073153  0  0.960551  0  0  0.078015  0  1.040043  0  0  0.07929  0  1.038658  0  0  0.10766  0.077098  0  1.040847  0
H  H35  1  0.62260835  0.17916874  0.10567828  1  0  0.073125  0  0.960507  0  0  0.078005  0  1.040007  0  0  0.079273  0  1.03863  0  0  0.107676  0.077092  0  1.040803  0
H  H36  1  0.16988265  0.75047013  0.50456795  1  0  0.087142  0  0.933684  0  0  0.096454  0  1.004898  0  0  0.097776  0  1.003589  0  0  0.120966  0.09555  0  1.005558  0
H  H37  1  0.33011991  0.74952797  0.00456994  1  0  0.087138  0  0.933693  0  0  0.096457  0  1.004933  0  0  0.097775  0  1.003625  0  0  0.120954  0.095553  0  1.005593  0
H  H38  1  0.83011808  0.24953178  0.49542883  1  0  0.087114  0  0.933738  0  0  0.096415  0  1.004957  0  0  0.09774  0  1.003645  0  0  0.120941  0.095512  0  1.005615  0
H  H39  1  0.66987833  0.25047081  0.99542831  1  0  0.087143  0  0.933637  0  0  0.096453  0  1.004894  0  0  0.097774  0  1.003585  0  0  0.120967  0.09555  0  1.005553  0
H  H40  1  0.97743494  0.12319685  0.29267432  1  0  0.085906  0  1.005231  0  0  0.090512  0  1.083417  0  0  0.093759  0  1.081022  0  0  0.08112  0.087282  0  1.086729  0
H  H41  1  0.52256464  0.37679446  0.79266817  1  0  0.08596  0  1.00509  0  0  0.090549  0  1.083319  0  0  0.0938  0  1.080923  0  0  0.081144  0.087321  0  1.086622  0
H  H42  1  0.02256318  0.87680116  0.70732172  1  0  0.085838  0  1.005219  0  0  0.090466  0  1.083393  0  0  0.093715  0  1.081002  0  0  0.081093  0.087234  0  1.086706  0
H  H43  1  0.47744291  0.62320586  0.20732862  1  0  0.085874  0  1.005204  0  0  0.090474  0  1.083416  0  0  0.093724  0  1.081019  0  0  0.081094  0.087242  0  1.086729  0
H  H44  1  0.37504124  0.09206579  0.41241464  1  0  0.074343  0  1.006161  0  0  0.080595  0  1.077784  0  0  0.08337  0  1.076775  0  0  0.076373  0.077825  0  1.079825  0
H  H45  1  0.12495579  0.40792463  0.91240658  1  0  0.074376  0  1.006169  0  0  0.080621  0  1.077793  0  0  0.083396  0  1.076787  0  0  0.076393  0.077849  0  1.07983  0
H  H46  1  0.62495268  0.90793769  0.58758804  1  0  0.074329  0  1.006238  0  0  0.080609  0  1.077797  0  0  0.083387  0  1.076786  0  0  0.076361  0.077839  0  1.079837  0
H  H47  1  0.87504915  0.59207181  0.08758651  1  0  0.074351  0  1.006188  0  0  0.080619  0  1.077769  0  0  0.083402  0  1.07675  0  0  0.076378  0.077844  0  1.079805  0
H  H48  1  0.21570861  0.19786445  0.33019398  1  0  0.088836  0  0.954856  0  0  0.099205  0  1.015504  0  0  0.101871  0  1.014831  0  0  0.092193  0.097058  0  1.016458  0
H  H49  1  0.28428746  0.30212676  0.83018509  1  0  0.088822  0  0.954843  0  0  0.099223  0  1.015473  0  0  0.101888  0  1.014802  0  0  0.092163  0.097071  0  1.016441  0
H  H50  1  0.78428607  0.80213747  0.66980575  1  0  0.088903  0  0.954793  0  0  0.099252  0  1.015458  0  0  0.101918  0  1.014786  0  0  0.092213  0.097106  0  1.016418  0
H  H51  1  0.71571771  0.69787123  0.16980874  1  0  0.088817  0  0.954964  0  0  0.099243  0  1.015558  0  0  0.101908  0  1.014885  0  0  0.09219  0.097094  0  1.016523  0
C  C52  1  0.80785102  0.54452540  0.55673566  1  0  0.141751  0  3.821631  0  0  0.138117  0  4.070778  0  0  0.141725  0  4.093501  0  0  0.081264  0.134953  0  4.055939  0
C  C53  1  0.69214746  0.95546900  0.05673711  1  0  0.14172  0  3.821681  0  0  0.138051  0  4.070837  0  0  0.141658  0  4.093561  0  0  0.081276  0.134889  0  4.055997  0
C  C54  1  0.19214813  0.45548587  0.44326850  1  0  0.14174  0  3.821884  0  0  0.13816  0  4.070989  0  0  0.141769  0  4.093715  0  0  0.081288  0.134997  0  4.056148  0
C  C55  1  0.30785663  0.04452198  0.94326483  1  0  0.141626  0  3.821594  0  0  0.138022  0  4.070684  0  0  0.14163  0  4.093405  0  0  0.081202  0.134862  0  4.055843  0
C  C56  1  0.97057620  0.65698338  0.61152145  1  0  0.207119  0  3.675685  0  0  0.144332  0  3.950712  0  0  0.161814  0  3.961672  0  0  0.158168  0.133043  0  3.942735  0
C  C57  1  0.52942566  0.84301309  0.11152189  1  0  0.206884  0  3.675636  0  0  0.144186  0  3.950687  0  0  0.161662  0  3.961654  0  0  0.158104  0.132898  0  3.942702  0
C  C58  1  0.02942388  0.34302087  0.38847755  1  0  0.206988  0  3.67538  0  0  0.144162  0  3.950416  0  0  0.161644  0  3.961374  0  0  0.158063  0.132889  0  3.942445  0
C  C59  1  0.47057364  0.15697946  0.88848079  1  0  0.20714  0  3.67537  0  0  0.144398  0  3.950394  0  0  0.161875  0  3.961361  0  0  0.15819  0.133118  0  3.94242  0
C  C60  1  0.88336899  0.58395431  0.47335132  1  0  0.097285  0  3.769782  0  0  0.08714  0  4.015573  0  0  0.091105  0  4.037893  0  0  0.087168  0.084323  0  4.000799  0
C  C61  1  0.61662978  0.91604011  0.97336028  1  0  0.097212  0  3.769779  0  0  0.087196  0  4.015565  0  0  0.091158  0  4.03789  0  0  0.087257  0.084382  0  4.000782  0
C  C62  1  0.11662920  0.41605071  0.52665210  1  0  0.097246  0  3.769909  0  0  0.087068  0  4.015637  0  0  0.091031  0  4.03796  0  0  0.087145  0.084251  0  4.000863  0
C  C63  1  0.38336827  0.08395088  0.02664387  1  0  0.097397  0  3.769816  0  0  0.087321  0  4.015546  0  0  0.091284  0  4.037869  0  0  0.087224  0.084505  0  4.000768  0
C  C64  1  0.66164835  0.43639523  0.44975563  1  0  -0.078078  0  3.777659  0  0  -0.09378  0  4.027713  0  0  -0.096511  0  4.050215  0  0  -0.10363  -0.091459  0  4.012465  0
C  C65  1  0.83835241  0.06360302  0.94975214  1  0  -0.078261  0  3.777967  0  0  -0.093989  0  4.028051  0  0  -0.096723  0  4.050554  0  0  -0.103728  -0.091669  0  4.012805  0
C  C66  1  0.33835565  0.56360822  0.55025369  1  0  -0.078141  0  3.777994  0  0  -0.093912  0  4.028071  0  0  -0.096643  0  4.05057  0  0  -0.103707  -0.091595  0  4.012829  0
C  C67  1  0.16164962  0.93639420  0.05025055  1  0  -0.078102  0  3.778071  0  0  -0.093826  0  4.028161  0  0  -0.096559  0  4.050665  0  0  -0.103714  -0.091507  0  4.01292  0
C  C68  1  0.69448240  0.47051876  0.54527497  1  0  -0.135473  0  3.740462  0  0  -0.151003  0  3.986502  0  0  -0.15332  0  4.006468  0  0  -0.096125  -0.149251  0  3.973232  0
C  C69  1  0.80551933  0.02948114  0.04528101  1  0  -0.135452  0  3.740244  0  0  -0.150954  0  3.986281  0  0  -0.153267  0  4.006244  0  0  -0.096107  -0.149203  0  3.973013  0
C  C70  1  0.30551603  0.52948782  0.45473066  1  0  -0.135419  0  3.740396  0  0  -0.150983  0  3.986482  0  0  -0.153296  0  4.006447  0  0  -0.096164  -0.149233  0  3.973215  0
C  C71  1  0.19448086  0.97051063  0.95472241  1  0  -0.135514  0  3.740155  0  0  -0.15107  0  3.986194  0  0  -0.153381  0  4.006153  0  0  -0.096106  -0.149319  0  3.972927  0
C  C72  1  0.85092336  0.54995083  0.37762245  1  0  -0.15321  0  3.76872  0  0  -0.171008  0  4.022393  0  0  -0.175182  0  4.044125  0  0  -0.103238  -0.167897  0  4.007619  0
C  C73  1  0.64907924  0.95004268  0.87762065  1  0  -0.153268  0  3.768322  0  0  -0.171087  0  4.021998  0  0  -0.175257  0  4.043727  0  0  -0.103286  -0.167974  0  4.007221  0
C  C74  1  0.14907181  0.45005420  0.62238171  1  0  -0.153175  0  3.768889  0  0  -0.170967  0  4.022524  0  0  -0.175142  0  4.04426  0  0  -0.103221  -0.167856  0  4.007751  0
C  C75  1  0.35092622  0.04995064  0.12238425  1  0  -0.153283  0  3.768496  0  0  -0.171091  0  4.022143  0  0  -0.175261  0  4.043871  0  0  -0.103271  -0.167982  0  4.007374  0
C  C76  1  0.73891442  0.47479430  0.36762252  1  0  -0.063475  0  3.766469  0  0  -0.076446  0  4.015056  0  0  -0.078445  0  4.039042  0  0  -0.09815  -0.075272  0  3.998588  0
C  C77  1  0.76108829  0.02520395  0.86762679  1  0  -0.063223  0  3.766751  0  0  -0.076168  0  4.01534  0  0  -0.078163  0  4.039327  0  0  -0.098076  -0.074998  0  3.998876  0
C  C78  1  0.26108530  0.52520760  0.63238164  1  0  -0.063329  0  3.766792  0  0  -0.0763  0  4.015396  0  0  -0.0783  0  4.039384  0  0  -0.098109  -0.075124  0  3.998928  0
C  C79  1  0.23891136  0.97479093  0.13237294  1  0  -0.06332  0  3.766907  0  0  -0.076292  0  4.015455  0  0  -0.078291  0  4.039443  0  0  -0.098066  -0.075119  0  3.998995  0
C  C80  1  0.10045632  0.91297005  0.40192783  1  0  0.103918  0  3.766692  0  0  0.095878  0  4.00575  0  0  0.099858  0  4.027849  0  0  0.088657  0.092964  0  3.991408  0
C  C81  1  0.39953949  0.58702167  0.90192677  1  0  0.104038  0  3.766357  0  0  0.095945  0  4.005512  0  0  0.099923  0  4.027605  0  0  0.088697  0.093018  0  3.991181  0
C  C82  1  0.89954293  0.08702874  0.59806600  1  0  0.103855  0  3.766467  0  0  0.095838  0  4.005588  0  0  0.099818  0  4.027685  0  0  0.088652  0.092918  0  3.991251  0
C  C83  1  0.60045922  0.41298024  0.09806558  1  0  0.104261  0  3.766316  0  0  0.096084  0  4.005467  0  0  0.100067  0  4.027557  0  0  0.088695  0.09315  0  3.991144  0
C  C84  1  0.00723702  0.97357236  0.35662595  1  0  0.145799  0  3.816508  0  0  0.145979  0  4.056097  0  0  0.149695  0  4.079298  0  0  0.081579  0.143083  0  4.040671  0
C  C85  1  0.49275270  0.52641270  0.85662147  1  0  0.145761  0  3.816192  0  0  0.145979  0  4.055773  0  0  0.149695  0  4.07898  0  0  0.081665  0.143095  0  4.040339  0
C  C86  1  0.99276264  0.02642252  0.64337157  1  0  0.145845  0  3.816261  0  0  0.14602  0  4.055874  0  0  0.149738  0  4.079073  0  0  0.081569  0.143129  0  4.04045  0
C  C87  1  0.50724691  0.47358842  0.14337236  1  0  0.145643  0  3.816314  0  0  0.145885  0  4.055899  0  0  0.149602  0  4.079102  0  0  0.081589  0.143007  0  4.040463  0
C  C88  1  0.90007125  0.81923466  0.38191587  1  0  0.200497  0  3.668229  0  0  0.134152  0  3.942357  0  0  0.153022  0  3.951109  0  0  0.14989  0.122025  0  3.935621  0
C  C89  1  0.59992258  0.68075422  0.88191253  1  0  0.200218  0  3.668627  0  0  0.133875  0  3.942784  0  0  0.152743  0  3.951548  0  0  0.149762  0.121751  0  3.936036  0
C  C90  1  0.09992526  0.18075945  0.61808312  1  0  0.20041  0  3.668452  0  0  0.134092  0  3.942616  0  0  0.152955  0  3.951375  0  0  0.149922  0.12197  0  3.935876  0
C  C91  1  0.40007151  0.31924379  0.11808425  1  0  0.200354  0  3.668332  0  0  0.133974  0  3.942415  0  0  0.152836  0  3.95118  0  0  0.149796  0.121852  0  3.935672  0
C  C92  1  0.23393544  0.95334271  0.42298000  1  0  -0.15716  0  3.788205  0  0  -0.173385  0  4.037174  0  0  -0.177189  0  4.058192  0  0  -0.108009  -0.171756  0  4.023238  0
C  C93  1  0.26605840  0.54664921  0.92297338  1  0  -0.157288  0  3.788029  0  0  -0.173486  0  4.036982  0  0  -0.177287  0  4.058003  0  0  -0.108121  -0.171855  0  4.023043  0
C  C94  1  0.76606417  0.04665841  0.57702047  1  0  -0.157104  0  3.788232  0  0  -0.17331  0  4.037184  0  0  -0.177115  0  4.058204  0  0  -0.107995  -0.171681  0  4.023248  0
C  C95  1  0.73394096  0.45335036  0.07701971  1  0  -0.157334  0  3.788443  0  0  -0.173591  0  4.037403  0  0  -0.177396  0  4.058427  0  0  -0.108107  -0.171955  0  4.023467  0
C  C96  1  0.08474947  0.72345604  0.45574880  1  0  0.123338  0  3.603943  0  0  0.050887  0  3.840859  0  0  0.060459  0  3.849523  0  0  0.060775  0.04446  0  3.835029  0
C  C97  1  0.41525298  0.77653930  0.95575082  1  0  0.12315  0  3.603948  0  0  0.05072  0  3.840985  0  0  0.060312  0  3.849612  0  0  0.06069  0.044295  0  3.83515  0
C  C98  1  0.91525050  0.27654743  0.54424577  1  0  0.123409  0  3.603901  0  0  0.050995  0  3.840765  0  0  0.060563  0  3.849427  0  0  0.060795  0.044566  0  3.834933  0
C  C99  1  0.58474549  0.22346105  0.04425039  1  0  0.123426  0  3.603857  0  0  0.050884  0  3.840916  0  0  0.060468  0  3.849557  0  0  0.060704  0.044456  0  3.835086  0
C  C100  1  0.04746167  0.07716993  0.33006876  1  0  -0.144931  0  3.759041  0  0  -0.166535  0  4.014212  0  0  -0.168899  0  4.034195  0  0  -0.103381  -0.163992  0  4.000539  0
C  C101  1  0.45252978  0.42281738  0.83006537  1  0  -0.145019  0  3.75932  0  0  -0.166617  0  4.014464  0  0  -0.168967  0  4.034411  0  0  -0.103494  -0.16407  0  4.000786  0
C  C102  1  0.95253343  0.92282809  0.66992507  1  0  -0.1449  0  3.759231  0  0  -0.166519  0  4.014359  0  0  -0.168893  0  4.034356  0  0  -0.103371  -0.163971  0  4.000678  0
C  C103  1  0.54746923  0.57717984  0.16992846  1  0  -0.14488  0  3.759352  0  0  -0.166492  0  4.014482  0  0  -0.168854  0  4.034459  0  0  -0.10337  -0.163948  0  4.000801  0
C  C104  1  0.27188284  0.05709167  0.39711113  1  0  -0.076258  0  3.789007  0  0  -0.087728  0  4.035963  0  0  -0.090729  0  4.060171  0  0  -0.106042  -0.084383  0  4.019066  0
C  C105  1  0.22811338  0.44290017  0.89710709  1  0  -0.076193  0  3.788974  0  0  -0.087676  0  4.035963  0  0  -0.090658  0  4.060112  0  0  -0.105972  -0.084327  0  4.01906  0
C  C106  1  0.72811184  0.94291025  0.60288417  1  0  -0.076286  0  3.788909  0  0  -0.087769  0  4.035887  0  0  -0.090759  0  4.060064  0  0  -0.106028  -0.084424  0  4.018991  0
C  C107  1  0.77188728  0.55709472  0.10288453  1  0  -0.076197  0  3.789024  0  0  -0.087662  0  4.03599  0  0  -0.090659  0  4.060174  0  0  -0.105973  -0.084309  0  4.019083  0
C  C108  1  0.18059520  0.11770785  0.35096451  1  0  -0.072665  0  3.773035  0  0  -0.088359  0  4.026499  0  0  -0.090683  0  4.048949  0  0  -0.103739  -0.086439  0  4.010353  0
C  C109  1  0.31939560  0.38228824  0.85095852  1  0  -0.072615  0  3.773263  0  0  -0.088347  0  4.026704  0  0  -0.090671  0  4.049166  0  0  -0.103702  -0.086426  0  4.010551  0
C  C110  1  0.81939949  0.88229407  0.64903448  1  0  -0.072703  0  3.772883  0  0  -0.088387  0  4.026356  0  0  -0.090711  0  4.048807  0  0  -0.103733  -0.086468  0  4.010208  0
C  C111  1  0.68060650  0.61771600  0.14903678  1  0  -0.072663  0  3.773108  0  0  -0.08841  0  4.026543  0  0  -0.090747  0  4.049026  0  0  -0.103756  -0.086492  0  4.010396  0
I  I112  1  0.97994798  0.71987995  0.88962826  1  0  -0.372744  0  1.130168  0  0  -0.327885  0  1.462892  0  0  -0.346273  0  1.445589  0  0  -0.166538  -0.316921  0  1.474705  0
I  I113  1  0.52004920  0.78011759  0.38962965  1  0  -0.372716  0  1.130183  0  0  -0.32786  0  1.462911  0  0  -0.346247  0  1.445607  0  0  -0.16652  -0.316898  0  1.474722  0
I  I114  1  0.02005150  0.28012040  0.11037516  1  0  -0.372742  0  1.130175  0  0  -0.327884  0  1.462917  0  0  -0.34627  0  1.445614  0  0  -0.16654  -0.316922  0  1.474728  0
I  I115  1  0.47995166  0.21988510  0.61037008  1  0  -0.372717  0  1.130168  0  0  -0.327842  0  1.462882  0  0  -0.346231  0  1.44558  0  0  -0.166513  -0.316879  0  1.47469  0
I  I116  1  0.83726379  0.33154618  0.81647259  1  0  -0.356115  0  1.141486  0  0  -0.315595  0  1.483788  0  0  -0.331164  0  1.463504  0  0  -0.151723  -0.30452  0  1.4985  0
I  I117  1  0.66274285  0.16845159  0.31647162  1  0  -0.356141  0  1.141421  0  0  -0.315613  0  1.483704  0  0  -0.331181  0  1.463422  0  0  -0.151744  -0.304537  0  1.49842  0
I  I118  1  0.16274513  0.66845649  0.18352715  1  0  -0.356138  0  1.141542  0  0  -0.315602  0  1.483818  0  0  -0.331166  0  1.463527  0  0  -0.151725  -0.304527  0  1.498535  0
I  I119  1  0.33726856  0.83155419  0.68353549  1  0  -0.356135  0  1.141428  0  0  -0.315625  0  1.483723  0  0  -0.331193  0  1.46344  0  0  -0.151739  -0.304549  0  1.498441  0
N  N120  1  0.98551651  0.65669571  0.51117509  1  0  -0.14645  0  3.513428  0  0  -0.05978  0  3.737262  0  0  -0.077739  0  3.761824  0  0  -0.242971  -0.047617  0  3.720584  0
N  N121  1  0.51449171  0.84329667  0.01117332  1  0  -0.146088  0  3.513158  0  0  -0.059637  0  3.737217  0  0  -0.0776  0  3.761784  0  0  -0.242964  -0.047477  0  3.720534  0
N  N122  1  0.01448873  0.34330930  0.48882833  1  0  -0.146509  0  3.513592  0  0  -0.059691  0  3.737244  0  0  -0.077652  0  3.761804  0  0  -0.24292  -0.04753  0  3.72056  0
N  N123  1  0.48551073  0.15669665  0.98882936  1  0  -0.146506  0  3.513358  0  0  -0.059914  0  3.737309  0  0  -0.07788  0  3.761874  0  0  -0.242883  -0.047751  0  3.720626  0
N  N124  1  0.86638851  0.59161151  0.64138418  1  0  -0.38369  0  3.180228  0  0  -0.319455  0  3.460208  0  0  -0.340387  0  3.476627  0  0  -0.334417  -0.3049  0  3.44833  0
N  N125  1  0.63360897  0.90838914  0.14138669  1  0  -0.383655  0  3.180256  0  0  -0.31942  0  3.460227  0  0  -0.340354  0  3.476652  0  0  -0.334459  -0.304868  0  3.448348  0
N  N126  1  0.13361224  0.40840364  0.35861777  1  0  -0.383603  0  3.180212  0  0  -0.319412  0  3.460225  0  0  -0.34035  0  3.47666  0  0  -0.334401  -0.304858  0  3.448337  0
N  N127  1  0.36639311  0.09160184  0.85861526  1  0  -0.383664  0  3.180116  0  0  -0.319446  0  3.460092  0  0  -0.340382  0  3.476523  0  0  -0.334506  -0.30489  0  3.448209  0
N  N128  1  0.02831478  0.81512971  0.41702418  1  0  -0.143832  0  3.485961  0  0  -0.059162  0  3.713796  0  0  -0.076425  0  3.736177  0  0  -0.240652  -0.047808  0  3.698284  0
N  N129  1  0.47167828  0.68486372  0.91702323  1  0  -0.143718  0  3.485835  0  0  -0.059021  0  3.7137  0  0  -0.076289  0  3.736082  0  0  -0.240558  -0.047665  0  3.698184  0
N  N130  1  0.97168595  0.18487220  0.58297481  1  0  -0.143661  0  3.485575  0  0  -0.059163  0  3.713618  0  0  -0.076429  0  3.735999  0  0  -0.240652  -0.047808  0  3.698107  0
N  N131  1  0.52832145  0.31513818  0.08297281  1  0  -0.143974  0  3.48588  0  0  -0.059121  0  3.71361  0  0  -0.076386  0  3.735991  0  0  -0.240629  -0.047765  0  3.698103  0
N  N132  1  0.88346749  0.91218449  0.34579630  1  0  -0.372277  0  3.186501  0  0  -0.302937  0  3.462098  0  0  -0.324649  0  3.478891  0  0  -0.335187  -0.288122  0  3.44983  0
N  N133  1  0.61652473  0.58780718  0.84579661  1  0  -0.372146  0  3.18643  0  0  -0.302817  0  3.46201  0  0  -0.324534  0  3.478809  0  0  -0.335139  -0.288006  0  3.449736  0
N  N134  1  0.11653325  0.08781741  0.65419901  1  0  -0.372278  0  3.186561  0  0  -0.302929  0  3.462144  0  0  -0.324641  0  3.478936  0  0  -0.335227  -0.288118  0  3.449879  0
N  N135  1  0.38347600  0.41219472  0.15420239  1  0  -0.372108  0  3.18616  0  0  -0.302817  0  3.461781  0  0  -0.32453  0  3.478579  0  0  -0.335115  -0.288007  0  3.449508  0
