# generated using pymatgen
data_ZnH16C25S2N3O4
_symmetry_space_group_name_H-M   'P 1'
_cell_length_a   9.99404757
_cell_length_b   10.94898642
_cell_length_c   12.10300000
_cell_angle_alpha   104.47496337
_cell_angle_beta   101.15633855
_cell_angle_gamma   109.87693973
_symmetry_Int_Tables_number   1
_chemical_formula_structural   ZnH16C25S2N3O4
_chemical_formula_sum   'Zn2 H32 C50 S4 N6 O8'
_cell_volume   1148.15555700
_cell_formula_units_Z   2
loop_
 _symmetry_equiv_pos_site_id
 _symmetry_equiv_pos_as_xyz
  1  'x, y, z'
loop_
 _atom_site_type_symbol
 _atom_site_label
 _atom_site_symmetry_multiplicity
 _atom_site_fract_x
 _atom_site_fract_y
 _atom_site_fract_z
 _atom_site_occupancy
 _atom_site_hle17_bader_spin_density
 _atom_site_hle17_ddec_charge
 _atom_site_hle17_ddec_spin_density
 _atom_site_hle17_ddec_sum_bond_order
 _atom_site_hle17_magmom
 _atom_site_hse06_10hf_bader_spin_density
 _atom_site_hse06_10hf_ddec_charge
 _atom_site_hse06_10hf_ddec_spin_density
 _atom_site_hse06_10hf_ddec_sum_bond_order
 _atom_site_hse06_10hf_magmom
 _atom_site_hse06_bader_spin_density
 _atom_site_hse06_ddec_charge
 _atom_site_hse06_ddec_spin_density
 _atom_site_hse06_ddec_sum_bond_order
 _atom_site_hse06_magmom
 _atom_site_pbe_bader_charge
 _atom_site_pbe_bader_spin_density
 _atom_site_pbe_cm5_charge
 _atom_site_pbe_ddec_charge
 _atom_site_pbe_ddec_spin_density
 _atom_site_pbe_ddec_sum_bond_order
 _atom_site_pbe_magmom
Zn  Zn0  1  0.60042209  0.01589765  0.11306735  1  0  1.04295  0  1.870168  0  0  0.870745  0  2.341726  0  0  0.923293  0  2.275722  0  1.304411  0  0.67598  0.834142  0  2.386688  0
Zn  Zn1  1  0.39958009  0.98410267  0.88693481  1  0  1.042968  0  1.870188  0  0  0.870743  0  2.341744  0  0  0.923256  0  2.275803  0  1.304208  0  0.675997  0.834139  0  2.386704  0
H  H2  1  0.41722130  0.59888887  0.09026618  1  0  0.099859  0  0.952303  0  0  0.108479  0  1.016398  0  0  0.112368  0  1.013345  0  0.105575  0  0.102163  0.105747  0  1.018402  0
H  H3  1  0.58277839  0.40111041  0.90973204  1  0  0.099853  0  0.952287  0  0  0.108473  0  1.016384  0  0  0.11236  0  1.013331  0  0.105565  0  0.102159  0.105741  0  1.018388  0
H  H4  1  0.27732951  0.34917252  0.06565588  1  0  0.09104  0  0.967907  0  0  0.102336  0  1.026306  0  0  0.104707  0  1.026429  0  0.068971  0  0.098416  0.100474  0  1.026783  0
H  H5  1  0.72267155  0.65082987  0.93434326  1  0  0.091027  0  0.967903  0  0  0.102321  0  1.026308  0  0  0.104692  0  1.026431  0  0.068948  0  0.098414  0.100456  0  1.026791  0
H  H6  1  0.02098766  0.21573296  0.92051530  1  0  0.101614  0  0.94992  0  0  0.109982  0  1.015825  0  0  0.113234  0  1.013555  0  0.120948  0  0.105697  0.107557  0  1.017553  0
H  H7  1  0.97901248  0.78426736  0.07948570  1  0  0.101612  0  0.949917  0  0  0.109978  0  1.015832  0  0  0.11323  0  1.01356  0  0.120944  0  0.105697  0.107553  0  1.017559  0
H  H8  1  0.05113794  0.57327652  0.82099274  1  0  0.098386  0  0.966365  0  0  0.107318  0  1.035295  0  0  0.110553  0  1.032865  0  0.084665  0  0.098641  0.104843  0  1.037422  0
H  H9  1  0.94886017  0.42672380  0.17900712  1  0  0.098414  0  0.966352  0  0  0.10735  0  1.035272  0  0  0.110584  0  1.032844  0  0.084686  0  0.098658  0.104875  0  1.037398  0
H  H10  1  0.52625394  0.19664048  0.55874051  1  0  0.139893  0  0.975277  0  0  0.143932  0  1.041688  0  0  0.148028  0  1.03927  0  0.164774  0  0.109175  0.140963  0  1.043533  0
H  H11  1  0.47374722  0.80335983  0.44125983  1  0  0.139845  0  0.975315  0  0  0.143949  0  1.041663  0  0  0.148046  0  1.039242  0  0.164771  0  0.109198  0.140979  0  1.043509  0
H  H12  1  0.57831779  0.01191833  0.65402381  1  0  0.094899  0  0.954682  0  0  0.103917  0  1.016663  0  0  0.106037  0  1.01567  0  0.135967  0  0.112655  0.10246  0  1.017389  0
H  H13  1  0.42168337  0.98808199  0.34597736  1  0  0.09487  0  0.954706  0  0  0.103898  0  1.016673  0  0  0.106017  0  1.01568  0  0.135962  0  0.112646  0.102439  0  1.017402  0
H  H14  1  0.09036368  0.08955333  0.03117037  1  0  0.09189  0  0.979654  0  0  0.101854  0  1.043684  0  0  0.104829  0  1.041553  0  0.069601  0  0.102515  0.099615  0  1.045376  0
H  H15  1  0.90963748  0.91044698  0.96882997  1  0  0.091881  0  0.979658  0  0  0.10185  0  1.043681  0  0  0.104825  0  1.041551  0  0.069731  0  0.102509  0.099611  0  1.045372  0
H  H16  1  0.93409758  0.18929269  0.12990919  1  0  0.108691  0  0.97439  0  0  0.11758  0  1.034739  0  0  0.120908  0  1.033524  0  0.116616  0  0.101788  0.115003  0  1.036025  0
H  H17  1  0.06590210  0.81070659  0.87009150  1  0  0.10867  0  0.974402  0  0  0.117555  0  1.034753  0  0  0.120885  0  1.033535  0  0.116596  0  0.101786  0.114978  0  1.036038  0
H  H18  1  0.02895146  0.31927386  0.34759767  1  0  0.082562  0  0.962948  0  0  0.092676  0  1.029886  0  0  0.095833  0  1.027337  0  0.03645  0  0.091839  0.090501  0  1.031493  0
H  H19  1  0.97104925  0.68072542  0.65240236  1  0  0.082558  0  0.962953  0  0  0.092682  0  1.029879  0  0  0.095839  0  1.027331  0  0.036443  0  0.09184  0.090507  0  1.031487  0
H  H20  1  0.42571563  0.23922439  0.37030624  1  0  0.104045  0  0.955779  0  0  0.108901  0  1.028047  0  0  0.113137  0  1.024201  0  0.111042  0  0.103334  0.105864  0  1.030706  0
H  H21  1  0.57428508  0.76077490  0.62969379  1  0  0.104074  0  0.95575  0  0  0.108917  0  1.028031  0  0  0.113152  0  1.024187  0  0.111048  0  0.103337  0.105878  0  1.030695  0
H  H22  1  0.55129168  0.47477436  0.75479568  1  0  0.081612  0  0.973531  0  0  0.090836  0  1.039138  0  0  0.092319  0  1.038969  0  0.089631  0  0.108163  0.089723  0  1.039459  0
H  H23  1  0.44870903  0.52522492  0.24520518  1  0  0.081612  0  0.973556  0  0  0.090848  0  1.039149  0  0  0.092318  0  1.038993  0  0.089643  0  0.108164  0.089734  0  1.039471  0
H  H24  1  0.36491520  0.59973538  0.78628548  1  0  0.13882  0  0.979465  0  0  0.148938  0  1.034863  0  0  0.151226  0  1.035288  0  0.150846  0  0.111047  0.147276  0  1.03471  0
H  H25  1  0.63508642  0.40026597  0.21371517  1  0  0.138809  0  0.979481  0  0  0.148928  0  1.034877  0  0  0.151216  0  1.035302  0  0.150842  0  0.111027  0.147267  0  1.034722  0
H  H26  1  0.71877320  0.16359041  0.38202870  1  0  0.085771  0  0.930086  0  0  0.092551  0  0.996181  0  0  0.095282  0  0.993709  0  0.113185  0  0.119052  0.090615  0  0.997837  0
H  H27  1  0.28122979  0.83641404  0.61797286  1  0  0.08581  0  0.930077  0  0  0.092598  0  0.996164  0  0  0.09533  0  0.99369  0  0.113347  0  0.119075  0.090662  0  0.99782  0
H  H28  1  0.89512594  0.16387465  0.55562318  1  0  0.099459  0  0.992957  0  0  0.105223  0  1.06217  0  0  0.107784  0  1.062575  0  0.10214  0  0.102793  0.103397  0  1.062048  0
H  H29  1  0.10487409  0.83612773  0.44437992  1  0  0.099408  0  0.992995  0  0  0.105205  0  1.06219  0  0  0.107767  0  1.062593  0  0.102194  0  0.102774  0.103379  0  1.062068  0
H  H30  1  0.95649132  0.83883367  0.30889958  1  0  0.107196  0  0.977871  0  0  0.114919  0  1.042715  0  0  0.117579  0  1.042605  0  0.107036  0  0.107441  0.113147  0  1.042631  0
H  H31  1  0.04350098  0.16116044  0.69110621  1  0  0.107226  0  0.977795  0  0  0.114921  0  1.04267  0  0  0.117582  0  1.042561  0  0.107308  0  0.107452  0.113152  0  1.04258  0
H  H32  1  0.77589027  0.85223727  0.14704727  1  0  0.086441  0  0.947299  0  0  0.094403  0  1.012675  0  0  0.096611  0  1.010883  0  0.109595  0  0.120545  0.09251  0  1.014436  0
H  H33  1  0.22410499  0.14775891  0.85295946  1  0  0.086456  0  0.947258  0  0  0.094435  0  1.012623  0  0  0.096644  0  1.010829  0  0.109546  0  0.120558  0.092541  0  1.014384  0
C  C34  1  0.32716015  0.74676355  0.97133096  1  0  0.6623  0  3.881212  0  0  0.61044  0  4.169886  0  0  0.646027  0  4.162046  0  1.583754  0  0.21414  0.586428  0  4.174516  0
C  C35  1  0.67284045  0.25323780  0.02867035  1  0  0.662313  0  3.881161  0  0  0.610425  0  4.169879  0  0  0.646013  0  4.162037  0  1.583873  0  0.214142  0.586417  0  4.174508  0
C  C36  1  0.24045281  0.59949146  0.95829222  1  0  -0.061453  0  3.762906  0  0  -0.034803  0  3.995426  0  0  -0.043678  0  4.018488  0  0.011991  0  -0.018649  -0.029378  0  3.980014  0
C  C37  1  0.75954676  0.40050989  0.04170893  1  0  -0.061424  0  3.762863  0  0  -0.034768  0  3.995392  0  0  -0.043647  0  4.018454  0  0.011993  0  -0.018631  -0.029352  0  3.97999  0
C  C38  1  0.30556873  0.53705952  0.02699696  1  0  -0.066728  0  3.730716  0  0  -0.096357  0  3.981996  0  0  -0.094433  0  4.000446  0  -0.088421  0  -0.085765  -0.097318  0  3.969264  0
C  C39  1  0.69443096  0.46293976  0.97300291  1  0  -0.06673  0  3.730732  0  0  -0.09635  0  3.982001  0  0  -0.094427  0  4.000452  0  -0.088356  0  -0.085754  -0.09731  0  3.969271  0
C  C40  1  0.22757522  0.39880447  0.01269222  1  0  -0.083598  0  3.787167  0  0  -0.093214  0  4.039424  0  0  -0.097207  0  4.061265  0  -0.007518  0  -0.094264  -0.090933  0  4.025  0
C  C41  1  0.77242548  0.60119481  0.98730699  1  0  -0.083547  0  3.78711  0  0  -0.093161  0  4.03936  0  0  -0.097153  0  4.061203  0  -0.007549  0  -0.094256  -0.090879  0  4.024935  0
C  C42  1  0.08480243  0.32306920  0.93118000  1  0  -0.075593  0  3.693565  0  0  -0.099751  0  3.943036  0  0  -0.099173  0  3.962206  0  -0.103024  0  -0.079359  -0.099502  0  3.92982  0
C  C43  1  0.91519771  0.67693111  0.06882100  1  0  -0.075608  0  3.693517  0  0  -0.099769  0  3.942994  0  0  -0.099191  0  3.962165  0  -0.103004  0  -0.07936  -0.099517  0  3.929773  0
C  C44  1  0.01902161  0.38398072  0.86009429  1  0  0.018528  0  3.831791  0  0  0.036034  0  4.070606  0  0  0.032401  0  4.094665  0  -0.01938  0  -0.014267  0.038095  0  4.054048  0
C  C45  1  0.98097956  0.61601959  0.13990687  1  0  0.018536  0  3.831791  0  0  0.036037  0  4.070614  0  0  0.032402  0  4.094672  0  -0.019396  0  -0.014261  0.038097  0  4.054055  0
C  C46  1  0.09851268  0.52277428  0.87456095  1  0  -0.10054  0  3.694897  0  0  -0.135972  0  3.944798  0  0  -0.135062  0  3.964772  0  -0.049554  0  -0.08416  -0.135884  0  3.931091  0
C  C47  1  0.90148736  0.47722810  0.12544051  1  0  -0.100575  0  3.694912  0  0  -0.136011  0  3.944817  0  0  -0.135096  0  3.964788  0  -0.049573  0  -0.084169  -0.135917  0  3.931112  0
C  C48  1  0.87018440  0.30063513  0.77362556  1  0  0.10703  0  3.781406  0  0  0.101824  0  4.060294  0  0  0.11147  0  4.077016  0  0.444206  0  0.112939  0.095353  0  4.048614  0
C  C49  1  0.12981574  0.69936518  0.22637544  1  0  0.107045  0  3.78135  0  0  0.101852  0  4.060228  0  0  0.111498  0  4.076949  0  0.444206  0  0.112938  0.095381  0  4.048548  0
C  C50  1  0.62700455  0.20885958  0.62217966  1  0  -0.221525  0  3.695844  0  0  -0.232934  0  3.968473  0  0  -0.237432  0  3.987166  0  -0.283562  0  -0.103685  -0.229929  0  3.956458  0
C  C51  1  0.37299604  0.79114177  0.37782165  1  0  -0.22151  0  3.695846  0  0  -0.232985  0  3.968484  0  0  -0.237484  0  3.987178  0  -0.28359  0  -0.10373  -0.229979  0  3.956471  0
C  C52  1  0.65575201  0.11779204  0.67303796  1  0  0.081451  0  3.771095  0  0  0.054748  0  4.035555  0  0  0.058557  0  4.054751  0  0.44093  0  0.005777  0.051856  0  4.022676  0
C  C53  1  0.34424960  0.88220931  0.32696434  1  0  0.081525  0  3.771105  0  0  0.054822  0  4.035569  0  0  0.058631  0  4.054767  0  0.440902  0  0.005794  0.05193  0  4.022691  0
C  C54  1  0.35654576  0.09776624  0.13196335  1  0  0.670343  0  3.869659  0  0  0.617818  0  4.159435  0  0  0.653778  0  4.151234  0  1.546342  0  0.21734  0.593627  0  4.163841  0
C  C55  1  0.64345494  0.90223305  0.86803916  1  0  0.670438  0  3.869613  0  0  0.617901  0  4.159398  0  0  0.653861  0  4.151194  0  1.545731  0  0.217376  0.593708  0  4.163805  0
C  C56  1  0.26457943  0.15507983  0.19489466  1  0  -0.065656  0  3.769735  0  0  -0.040513  0  4.003432  0  0  -0.049164  0  4.025861  0  -0.014861  0  -0.018841  -0.035427  0  3.988288  0
C  C57  1  0.73541979  0.84491842  0.80510655  1  0  -0.065684  0  3.769754  0  0  -0.040545  0  4.003453  0  0  -0.049195  0  4.025881  0  -0.01459  0  -0.018874  -0.035452  0  3.9883  0
C  C58  1  0.12700554  0.14272016  0.12744325  1  0  -0.069528  0  3.733948  0  0  -0.095782  0  3.982426  0  0  -0.094473  0  4.001322  0  0.037608  0  -0.086307  -0.095993  0  3.969531  0
C  C59  1  0.87299573  0.85727809  0.87255747  1  0  -0.069561  0  3.734007  0  0  -0.095806  0  3.98248  0  0  -0.094499  0  4.001378  0  0.037336  0  -0.086311  -0.09602  0  3.969583  0
C  C60  1  0.04172022  0.20005650  0.18236592  1  0  -0.072585  0  3.758203  0  0  -0.085424  0  4.015496  0  0  -0.089359  0  4.036898  0  -0.068797  0  -0.095388  -0.083153  0  4.001221  0
C  C61  1  0.95828048  0.79994279  0.81763494  1  0  -0.072492  0  3.758234  0  0  -0.085327  0  4.015519  0  0  -0.089263  0  4.036921  0  -0.068798  0  -0.095367  -0.083057  0  4.001244  0
C  C62  1  0.09519684  0.27275404  0.30514336  1  0  -0.101185  0  3.75155  0  0  -0.129789  0  4.010182  0  0  -0.129539  0  4.030641  0  -0.069045  0  -0.094481  -0.129469  0  3.995623  0
C  C63  1  0.90480284  0.72724524  0.69485733  1  0  -0.101213  0  3.751555  0  0  -0.12982  0  4.010195  0  0  -0.129571  0  4.030655  0  -0.069069  0  -0.094473  -0.129499  0  3.995636  0
C  C64  1  0.23349164  0.28696384  0.37426274  1  0  0.018191  0  3.834986  0  0  0.036281  0  4.072737  0  0  0.032546  0  4.096433  0  0.035829  0  -0.013335  0.038677  0  4.05665  0
C  C65  1  0.76651008  0.71303544  0.62573828  1  0  0.018286  0  3.83502  0  0  0.036356  0  4.072792  0  0  0.032621  0  4.096489  0  0.0358  0  -0.013307  0.038751  0  4.056704  0
C  C66  1  0.31701812  0.22613294  0.31807634  1  0  -0.078422  0  3.67385  0  0  -0.112938  0  3.921033  0  0  -0.111169  0  3.939321  0  -0.093552  0  -0.077427  -0.114035  0  3.908817  0
C  C67  1  0.68298259  0.77386635  0.68192534  1  0  -0.078518  0  3.673917  0  0  -0.113025  0  3.921123  0  0  -0.111254  0  3.939409  0  -0.093496  0  -0.077446  -0.114122  0  3.908903  0
C  C68  1  0.29540574  0.36728721  0.50211545  1  0  0.13129  0  3.765883  0  0  0.125185  0  4.040605  0  0  0.135618  0  4.056941  0  0.443519  0  0.116992  0.118345  0  4.029138  0
C  C69  1  0.70459542  0.63271310  0.49788654  1  0  0.131207  0  3.76594  0  0  0.125111  0  4.040664  0  0  0.135541  0  4.057002  0  0.443492  0  0.116981  0.118268  0  4.029199  0
C  C70  1  0.45233957  0.45972529  0.68724374  1  0  0.066752  0  3.796122  0  0  0.040785  0  4.058892  0  0  0.04384  0  4.079307  0  0.444145  0  0.003554  0.038788  0  4.044965  0
C  C71  1  0.54766159  0.54027502  0.31275743  1  0  0.066653  0  3.796148  0  0  0.040668  0  4.058942  0  0  0.043734  0  4.079362  0  0.44421  0  0.003499  0.038672  0  4.045014  0
C  C72  1  0.35845745  0.52426885  0.70585068  1  0  -0.201198  0  3.69815  0  0  -0.214138  0  3.966849  0  0  -0.21846  0  3.987772  0  -0.259721  0  -0.10224  -0.211231  0  3.9527  0
C  C73  1  0.64154473  0.47573147  0.29414982  1  0  -0.201179  0  3.698053  0  0  -0.214124  0  3.96676  0  0  -0.218444  0  3.987678  0  -0.259733  0  -0.102199  -0.211217  0  3.952611  0
C  C74  1  0.77447880  0.09327219  0.37036991  1  0  0.132038  0  3.691883  0  0  0.101587  0  3.942503  0  0  0.107935  0  3.961571  0  0.48209  0  0.054072  0.097558  0  3.9294  0
C  C75  1  0.22552226  0.90673020  0.62963253  1  0  0.131907  0  3.691949  0  0  0.101436  0  3.942612  0  0  0.107785  0  3.961677  0  0.48196  0  0.054024  0.097406  0  3.929509  0
C  C76  1  0.87427238  0.09243808  0.46732105  1  0  -0.149418  0  3.698007  0  0  -0.168907  0  3.945937  0  0  -0.17673  0  3.968917  0  -0.029022  0  -0.076098  -0.164115  0  3.930799  0
C  C77  1  0.12572720  0.90756327  0.53268175  1  0  -0.149275  0  3.698017  0  0  -0.168819  0  3.945922  0  0  -0.176643  0  3.968901  0  -0.028991  0  -0.076073  -0.164024  0  3.930781  0
C  C78  1  0.94524910  0.00124961  0.44966894  1  0  0.104749  0  3.709624  0  0  0.117437  0  3.934508  0  0  0.121507  0  3.955128  0  -0.00099  0  0.020869  0.114851  0  3.920613  0
C  C79  1  0.05474753  0.99874967  0.55033622  1  0  0.104666  0  3.70979  0  0  0.117478  0  3.934563  0  0  0.121549  0  3.955185  0  0.032608  0  0.020894  0.114891  0  3.920669  0
C  C80  1  0.90730751  0.91262372  0.33162363  1  0  -0.132764  0  3.663137  0  0  -0.149883  0  3.903682  0  0  -0.157019  0  3.925088  0  -0.019808  0  -0.070297  -0.145291  0  3.889123  0
C  C81  1  0.09268775  0.08737246  0.66838144  1  0  -0.132806  0  3.663074  0  0  -0.149945  0  3.903645  0  0  -0.157083  0  3.925053  0  -0.020067  0  -0.070317  -0.145353  0  3.889085  0
C  C82  1  0.80612919  0.91926351  0.23937968  1  0  0.144451  0  3.67107  0  0  0.11363  0  3.917222  0  0  0.120446  0  3.935855  0  0.47633  0  0.059308  0.109323  0  3.90449  0
C  C83  1  0.19386754  0.08073371  0.76062421  1  0  0.14439  0  3.67097  0  0  0.113557  0  3.917147  0  0  0.120374  0  3.935776  0  0.476557  0  0.059232  0.10925  0  3.904416  0
S  S84  1  0.77677018  0.36625569  0.68247313  1  0  0.099605  0  2.598924  0  0  0.108751  0  2.930636  0  0  0.105011  0  2.938917  0  0.194807  0  0.090882  0.110888  0  2.925272  0
S  S85  1  0.22322996  0.63374463  0.31752787  1  0  0.099593  0  2.598889  0  0  0.108735  0  2.93062  0  0  0.104995  0  2.938902  0  0.194808  0  0.090878  0.110871  0  2.925258  0
S  S86  1  0.21900352  0.47336041  0.57535004  1  0  0.083024  0  2.53886  0  0  0.091156  0  2.85507  0  0  0.089327  0  2.85982  0  0.192905  0  0.075708  0.092354  0  2.852082  0
S  S87  1  0.78099617  0.52663887  0.42465066  1  0  0.083073  0  2.538867  0  0  0.091208  0  2.855078  0  0  0.08938  0  2.859829  0  0.192889  0  0.075706  0.092406  0  2.85209  0
N  N88  1  0.79245561  0.16952012  0.75723312  1  0  -0.323707  0  3.054353  0  0  -0.293755  0  3.327177  0  0  -0.306172  0  3.34277  0  -1.17031  0  -0.326733  -0.28472  0  3.315527  0
N  N89  1  0.20754601  0.83048123  0.24276917  1  0  -0.323757  0  3.05437  0  0  -0.293805  0  3.327178  0  0  -0.306224  0  3.342774  0  -1.170257  0  -0.326737  -0.284768  0  3.315527  0
N  N90  1  0.41646133  0.37199935  0.57312620  1  0  -0.331382  0  3.080126  0  0  -0.295877  0  3.34631  0  0  -0.30879  0  3.361945  0  -1.158557  0  -0.325543  -0.28655  0  3.335094  0
N  N91  1  0.58353938  0.62799993  0.42687466  1  0  -0.331261  0  3.0801  0  0  -0.295751  0  3.346267  0  0  -0.308667  0  3.361911  0  -1.158574  0  -0.32549  -0.286423  0  3.33505  0
N  N92  1  0.74101710  0.00871523  0.25760623  1  0  -0.305581  0  3.265291  0  0  -0.222784  0  3.533238  0  0  -0.242137  0  3.548396  0  -1.239927  0  -0.320909  -0.209586  0  3.522317  0
N  N93  1  0.25898304  0.99128509  0.74239807  1  0  -0.305436  0  3.265261  0  0  -0.222643  0  3.533215  0  0  -0.241993  0  3.548374  0  -1.240194  0  -0.320837  -0.209447  0  3.522296  0
O  O94  1  0.44103849  0.81764301  0.06322632  1  0  -0.626014  0  2.082928  0  0  -0.561744  0  2.345673  0  0  -0.590333  0  2.3329  0  -1.177404  0  -0.312518  -0.541952  0  2.353814  0
O  O95  1  0.55896267  0.18235730  0.93677485  1  0  -0.626027  0  2.082988  0  0  -0.561729  0  2.345726  0  0  -0.590314  0  2.332951  0  -1.1774  0  -0.312518  -0.541937  0  2.353864  0
O  O96  1  0.28192596  0.78757485  0.88706436  1  0  -0.633087  0  2.073954  0  0  -0.563621  0  2.33136  0  0  -0.592047  0  2.318062  0  -1.168529  0  -0.314592  -0.543876  0  2.340099  0
O  O97  1  0.71807612  0.21242753  0.11293742  1  0  -0.633094  0  2.073834  0  0  -0.563644  0  2.33128  0  0  -0.592074  0  2.317979  0  -1.168642  0  -0.314603  -0.543898  0  2.340017  0
O  O98  1  0.47342888  0.09704893  0.19603223  1  0  -0.62836  0  2.068014  0  0  -0.562369  0  2.333829  0  0  -0.590978  0  2.320567  0  -1.178069  0  -0.312195  -0.542184  0  2.341767  0
O  O99  1  0.52657182  0.90295036  0.80396946  1  0  -0.628433  0  2.067987  0  0  -0.562403  0  2.333772  0  0  -0.591012  0  2.320508  0  -1.178059  0  -0.312214  -0.542218  0  2.341712  0
O  O100  1  0.31141698  0.05632135  0.01780805  1  0  -0.646568  0  2.085499  0  0  -0.579747  0  2.351652  0  0  -0.60885  0  2.338292  0  -1.142543  0  -0.315798  -0.559487  0  2.360215  0
O  O101  1  0.68858418  0.94367897  0.98219311  1  0  -0.646583  0  2.085487  0  0  -0.579775  0  2.351668  0  0  -0.608877  0  2.338303  0  -1.142121  0  -0.315804  -0.559515  0  2.360233  0
