# generated using pymatgen
data_AgH12C7S7(OF)3
_symmetry_space_group_name_H-M   'P 1'
_cell_length_a   11.38782892
_cell_length_b   12.07722732
_cell_length_c   12.90756111
_cell_angle_alpha   89.99974606
_cell_angle_beta   107.93844826
_cell_angle_gamma   90.00035345
_symmetry_Int_Tables_number   1
_chemical_formula_structural   AgH12C7S7(OF)3
_chemical_formula_sum   'Ag4 H48 C28 S28 O12 F12'
_cell_volume   1688.92360584
_cell_formula_units_Z   4
loop_
 _symmetry_equiv_pos_site_id
 _symmetry_equiv_pos_as_xyz
  1  'x, y, z'
loop_
 _atom_site_type_symbol
 _atom_site_label
 _atom_site_symmetry_multiplicity
 _atom_site_fract_x
 _atom_site_fract_y
 _atom_site_fract_z
 _atom_site_occupancy
 _atom_site_hle17_bader_spin_density
 _atom_site_hle17_ddec_charge
 _atom_site_hle17_ddec_spin_density
 _atom_site_hle17_ddec_sum_bond_order
 _atom_site_hle17_magmom
 _atom_site_hse06_10hf_bader_spin_density
 _atom_site_hse06_10hf_ddec_charge
 _atom_site_hse06_10hf_ddec_spin_density
 _atom_site_hse06_10hf_ddec_sum_bond_order
 _atom_site_hse06_10hf_magmom
 _atom_site_hse06_bader_spin_density
 _atom_site_hse06_ddec_charge
 _atom_site_hse06_ddec_spin_density
 _atom_site_hse06_ddec_sum_bond_order
 _atom_site_hse06_magmom
 _atom_site_pbe_bader_spin_density
 _atom_site_pbe_cm5_charge
 _atom_site_pbe_ddec_charge
 _atom_site_pbe_ddec_spin_density
 _atom_site_pbe_ddec_sum_bond_order
 _atom_site_pbe_magmom
Ag  Ag0  1  0.72918526  0.24314610  0.17132109  1  0  0.233162  0  1.837469  0  0  0.113529  0  2.308613  0  0  0.132508  0  2.27338  0  0  0.324535  0.100362  0  2.332573  0
Ag  Ag1  1  0.77081647  0.74314353  0.82867580  1  0  0.23315  0  1.837306  0  0  0.113537  0  2.308394  0  0  0.132527  0  2.273143  0  0  0.324506  0.100371  0  2.332352  0
Ag  Ag2  1  0.27081553  0.75684970  0.82867225  1  0  0.233137  0  1.837374  0  0  0.113516  0  2.308505  0  0  0.132483  0  2.273293  0  0  0.324487  0.10035  0  2.332466  0
Ag  Ag3  1  0.22918064  0.25684647  0.17133282  1  0  0.233164  0  1.83729  0  0  0.113538  0  2.308402  0  0  0.132497  0  2.273204  0  0  0.324481  0.100372  0  2.332362  0
H  H4  1  0.60274123  0.26384667  0.87393416  1  0  0.138801  0  0.946693  0  0  0.151938  0  1.006059  0  0  0.15379  0  1.005091  0  0  0.105577  0.150512  0  1.007026  0
H  H5  1  0.89725693  0.76384734  0.12606632  1  0  0.138777  0  0.946715  0  0  0.151916  0  1.006072  0  0  0.15377  0  1.005104  0  0  0.10557  0.150489  0  1.007041  0
H  H6  1  0.39725034  0.73615575  0.12606443  1  0  0.138755  0  0.946757  0  0  0.151925  0  1.006066  0  0  0.153778  0  1.005097  0  0  0.105607  0.150499  0  1.007031  0
H  H7  1  0.10274294  0.23615591  0.87393607  1  0  0.13876  0  0.946746  0  0  0.151916  0  1.00609  0  0  0.153769  0  1.005121  0  0  0.105575  0.150492  0  1.007054  0
H  H8  1  0.44412057  0.29603740  0.85987754  1  0  0.133374  0  0.947444  0  0  0.143816  0  1.011163  0  0  0.145592  0  1.010306  0  0  0.103779  0.142384  0  1.011969  0
H  H9  1  0.05588043  0.79603685  0.14012247  1  0  0.133296  0  0.947351  0  0  0.143715  0  1.011119  0  0  0.145492  0  1.010263  0  0  0.103737  0.142284  0  1.011924  0
H  H10  1  0.55587007  0.70396419  0.14011770  1  0  0.133356  0  0.947302  0  0  0.143778  0  1.011046  0  0  0.145547  0  1.010198  0  0  0.103767  0.142351  0  1.011843  0
H  H11  1  0.94412036  0.20396226  0.85987784  1  0  0.133377  0  0.947442  0  0  0.143819  0  1.011164  0  0  0.145594  0  1.010308  0  0  0.103777  0.142387  0  1.011972  0
H  H12  1  0.86663363  0.42794998  0.04177373  1  0  0.12837  0  0.957826  0  0  0.139962  0  1.024072  0  0  0.141166  0  1.024494  0  0  0.098739  0.138906  0  1.024196  0
H  H13  1  0.63336729  0.92795015  0.95822605  1  0  0.128365  0  0.957827  0  0  0.139965  0  1.024075  0  0  0.141172  0  1.024491  0  0  0.098731  0.138911  0  1.0242  0
H  H14  1  0.13336163  0.57204912  0.95822664  1  0  0.128356  0  0.957787  0  0  0.139976  0  1.024011  0  0  0.141181  0  1.024431  0  0  0.098721  0.138925  0  1.024137  0
H  H15  1  0.36663351  0.07204731  0.04177581  1  0  0.12833  0  0.957808  0  0  0.139923  0  1.024069  0  0  0.141127  0  1.02449  0  0  0.098716  0.138868  0  1.024192  0
H  H16  1  0.81627557  0.31078917  0.95347151  1  0  0.122168  0  0.959908  0  0  0.133852  0  1.027739  0  0  0.134839  0  1.027994  0  0  0.096367  0.132979  0  1.027725  0
H  H17  1  0.68372562  0.81078897  0.04652883  1  0  0.122144  0  0.959902  0  0  0.133828  0  1.027732  0  0  0.134808  0  1.028009  0  0  0.096367  0.132959  0  1.027711  0
H  H18  1  0.18372246  0.68921077  0.04652806  1  0  0.122164  0  0.959905  0  0  0.133852  0  1.02777  0  0  0.13484  0  1.028025  0  0  0.096372  0.132982  0  1.027759  0
H  H19  1  0.31627610  0.18921014  0.95347406  1  0  0.12217  0  0.959891  0  0  0.133855  0  1.027736  0  0  0.134842  0  1.02799  0  0  0.09639  0.132979  0  1.027724  0
H  H20  1  0.37116379  0.39045077  0.01104795  1  0  0.128936  0  0.973614  0  0  0.136389  0  1.046539  0  0  0.13803  0  1.046201  0  0  0.098102  0.134874  0  1.047318  0
H  H21  1  0.12883867  0.89045324  0.98895129  1  0  0.128884  0  0.973642  0  0  0.136347  0  1.046583  0  0  0.137989  0  1.046244  0  0  0.098082  0.13483  0  1.04736  0
H  H22  1  0.62883885  0.60954585  0.98895364  1  0  0.128849  0  0.973672  0  0  0.136303  0  1.046656  0  0  0.137943  0  1.046318  0  0  0.098056  0.134787  0  1.047432  0
H  H23  1  0.87116398  0.10954669  0.01104953  1  0  0.128895  0  0.973633  0  0  0.136371  0  1.046543  0  0  0.138009  0  1.046203  0  0  0.098092  0.134855  0  1.047319  0
H  H24  1  0.47582572  0.43025212  0.14149223  1  0  0.136297  0  0.959587  0  0  0.148203  0  1.023886  0  0  0.149449  0  1.024156  0  0  0.102073  0.147303  0  1.023714  0
H  H25  1  0.02417789  0.93025295  0.85850793  1  0  0.136284  0  0.959537  0  0  0.148197  0  1.023834  0  0  0.149445  0  1.024104  0  0  0.102051  0.147295  0  1.02366  0
H  H26  1  0.52417693  0.56974533  0.85850936  1  0  0.136324  0  0.959497  0  0  0.148226  0  1.023818  0  0  0.149473  0  1.024088  0  0  0.102071  0.147324  0  1.023646  0
H  H27  1  0.97582199  0.06974782  0.14149368  1  0  0.136305  0  0.959539  0  0  0.148214  0  1.023854  0  0  0.149459  0  1.024121  0  0  0.10206  0.147313  0  1.023682  0
H  H28  1  0.67910845  0.97630299  0.37346095  1  0  0.12681  0  0.915775  0  0  0.142561  0  0.968205  0  0  0.144048  0  0.967373  0  0  0.102474  0.141319  0  0.969112  0
H  H29  1  0.82089551  0.47629731  0.62653558  1  0  0.126853  0  0.915758  0  0  0.142587  0  0.968212  0  0  0.14407  0  0.967387  0  0  0.102494  0.141327  0  0.969138  0
H  H30  1  0.32089234  0.02370357  0.62653627  1  0  0.126875  0  0.91567  0  0  0.142589  0  0.968145  0  0  0.144074  0  0.967319  0  0  0.1025  0.141341  0  0.969058  0
H  H31  1  0.17910528  0.52369683  0.37346163  1  0  0.126805  0  0.915775  0  0  0.142565  0  0.968172  0  0  0.14405  0  0.967347  0  0  0.102482  0.141327  0  0.969069  0
H  H32  1  0.57358020  0.02506643  0.24920095  1  0  0.137438  0  0.947015  0  0  0.147902  0  1.014199  0  0  0.149342  0  1.014156  0  0  0.10245  0.146242  0  1.015301  0
H  H33  1  0.92642492  0.52506017  0.75079698  1  0  0.137395  0  0.947035  0  0  0.147866  0  1.014222  0  0  0.149307  0  1.014178  0  0  0.102423  0.146207  0  1.015321  0
H  H34  1  0.42642336  0.97493847  0.75079624  1  0  0.137422  0  0.947058  0  0  0.147891  0  1.014227  0  0  0.149332  0  1.014186  0  0  0.102419  0.146232  0  1.015327  0
H  H35  1  0.07357588  0.47493397  0.24920256  1  0  0.137397  0  0.947038  0  0  0.147854  0  1.014229  0  0  0.149295  0  1.014191  0  0  0.102424  0.146194  0  1.015332  0
H  H36  1  0.85707285  0.09258713  0.49921239  1  0  0.117537  0  0.940344  0  0  0.128504  0  1.007262  0  0  0.129574  0  1.007309  0  0  0.097927  0.127701  0  1.007336  0
H  H37  1  0.64292526  0.59258869  0.50078724  1  0  0.117584  0  0.940284  0  0  0.128538  0  1.007201  0  0  0.129608  0  1.00725  0  0  0.097928  0.127734  0  1.007276  0
H  H38  1  0.14292610  0.90741363  0.50078742  1  0  0.117541  0  0.940268  0  0  0.128507  0  1.007186  0  0  0.129578  0  1.007236  0  0  0.097925  0.127704  0  1.007263  0
H  H39  1  0.35707369  0.40741291  0.49921257  1  0  0.117563  0  0.940327  0  0  0.12851  0  1.007257  0  0  0.12958  0  1.007309  0  0  0.09792  0.127703  0  1.007331  0
H  H40  1  0.89299352  0.23089802  0.47043909  1  0  0.135249  0  0.913443  0  0  0.152987  0  0.962775  0  0  0.154698  0  0.961409  0  0  0.107309  0.151471  0  0.964196  0
H  H41  1  0.60700629  0.73090089  0.52955888  1  0  0.135287  0  0.91347  0  0  0.153028  0  0.962773  0  0  0.154741  0  0.961405  0  0  0.10732  0.151513  0  0.964193  0
H  H42  1  0.10700820  0.76909943  0.52956148  1  0  0.135312  0  0.913444  0  0  0.153021  0  0.962794  0  0  0.154734  0  0.961428  0  0  0.107344  0.151507  0  0.964215  0
H  H43  1  0.39299174  0.26910070  0.47044068  1  0  0.135276  0  0.913433  0  0  0.153008  0  0.962753  0  0  0.154723  0  0.961384  0  0  0.107307  0.151491  0  0.964172  0
H  H44  1  0.97627682  0.92789393  0.29193332  1  0  0.140016  0  0.928061  0  0  0.15992  0  0.976544  0  0  0.161184  0  0.976343  0  0  0.108068  0.158391  0  0.977751  0
H  H45  1  0.52372411  0.42789276  0.70806724  1  0  0.140006  0  0.928068  0  0  0.159889  0  0.976575  0  0  0.161171  0  0.976348  0  0  0.108069  0.158361  0  0.977781  0
H  H46  1  0.02372305  0.07210352  0.70806675  1  0  0.14002  0  0.928081  0  0  0.159901  0  0.976574  0  0  0.161182  0  0.976347  0  0  0.108069  0.158371  0  0.977782  0
H  H47  1  0.47627761  0.57210552  0.29193333  1  0  0.14002  0  0.928033  0  0  0.159915  0  0.976525  0  0  0.161179  0  0.976321  0  0  0.108076  0.158386  0  0.977732  0
H  H48  1  0.90378380  0.91921184  0.39680827  1  0  0.100515  0  0.977444  0  0  0.104671  0  1.057552  0  0  0.106318  0  1.056819  0  0  0.087116  0.103585  0  1.057892  0
H  H49  1  0.59621523  0.41921159  0.60319181  1  0  0.100499  0  0.97745  0  0  0.104661  0  1.057534  0  0  0.106304  0  1.056805  0  0  0.087112  0.103572  0  1.057875  0
H  H50  1  0.09621699  0.08078726  0.60319360  1  0  0.10052  0  0.977476  0  0  0.104679  0  1.057553  0  0  0.10632  0  1.056827  0  0  0.087106  0.103595  0  1.05789  0
H  H51  1  0.40378372  0.58078669  0.39680801  1  0  0.100479  0  0.977488  0  0  0.104653  0  1.057552  0  0  0.106294  0  1.056826  0  0  0.087114  0.103577  0  1.057885  0
C  C52  1  0.53252709  0.26778518  0.91592511  1  0  -0.219643  0  3.600611  0  0  -0.250089  0  3.862203  0  0  -0.249441  0  3.87151  0  0  -0.147498  -0.250495  0  3.855367  0
C  C53  1  0.96746924  0.76778315  0.08407409  1  0  -0.219503  0  3.600487  0  0  -0.249936  0  3.862085  0  0  -0.249293  0  3.871402  0  0  -0.14743  -0.250339  0  3.855247  0
C  C54  1  0.46746447  0.73221972  0.08407193  1  0  -0.219681  0  3.600747  0  0  -0.250095  0  3.862273  0  0  -0.24944  0  3.871566  0  0  -0.147529  -0.250495  0  3.855435  0
C  C55  1  0.03252786  0.23221513  0.91592290  1  0  -0.21961  0  3.600538  0  0  -0.250077  0  3.86214  0  0  -0.249429  0  3.871446  0  0  -0.147494  -0.250481  0  3.855302  0
C  C56  1  0.89385630  0.34762208  0.01692682  1  0  -0.235186  0  3.65051  0  0  -0.268747  0  3.914997  0  0  -0.26825  0  3.925464  0  0  -0.157861  -0.269096  0  3.908052  0
C  C57  1  0.60614326  0.84762280  0.98307602  1  0  -0.235129  0  3.650378  0  0  -0.268768  0  3.915052  0  0  -0.268273  0  3.925515  0  0  -0.157872  -0.269131  0  3.908128  0
C  C58  1  0.10613989  0.65237868  0.98307302  1  0  -0.235203  0  3.650416  0  0  -0.268871  0  3.915054  0  0  -0.268368  0  3.92551  0  0  -0.157914  -0.269241  0  3.908138  0
C  C59  1  0.39385847  0.15237631  0.01692842  1  0  -0.235178  0  3.65053  0  0  -0.268793  0  3.915109  0  0  -0.268292  0  3.925572  0  0  -0.157909  -0.269136  0  3.908158  0
C  C60  1  0.45464279  0.36784799  0.07683272  1  0  -0.24126  0  3.641234  0  0  -0.276386  0  3.905294  0  0  -0.276217  0  3.915714  0  0  -0.157308  -0.276426  0  3.898505  0
C  C61  1  0.04535954  0.86784946  0.92316814  1  0  -0.241126  0  3.641099  0  0  -0.276303  0  3.905225  0  0  -0.27614  0  3.915652  0  0  -0.157269  -0.27633  0  3.898416  0
C  C62  1  0.54536077  0.63215029  0.92317145  1  0  -0.241192  0  3.641187  0  0  -0.27638  0  3.905307  0  0  -0.276211  0  3.915727  0  0  -0.157294  -0.276413  0  3.898507  0
C  C63  1  0.95464218  0.13215048  0.07683243  1  0  -0.241182  0  3.641211  0  0  -0.276393  0  3.905433  0  0  -0.276216  0  3.915843  0  0  -0.157279  -0.276424  0  3.898633  0
C  C64  1  0.67045443  0.02647337  0.30042261  1  0  -0.207718  0  3.622464  0  0  -0.238757  0  3.890854  0  0  -0.237666  0  3.900242  0  0  -0.146601  -0.239387  0  3.885109  0
C  C65  1  0.82954885  0.52646597  0.69957405  1  0  -0.207559  0  3.622016  0  0  -0.238722  0  3.890717  0  0  -0.237634  0  3.900108  0  0  -0.146521  -0.239334  0  3.884963  0
C  C66  1  0.32954729  0.97353401  0.69957640  1  0  -0.20769  0  3.62209  0  0  -0.238807  0  3.890748  0  0  -0.237695  0  3.900073  0  0  -0.146522  -0.239429  0  3.885004  0
C  C67  1  0.17045102  0.47352817  0.30042292  1  0  -0.207666  0  3.622349  0  0  -0.238743  0  3.890848  0  0  -0.237621  0  3.900144  0  0  -0.14656  -0.239372  0  3.885093  0
C  C68  1  0.86245205  0.14955816  0.43433140  1  0  -0.212722  0  3.62532  0  0  -0.245656  0  3.898694  0  0  -0.244525  0  3.908901  0  0  -0.147967  -0.246544  0  3.891825  0
C  C69  1  0.63754731  0.64956103  0.56566833  1  0  -0.212849  0  3.625386  0  0  -0.245744  0  3.898729  0  0  -0.24462  0  3.908944  0  0  -0.147967  -0.246638  0  3.891871  0
C  C70  1  0.13754690  0.85043681  0.56566841  1  0  -0.21277  0  3.625268  0  0  -0.24564  0  3.898556  0  0  -0.244524  0  3.908779  0  0  -0.147971  -0.246534  0  3.891699  0
C  C71  1  0.36245165  0.35044222  0.43433148  1  0  -0.212888  0  3.625476  0  0  -0.245742  0  3.898734  0  0  -0.244628  0  3.908963  0  0  -0.147965  -0.246619  0  3.891854  0
C  C72  1  0.91050859  0.96785316  0.32680757  1  0  -0.217177  0  3.651876  0  0  -0.246628  0  3.919754  0  0  -0.245883  0  3.929827  0  0  -0.153818  -0.247022  0  3.913326  0
C  C73  1  0.58949441  0.46785171  0.67319416  1  0  -0.217159  0  3.65179  0  0  -0.246564  0  3.919619  0  0  -0.245826  0  3.929686  0  0  -0.153812  -0.246955  0  3.913192  0
C  C74  1  0.08949405  0.03214677  0.67319480  1  0  -0.21722  0  3.651811  0  0  -0.246626  0  3.919677  0  0  -0.245883  0  3.929736  0  0  -0.153817  -0.247024  0  3.913248  0
C  C75  1  0.41050731  0.53214740  0.32680641  1  0  -0.217151  0  3.651819  0  0  -0.246586  0  3.919694  0  0  -0.245837  0  3.929764  0  0  -0.153813  -0.246992  0  3.91326  0
C  C76  1  0.85419960  0.62674398  0.36740937  1  0  0.594305  0  3.665874  0  0  0.526715  0  4.033212  0  0  0.554192  0  4.006962  0  0  0.285161  0.506709  0  4.052778  0
C  C77  1  0.64580516  0.12674636  0.63259115  1  0  0.594719  0  3.665286  0  0  0.527034  0  4.032764  0  0  0.554559  0  4.00643  0  0  0.285271  0.507006  0  4.052365  0
C  C78  1  0.14580488  0.37325761  0.63258962  1  0  0.59442  0  3.665714  0  0  0.526782  0  4.033114  0  0  0.554289  0  4.006812  0  0  0.285217  0.50679  0  4.05265  0
C  C79  1  0.35419471  0.87325606  0.36740969  1  0  0.59471  0  3.665373  0  0  0.527035  0  4.032827  0  0  0.554561  0  4.006488  0  0  0.285273  0.507017  0  4.052414  0
S  S80  1  0.58541204  0.36787499  0.02524056  1  0  0.107387  0  2.619008  0  0  0.139718  0  3.010101  0  0  0.134433  0  3.006128  0  0  0.003629  0.144574  0  3.012157  0
S  S81  1  0.91458762  0.86787753  0.97475990  1  0  0.107317  0  2.618874  0  0  0.139644  0  3.00999  0  0  0.13436  0  3.006019  0  0  0.003613  0.144495  0  3.012041  0
S  S82  1  0.41458414  0.63212329  0.97475850  1  0  0.107386  0  2.618892  0  0  0.139703  0  3.010007  0  0  0.134419  0  3.00603  0  0  0.003627  0.144555  0  3.01206  0
S  S83  1  0.08541041  0.13212323  0.02523889  1  0  0.107357  0  2.618913  0  0  0.139708  0  3.010029  0  0  0.134423  0  3.006054  0  0  0.003632  0.144559  0  3.012085  0
S  S84  1  0.51925362  0.12900070  0.96204097  1  0  0.044086  0  2.472774  0  0  0.056981  0  2.837658  0  0  0.052356  0  2.836104  0  0  -0.005447  0.061807  0  2.837858  0
S  S85  1  0.98074009  0.62900227  0.03795654  1  0  0.044091  0  2.47276  0  0  0.057006  0  2.837664  0  0  0.052381  0  2.836109  0  0  -0.00544  0.061837  0  2.837875  0
S  S86  1  0.48074349  0.87099924  0.03795912  1  0  0.044152  0  2.472852  0  0  0.057023  0  2.837765  0  0  0.052402  0  2.836208  0  0  -0.005434  0.061853  0  2.837973  0
S  S87  1  0.01925610  0.37099850  0.96204330  1  0  0.044053  0  2.472627  0  0  0.056916  0  2.837523  0  0  0.052297  0  2.835966  0  0  -0.005501  0.061743  0  2.837726  0
S  S88  1  0.93226340  0.26144153  0.13770495  1  0  0.10135  0  2.831947  0  0  0.132045  0  3.258185  0  0  0.128299  0  3.249985  0  0  -0.014412  0.13295  0  3.264481  0
S  S89  1  0.56773751  0.76144177  0.86229707  1  0  0.101353  0  2.831858  0  0  0.132069  0  3.258092  0  0  0.128323  0  3.249894  0  0  -0.014384  0.132979  0  3.264391  0
S  S90  1  0.06773832  0.73855840  0.86229407  1  0  0.101374  0  2.831847  0  0  0.132086  0  3.258118  0  0  0.128342  0  3.249916  0  0  -0.01438  0.132997  0  3.264416  0
S  S91  1  0.43226144  0.23855651  0.13770585  1  0  0.101384  0  2.831763  0  0  0.132066  0  3.257983  0  0  0.128324  0  3.249781  0  0  -0.014387  0.13297  0  3.264279  0
S  S92  1  0.76222427  0.96868429  0.22235021  1  0  0.006923  0  2.433429  0  0  0.011189  0  2.7969  0  0  0.006626  0  2.796245  0  0  -0.021859  0.01458  0  2.797289  0
S  S93  1  0.73778242  0.46867907  0.77764864  1  0  0.006882  0  2.433403  0  0  0.011177  0  2.796899  0  0  0.006611  0  2.79625  0  0  -0.021886  0.014567  0  2.797278  0
S  S94  1  0.23778206  0.03131978  0.77765161  1  0  0.006949  0  2.433353  0  0  0.01123  0  2.796835  0  0  0.006658  0  2.796179  0  0  -0.021868  0.014621  0  2.797222  0
S  S95  1  0.26222022  0.53131672  0.22234985  1  0  0.006927  0  2.433328  0  0  0.011179  0  2.796818  0  0  0.006609  0  2.796154  0  0  -0.021881  0.014565  0  2.797213  0
S  S96  1  0.70593473  0.16933150  0.34293542  1  0  0.086536  0  2.663258  0  0  0.109348  0  3.067404  0  0  0.105041  0  3.06052  0  0  -0.018146  0.112331  0  3.072577  0
S  S97  1  0.79406658  0.66932657  0.65706089  1  0  0.086436  0  2.662966  0  0  0.109268  0  3.067125  0  0  0.104962  0  3.060244  0  0  -0.018212  0.11225  0  3.072292  0
S  S98  1  0.29406421  0.83067423  0.65706207  1  0  0.0865  0  2.662999  0  0  0.109337  0  3.067141  0  0  0.105032  0  3.060255  0  0  -0.018188  0.11232  0  3.072315  0
S  S99  1  0.20593330  0.33067088  0.34294073  1  0  0.08661  0  2.66322  0  0  0.109411  0  3.067353  0  0  0.105109  0  3.060469  0  0  -0.018129  0.112388  0  3.072524  0
S  S100  1  0.97674320  0.10198894  0.37412498  1  0  0.026333  0  2.393897  0  0  0.030754  0  2.746718  0  0  0.02602  0  2.745992  0  0  -0.012352  0.034321  0  2.747225  0
S  S101  1  0.52326143  0.60199003  0.62588103  1  0  0.026376  0  2.393861  0  0  0.030791  0  2.746638  0  0  0.026058  0  2.74592  0  0  -0.012354  0.034358  0  2.747147  0
S  S102  1  0.02325668  0.89801017  0.62587741  1  0  0.026303  0  2.393845  0  0  0.030721  0  2.746613  0  0  0.025989  0  2.745895  0  0  -0.012375  0.03429  0  2.747123  0
S  S103  1  0.47673659  0.39800990  0.37411931  1  0  0.026392  0  2.393973  0  0  0.030786  0  2.746768  0  0  0.026056  0  2.746048  0  0  -0.012352  0.034346  0  2.747274  0
S  S104  1  0.77337309  0.55434498  0.23714927  1  0  1.112678  0  5.854107  0  0  1.008678  0  6.398425  0  0  1.053056  0  6.376795  0  0  0.476992  0.978073  0  6.412508  0
S  S105  1  0.72662573  0.05434556  0.76285071  1  0  1.112568  0  5.854202  0  0  1.0086  0  6.39852  0  0  1.05295  0  6.376898  0  0  0.477017  0.978  0  6.412607  0
S  S106  1  0.22662955  0.44565744  0.76284844  1  0  1.112769  0  5.853871  0  0  1.008787  0  6.39821  0  0  1.053148  0  6.376577  0  0  0.47704  0.978184  0  6.412289  0
S  S107  1  0.27337230  0.94565437  0.23715195  1  0  1.112602  0  5.854097  0  0  1.008591  0  6.398475  0  0  1.052948  0  6.376845  0  0  0.476965  0.977989  0  6.412565  0
O  O108  1  0.76569283  0.63914773  0.15439559  1  0  -0.612662  0  2.022349  0  0  -0.5701  0  2.280604  0  0  -0.589047  0  2.268437  0  0  -0.336613  -0.557  0  2.288974  0
O  O109  1  0.73431293  0.13914962  0.84560670  1  0  -0.612683  0  2.022283  0  0  -0.570132  0  2.280526  0  0  -0.589077  0  2.268367  0  0  -0.33666  -0.557031  0  2.288896  0
O  O110  1  0.23431720  0.36085882  0.84560801  1  0  -0.612709  0  2.022271  0  0  -0.570148  0  2.2805  0  0  -0.589095  0  2.268337  0  0  -0.336626  -0.557049  0  2.288871  0
O  O111  1  0.26568971  0.86085363  0.15439799  1  0  -0.612652  0  2.022497  0  0  -0.570042  0  2.280689  0  0  -0.588991  0  2.26853  0  0  -0.336564  -0.556943  0  2.289061  0
O  O112  1  0.85632865  0.46242429  0.23672637  1  0  -0.605821  0  2.030846  0  0  -0.567813  0  2.295949  0  0  -0.586707  0  2.282977  0  0  -0.341567  -0.554307  0  2.305126  0
O  O113  1  0.64366787  0.96242709  0.76328137  1  0  -0.605788  0  2.031013  0  0  -0.567779  0  2.296053  0  0  -0.586668  0  2.283083  0  0  -0.341567  -0.554272  0  2.305227  0
O  O114  1  0.14367491  0.53757813  0.76327005  1  0  -0.605912  0  2.030843  0  0  -0.567902  0  2.295928  0  0  -0.586792  0  2.282953  0  0  -0.341613  -0.554397  0  2.305102  0
O  O115  1  0.35632832  0.03757698  0.23672777  1  0  -0.605868  0  2.030781  0  0  -0.567872  0  2.295875  0  0  -0.586763  0  2.282906  0  0  -0.341624  -0.554367  0  2.30505  0
O  O116  1  0.65490709  0.52369850  0.25071778  1  0  -0.608886  0  1.993999  0  0  -0.575319  0  2.253105  0  0  -0.593726  0  2.240158  0  0  -0.342486  -0.562104  0  2.261901  0
O  O117  1  0.84508972  0.02369569  0.74928101  1  0  -0.608909  0  1.99412  0  0  -0.575334  0  2.253197  0  0  -0.593742  0  2.240261  0  0  -0.342498  -0.562119  0  2.261992  0
O  O118  1  0.34509555  0.47630226  0.74927994  1  0  -0.608904  0  1.99397  0  0  -0.575347  0  2.253079  0  0  -0.593753  0  2.240137  0  0  -0.342496  -0.562133  0  2.261876  0
O  O119  1  0.15490739  0.97630176  0.25072063  1  0  -0.608909  0  1.994034  0  0  -0.575316  0  2.253132  0  0  -0.593718  0  2.24019  0  0  -0.342471  -0.562096  0  2.261921  0
F  F120  1  0.78692626  0.71382747  0.38505293  1  0  -0.235142  0  1.192664  0  0  -0.195231  0  1.359584  0  0  -0.204684  0  1.344903  0  0  -0.099847  -0.188446  0  1.370127  0
F  F121  1  0.71307807  0.21383033  0.61494711  1  0  -0.235314  0  1.192544  0  0  -0.195356  0  1.35947  0  0  -0.204818  0  1.344773  0  0  -0.099926  -0.188567  0  1.370021  0
F  F122  1  0.21307730  0.28617246  0.61494504  1  0  -0.235201  0  1.192629  0  0  -0.195256  0  1.359537  0  0  -0.204718  0  1.344849  0  0  -0.099889  -0.188475  0  1.370073  0
F  F123  1  0.28692365  0.78616878  0.38505500  1  0  -0.235309  0  1.192549  0  0  -0.195356  0  1.359469  0  0  -0.204821  0  1.344772  0  0  -0.099929  -0.188567  0  1.370018  0
F  F124  1  0.87446175  0.55632784  0.45310328  1  0  -0.225643  0  1.20079  0  0  -0.193089  0  1.374687  0  0  -0.202121  0  1.358391  0  0  -0.099307  -0.186556  0  1.386335  0
F  F125  1  0.62554724  0.05632968  0.54689635  1  0  -0.225716  0  1.200582  0  0  -0.193149  0  1.374513  0  0  -0.202199  0  1.358199  0  0  -0.099306  -0.186611  0  1.386169  0
F  F126  1  0.12554458  0.44367458  0.54689544  1  0  -0.225618  0  1.200827  0  0  -0.193061  0  1.374742  0  0  -0.202104  0  1.358435  0  0  -0.099279  -0.186531  0  1.386386  0
F  F127  1  0.37445448  0.94367191  0.45310344  1  0  -0.225703  0  1.20064  0  0  -0.19314  0  1.374557  0  0  -0.202189  0  1.358245  0  0  -0.099319  -0.186604  0  1.386208  0
F  F128  1  0.96597577  0.66682635  0.36635746  1  0  -0.236396  0  1.168204  0  0  -0.191755  0  1.325827  0  0  -0.202206  0  1.311701  0  0  -0.097158  -0.183905  0  1.335747  0
F  F129  1  0.53402830  0.16682891  0.63364115  1  0  -0.23647  0  1.168092  0  0  -0.191814  0  1.325736  0  0  -0.20227  0  1.311586  0  0  -0.097158  -0.183959  0  1.335666  0
F  F130  1  0.03402595  0.33317358  0.63363923  1  0  -0.236439  0  1.168057  0  0  -0.191793  0  1.325686  0  0  -0.202246  0  1.31155  0  0  -0.097176  -0.183944  0  1.335598  0
F  F131  1  0.46597250  0.83317351  0.36635916  1  0  -0.236481  0  1.168063  0  0  -0.191832  0  1.325711  0  0  -0.202289  0  1.311566  0  0  -0.097151  -0.183976  0  1.335634  0
