# generated using pymatgen
data_NaH7C8O9
_symmetry_space_group_name_H-M   'P 1'
_cell_length_a   8.08159703
_cell_length_b   9.63889575
_cell_length_c   13.44670629
_cell_angle_alpha   89.99983464
_cell_angle_beta   90.00000053
_cell_angle_gamma   109.55050825
_symmetry_Int_Tables_number   1
_chemical_formula_structural   NaH7C8O9
_chemical_formula_sum   'Na4 H28 C32 O36'
_cell_volume   987.07734181
_cell_formula_units_Z   4
loop_
 _symmetry_equiv_pos_site_id
 _symmetry_equiv_pos_as_xyz
  1  'x, y, z'
loop_
 _atom_site_type_symbol
 _atom_site_label
 _atom_site_symmetry_multiplicity
 _atom_site_fract_x
 _atom_site_fract_y
 _atom_site_fract_z
 _atom_site_occupancy
 _atom_site_hle17_bader_spin_density
 _atom_site_hle17_ddec_charge
 _atom_site_hle17_ddec_spin_density
 _atom_site_hle17_ddec_sum_bond_order
 _atom_site_hle17_magmom
 _atom_site_hse06_10hf_bader_spin_density
 _atom_site_hse06_10hf_ddec_charge
 _atom_site_hse06_10hf_ddec_spin_density
 _atom_site_hse06_10hf_ddec_sum_bond_order
 _atom_site_hse06_10hf_magmom
 _atom_site_hse06_bader_spin_density
 _atom_site_hse06_ddec_charge
 _atom_site_hse06_ddec_spin_density
 _atom_site_hse06_ddec_sum_bond_order
 _atom_site_hse06_magmom
 _atom_site_pbe_bader_spin_density
 _atom_site_pbe_cm5_charge
 _atom_site_pbe_ddec_charge
 _atom_site_pbe_ddec_spin_density
 _atom_site_pbe_ddec_sum_bond_order
 _atom_site_pbe_magmom
Na  Na0  1  0.83889807  0.60250835  0.98633608  1  0  0.905428  0  0.378476  0  0  0.854182  0  0.542951  0  0  0.866019  0  0.519599  0  0  0.684911  0.845437  0  0.559737  0
Na  Na1  1  0.16110233  0.89749192  0.48633526  1  0  0.905418  0  0.378496  0  0  0.854172  0  0.542962  0  0  0.866006  0  0.51961  0  0  0.684904  0.845429  0  0.559749  0
Na  Na2  1  0.16110032  0.39749011  0.01366539  1  0  0.90543  0  0.37848  0  0  0.854183  0  0.542951  0  0  0.866017  0  0.519596  0  0  0.684912  0.845438  0  0.559736  0
Na  Na3  1  0.83889651  0.10250764  0.51366398  1  0  0.905425  0  0.378494  0  0  0.854191  0  0.542952  0  0  0.866028  0  0.519604  0  0  0.684917  0.845452  0  0.559741  0
H  H4  1  0.26196691  0.46480500  0.78936011  1  0  0.403724  0  0.90035  0  0  0.369754  0  0.98135  0  0  0.382985  0  0.962855  0  0  0.302063  0.360498  0  0.994256  0
H  H5  1  0.73803323  0.03519479  0.28935930  1  0  0.403708  0  0.900396  0  0  0.369739  0  0.981378  0  0  0.38297  0  0.962885  0  0  0.302058  0.360482  0  0.994302  0
H  H6  1  0.73803316  0.53519455  0.21064062  1  0  0.403712  0  0.900364  0  0  0.369741  0  0.981369  0  0  0.382972  0  0.962874  0  0  0.302052  0.360485  0  0.994274  0
H  H7  1  0.26196605  0.96480586  0.71063994  1  0  0.403722  0  0.900361  0  0  0.369754  0  0.981358  0  0  0.382985  0  0.962863  0  0  0.30206  0.3605  0  0.994263  0
H  H8  1  0.67610977  0.63303745  0.47275229  1  0  0.417294  0  0.861718  0  0  0.385236  0  0.940546  0  0  0.398094  0  0.926301  0  0  0.317728  0.376216  0  0.950552  0
H  H9  1  0.32388986  0.86696399  0.97275181  1  0  0.417282  0  0.861732  0  0  0.385224  0  0.94056  0  0  0.398081  0  0.926317  0  0  0.317717  0.376202  0  0.950575  0
H  H10  1  0.32389119  0.36696430  0.52724918  1  0  0.417289  0  0.861727  0  0  0.385221  0  0.940568  0  0  0.398081  0  0.926321  0  0  0.317697  0.376203  0  0.950574  0
H  H11  1  0.67611066  0.13303666  0.02724743  1  0  0.417272  0  0.861752  0  0  0.385217  0  0.940579  0  0  0.398076  0  0.926334  0  0  0.317708  0.376196  0  0.950589  0
H  H12  1  0.50312343  0.18394959  0.50333645  1  0  0.400043  0  0.899383  0  0  0.366249  0  0.981042  0  0  0.380446  0  0.965777  0  0  0.30253  0.35638  0  0.990904  0
H  H13  1  0.49688014  0.31605258  0.00333729  1  0  0.400049  0  0.899332  0  0  0.366266  0  0.980973  0  0  0.380463  0  0.965739  0  0  0.302536  0.356398  0  0.990831  0
H  H14  1  0.49687833  0.81605106  0.49666279  1  0  0.400007  0  0.899444  0  0  0.366205  0  0.981124  0  0  0.3804  0  0.965847  0  0  0.302514  0.356336  0  0.990983  0
H  H15  1  0.50312206  0.68394916  0.99666269  1  0  0.400005  0  0.899448  0  0  0.366201  0  0.981131  0  0  0.380396  0  0.965855  0  0  0.302502  0.356327  0  0.991  0
H  H16  1  0.02570234  0.70394820  0.71321407  1  0  0.094302  0  0.902545  0  0  0.10163  0  0.959338  0  0  0.104132  0  0.957822  0  0  0.128841  0.099778  0  0.960629  0
H  H17  1  0.97429889  0.79605109  0.21321496  1  0  0.094269  0  0.90254  0  0  0.101629  0  0.959332  0  0  0.104131  0  0.957817  0  0  0.128844  0.099775  0  0.960631  0
H  H18  1  0.97429897  0.29605134  0.28678665  1  0  0.094256  0  0.902555  0  0  0.10161  0  0.959354  0  0  0.104111  0  0.957839  0  0  0.128837  0.09976  0  0.960644  0
H  H19  1  0.02569994  0.20394846  0.78678428  1  0  0.094268  0  0.902613  0  0  0.101643  0  0.959357  0  0  0.104145  0  0.957842  0  0  0.128841  0.099787  0  0.960651  0
H  H20  1  0.93752352  0.42986080  0.62626593  1  0  0.133804  0  0.923291  0  0  0.139796  0  0.985425  0  0  0.143263  0  0.98371  0  0  0.126596  0.137378  0  0.986701  0
H  H21  1  0.06247737  0.07014083  0.12626654  1  0  0.133798  0  0.923292  0  0  0.139812  0  0.985393  0  0  0.14328  0  0.983678  0  0  0.12659  0.137393  0  0.986669  0
H  H22  1  0.06247779  0.57013874  0.37373405  1  0  0.133787  0  0.923301  0  0  0.139779  0  0.985434  0  0  0.143247  0  0.983714  0  0  0.126578  0.137361  0  0.986707  0
H  H23  1  0.93752360  0.92986092  0.87373196  1  0  0.133749  0  0.923313  0  0  0.139758  0  0.985432  0  0  0.143227  0  0.983714  0  0  0.12654  0.137336  0  0.986709  0
H  H24  1  0.71388201  0.31527583  0.74329620  1  0  0.112741  0  0.920217  0  0  0.121024  0  0.980494  0  0  0.124119  0  0.978974  0  0  0.119711  0.11875  0  0.981964  0
H  H25  1  0.28612068  0.18472416  0.24329656  1  0  0.112585  0  0.920346  0  0  0.120938  0  0.980555  0  0  0.124008  0  0.979062  0  0  0.119683  0.11865  0  0.982041  0
H  H26  1  0.28611850  0.68472482  0.25670379  1  0  0.112585  0  0.920315  0  0  0.120922  0  0.98054  0  0  0.123972  0  0.979074  0  0  0.119682  0.118649  0  0.982012  0
H  H27  1  0.71388063  0.81527538  0.75670268  1  0  0.112591  0  0.920321  0  0  0.120932  0  0.980548  0  0  0.124012  0  0.979046  0  0  0.119676  0.118652  0  0.982022  0
H  H28  1  0.55815154  0.56293694  0.72381087  1  0  0.079557  0  0.908282  0  0  0.082552  0  0.97147  0  0  0.085536  0  0.968981  0  0  0.113546  0.08017  0  0.973786  0
H  H29  1  0.44184631  0.93706011  0.22381071  1  0  0.07959  0  0.90827  0  0  0.08257  0  0.971466  0  0  0.085554  0  0.968976  0  0  0.113538  0.080184  0  0.973785  0
H  H30  1  0.44184808  0.43706150  0.27618763  1  0  0.079548  0  0.908308  0  0  0.082559  0  0.97148  0  0  0.085542  0  0.968992  0  0  0.113544  0.080178  0  0.973799  0
H  H31  1  0.55815085  0.06293835  0.77618927  1  0  0.079541  0  0.908285  0  0  0.082535  0  0.97147  0  0  0.085517  0  0.968982  0  0  0.11354  0.08015  0  0.973786  0
C  C32  1  0.94143990  0.59437729  0.73843077  1  0  0.062338  0  3.56653  0  0  0.040583  0  3.81329  0  0  0.042904  0  3.818404  0  0  0.016017  0.0389  0  3.809846  0
C  C33  1  0.05855882  0.90562189  0.23843217  1  0  0.062453  0  3.566414  0  0  0.040589  0  3.813327  0  0  0.04291  0  3.818443  0  0  0.016007  0.038909  0  3.809885  0
C  C34  1  0.05855973  0.40562115  0.26156921  1  0  0.062424  0  3.566386  0  0  0.040597  0  3.813295  0  0  0.042919  0  3.818412  0  0  0.016043  0.038916  0  3.809855  0
C  C35  1  0.94143878  0.09437767  0.76156782  1  0  0.062348  0  3.566566  0  0  0.040549  0  3.813321  0  0  0.042869  0  3.818437  0  0  0.015999  0.038871  0  3.80988  0
C  C36  1  0.85615301  0.49467709  0.65033272  1  0  -0.177905  0  3.600587  0  0  -0.194564  0  3.839707  0  0  -0.200311  0  3.850808  0  0  -0.076898  -0.190686  0  3.832263  0
C  C37  1  0.14384738  0.00532333  0.15033346  1  0  -0.17796  0  3.600466  0  0  -0.194578  0  3.839561  0  0  -0.200331  0  3.850654  0  0  -0.076877  -0.190693  0  3.832105  0
C  C38  1  0.14384706  0.50532246  0.34966726  1  0  -0.177914  0  3.600507  0  0  -0.19453  0  3.839627  0  0  -0.200278  0  3.850708  0  0  -0.07687  -0.190654  0  3.832182  0
C  C39  1  0.85615314  0.99467732  0.84966578  1  0  -0.177844  0  3.600516  0  0  -0.194489  0  3.839604  0  0  -0.200238  0  3.8507  0  0  -0.076833  -0.190608  0  3.832148  0
C  C40  1  0.68194279  0.39773223  0.69749158  1  0  -0.168497  0  3.620353  0  0  -0.182969  0  3.861592  0  0  -0.188808  0  3.873497  0  0  -0.080077  -0.178856  0  3.853477  0
C  C41  1  0.31805998  0.10226796  0.19749212  1  0  -0.168226  0  3.620229  0  0  -0.18274  0  3.861526  0  0  -0.188553  0  3.873435  0  0  -0.080099  -0.178628  0  3.853409  0
C  C42  1  0.31805975  0.60226730  0.30250840  1  0  -0.168285  0  3.620164  0  0  -0.182759  0  3.861498  0  0  -0.188561  0  3.873407  0  0  -0.080089  -0.178651  0  3.853384  0
C  C43  1  0.68194009  0.89773159  0.80250786  1  0  -0.168301  0  3.620204  0  0  -0.18282  0  3.861524  0  0  -0.188647  0  3.873424  0  0  -0.080097  -0.178702  0  3.853398  0
C  C44  1  0.63263159  0.50525112  0.76569554  1  0  0.045761  0  3.574052  0  0  0.023737  0  3.825168  0  0  0.025546  0  3.831039  0  0  0.00208  0.022364  0  3.821568  0
C  C45  1  0.36737123  0.99474903  0.26569675  1  0  0.04553  0  3.574198  0  0  0.02354  0  3.825371  0  0  0.025356  0  3.831227  0  0  0.002026  0.022175  0  3.821762  0
C  C46  1  0.36736680  0.49474734  0.23430445  1  0  0.045671  0  3.574149  0  0  0.023629  0  3.825307  0  0  0.025445  0  3.831157  0  0  0.00205  0.022255  0  3.821709  0
C  C47  1  0.63262884  0.00525052  0.73430324  1  0  0.045763  0  3.574113  0  0  0.023731  0  3.825243  0  0  0.025548  0  3.831099  0  0  0.002092  0.022361  0  3.821635  0
C  C48  1  0.05829607  0.53135426  0.80046759  1  0  0.665886  0  3.77097  0  0  0.615854  0  4.078372  0  0  0.647436  0  4.069952  0  0  0.237924  0.594296  0  4.083722  0
C  C49  1  0.94170377  0.96864464  0.30046812  1  0  0.665946  0  3.770922  0  0  0.615948  0  4.078319  0  0  0.64753  0  4.069896  0  0  0.237958  0.594391  0  4.083667  0
C  C50  1  0.94170400  0.46864529  0.19953239  1  0  0.665993  0  3.770815  0  0  0.615908  0  4.07834  0  0  0.647488  0  4.06992  0  0  0.23792  0.594342  0  4.083701  0
C  C51  1  0.05829507  0.03135491  0.69953187  1  0  0.665923  0  3.770973  0  0  0.615924  0  4.078332  0  0  0.647506  0  4.069908  0  0  0.237932  0.59436  0  4.083691  0
C  C52  1  0.84355333  0.58749610  0.56102228  1  0  0.717296  0  3.73255  0  0  0.666698  0  4.037237  0  0  0.699937  0  4.027545  0  0  0.250942  0.644009  0  4.043492  0
C  C53  1  0.15644783  0.91250608  0.06102292  1  0  0.717332  0  3.732453  0  0  0.666742  0  4.037122  0  0  0.699996  0  4.027408  0  0  0.250954  0.644059  0  4.043374  0
C  C54  1  0.15645010  0.41250564  0.43897770  1  0  0.717321  0  3.732428  0  0  0.666711  0  4.037131  0  0  0.699969  0  4.027413  0  0  0.250946  0.644032  0  4.043378  0
C  C55  1  0.84355269  0.08749457  0.93897707  1  0  0.717261  0  3.732494  0  0  0.666668  0  4.037191  0  0  0.699912  0  4.027491  0  0  0.250933  0.643986  0  4.043438  0
C  C56  1  0.54216704  0.31456917  0.62399561  1  0  0.712257  0  3.745463  0  0  0.653494  0  4.063056  0  0  0.68672  0  4.054543  0  0  0.243707  0.630895  0  4.068275  0
C  C57  1  0.45783340  0.18543137  0.12399597  1  0  0.712187  0  3.745544  0  0  0.653339  0  4.063295  0  0  0.686546  0  4.054816  0  0  0.243659  0.63075  0  4.068494  0
C  C58  1  0.45783180  0.68543038  0.37600438  1  0  0.712219  0  3.745458  0  0  0.65328  0  4.063344  0  0  0.686488  0  4.054861  0  0  0.243659  0.630692  0  4.068536  0
C  C59  1  0.54216835  0.81456928  0.87600401  1  0  0.712236  0  3.745405  0  0  0.653397  0  4.063144  0  0  0.686623  0  4.054631  0  0  0.243722  0.630803  0  4.068352  0
C  C60  1  0.52490534  0.43025832  0.85698191  1  0  0.660114  0  3.823136  0  0  0.607156  0  4.131272  0  0  0.639773  0  4.123425  0  0  0.221627  0.584938  0  4.136303  0
C  C61  1  0.47509715  0.06974115  0.35698252  1  0  0.66028  0  3.822977  0  0  0.607257  0  4.131216  0  0  0.639868  0  4.123378  0  0  0.221692  0.585044  0  4.13624  0
C  C62  1  0.47509518  0.56974233  0.14301733  1  0  0.660141  0  3.823042  0  0  0.607202  0  4.131171  0  0  0.639818  0  4.123322  0  0  0.221614  0.584988  0  4.136196  0
C  C63  1  0.52490292  0.93025840  0.64301747  1  0  0.660124  0  3.823064  0  0  0.607216  0  4.131146  0  0  0.639827  0  4.123306  0  0  0.221643  0.584998  0  4.136175  0
O  O64  1  0.79951939  0.61060344  0.79672905  1  0  -0.339116  0  2.204532  0  0  -0.290495  0  2.449635  0  0  -0.3027  0  2.448526  0  0  -0.23619  -0.281717  0  2.450266  0
O  O65  1  0.20047922  0.88939549  0.29673048  1  0  -0.339085  0  2.204566  0  0  -0.29046  0  2.449695  0  0  -0.302663  0  2.448581  0  0  -0.236128  -0.281685  0  2.450325  0
O  O66  1  0.20047945  0.38939612  0.20327019  1  0  -0.33909  0  2.204567  0  0  -0.290466  0  2.449709  0  0  -0.302672  0  2.448599  0  0  -0.236173  -0.281686  0  2.450339  0
O  O67  1  0.79951838  0.11060407  0.70326951  1  0  -0.339171  0  2.204549  0  0  -0.290547  0  2.449661  0  0  -0.302754  0  2.448552  0  0  -0.236167  -0.281776  0  2.450296  0
O  O68  1  0.03856506  0.51134668  0.89103180  1  0  -0.632524  0  1.972764  0  0  -0.599378  0  2.216791  0  0  -0.617721  0  2.204198  0  0  -0.381288  -0.586674  0  2.225246  0
O  O69  1  0.96143126  0.98864962  0.39103228  1  0  -0.632579  0  1.972778  0  0  -0.599434  0  2.216784  0  0  -0.617777  0  2.204189  0  0  -0.381296  -0.586732  0  2.225238  0
O  O70  1  0.96143165  0.48865067  0.10897042  1  0  -0.632563  0  1.972807  0  0  -0.599378  0  2.216851  0  0  -0.617719  0  2.204257  0  0  -0.381262  -0.586674  0  2.225324  0
O  O71  1  0.03856545  0.01134774  0.60896696  1  0  -0.632558  0  1.972786  0  0  -0.599429  0  2.216802  0  0  -0.617773  0  2.204208  0  0  -0.381303  -0.586727  0  2.22526  0
O  O72  1  0.17832141  0.50359721  0.74566015  1  0  -0.536187  0  2.074005  0  0  -0.491033  0  2.292569  0  0  -0.513574  0  2.275  0  0  -0.322209  -0.475397  0  2.304374  0
O  O73  1  0.82167898  0.99640304  0.24565987  1  0  -0.536203  0  2.073987  0  0  -0.491051  0  2.292529  0  0  -0.513591  0  2.274958  0  0  -0.322238  -0.475418  0  2.304348  0
O  O74  1  0.82167743  0.49640235  0.25434058  1  0  -0.536226  0  2.073897  0  0  -0.491052  0  2.292489  0  0  -0.513593  0  2.274919  0  0  -0.322214  -0.475413  0  2.304298  0
O  O75  1  0.17831952  0.00359872  0.75433937  1  0  -0.53617  0  2.073983  0  0  -0.491038  0  2.292546  0  0  -0.513579  0  2.274974  0  0  -0.322212  -0.475403  0  2.304355  0
O  O76  1  0.97658569  0.66632719  0.51836268  1  0  -0.61567  0  1.935598  0  0  -0.581572  0  2.17272  0  0  -0.601031  0  2.159949  0  0  -0.363481  -0.568095  0  2.181299  0
O  O77  1  0.02341342  0.83367299  0.01836423  1  0  -0.615651  0  1.935509  0  0  -0.581559  0  2.172624  0  0  -0.601024  0  2.159848  0  0  -0.363443  -0.568085  0  2.181205  0
O  O78  1  0.02341349  0.33367016  0.48163879  1  0  -0.615679  0  1.935473  0  0  -0.581578  0  2.172592  0  0  -0.601045  0  2.159816  0  0  -0.363478  -0.568105  0  2.181172  0
O  O79  1  0.97658744  0.16632545  0.98163650  1  0  -0.615644  0  1.935558  0  0  -0.581551  0  2.172688  0  0  -0.601013  0  2.159916  0  0  -0.363455  -0.568082  0  2.181269  0
O  O80  1  0.68154459  0.57570357  0.53589644  1  0  -0.536676  0  2.121454  0  0  -0.477342  0  2.334596  0  0  -0.500862  0  2.320813  0  0  -0.308971  -0.461062  0  2.343815  0
O  O81  1  0.31845617  0.92429763  0.03589556  1  0  -0.536699  0  2.121446  0  0  -0.477373  0  2.334585  0  0  -0.500895  0  2.320794  0  0  -0.308995  -0.461094  0  2.343809  0
O  O82  1  0.31845761  0.42429818  0.46410429  1  0  -0.536703  0  2.121462  0  0  -0.477357  0  2.334608  0  0  -0.500886  0  2.320818  0  0  -0.308956  -0.46108  0  2.343828  0
O  O83  1  0.68154356  0.07570413  0.96410293  1  0  -0.536651  0  2.121424  0  0  -0.477341  0  2.334576  0  0  -0.500862  0  2.320791  0  0  -0.308974  -0.461065  0  2.343793  0
O  O84  1  0.38982533  0.31757362  0.62767457  1  0  -0.569914  0  1.968343  0  0  -0.521516  0  2.188387  0  0  -0.542667  0  2.178346  0  0  -0.286337  -0.506962  0  2.194922  0
O  O85  1  0.61017747  0.18242358  0.12767494  1  0  -0.569877  0  1.968283  0  0  -0.521453  0  2.188366  0  0  -0.542598  0  2.178341  0  0  -0.286292  -0.506902  0  2.194891  0
O  O86  1  0.61017755  0.68242371  0.37232467  1  0  -0.56987  0  1.968208  0  0  -0.521419  0  2.188343  0  0  -0.542562  0  2.178318  0  0  -0.286294  -0.50687  0  2.194864  0
O  O87  1  0.38982295  0.81757376  0.87232578  1  0  -0.569876  0  1.968215  0  0  -0.521458  0  2.188295  0  0  -0.54261  0  2.178259  0  0  -0.286341  -0.506911  0  2.194828  0
O  O88  1  0.59950780  0.23981692  0.55885334  1  0  -0.575727  0  2.109  0  0  -0.524272  0  2.344943  0  0  -0.54723  0  2.329828  0  0  -0.326975  -0.508318  0  2.354453  0
O  O89  1  0.40049656  0.26018720  0.05885578  1  0  -0.575705  0  2.109032  0  0  -0.524224  0  2.345  0  0  -0.547175  0  2.329918  0  0  -0.326944  -0.508275  0  2.354502  0
O  O90  1  0.40049395  0.76018372  0.44114590  1  0  -0.575708  0  2.109104  0  0  -0.524188  0  2.345138  0  0  -0.547137  0  2.330019  0  0  -0.326938  -0.508237  0  2.354636  0
O  O91  1  0.59950609  0.73981564  0.94114644  1  0  -0.575704  0  2.109075  0  0  -0.524215  0  2.34507  0  0  -0.547171  0  2.329944  0  0  -0.326948  -0.508265  0  2.35458  0
O  O92  1  0.60885175  0.39336731  0.92676335  1  0  -0.633234  0  2.021474  0  0  -0.586307  0  2.258014  0  0  -0.609994  0  2.246288  0  0  -0.360625  -0.569944  0  2.265766  0
O  O93  1  0.39115062  0.10663185  0.42676313  1  0  -0.633234  0  2.021403  0  0  -0.586276  0  2.257977  0  0  -0.60996  0  2.246244  0  0  -0.360629  -0.569918  0  2.265729  0
O  O94  1  0.39114877  0.60663334  0.07323589  1  0  -0.633209  0  2.021416  0  0  -0.586276  0  2.257968  0  0  -0.60996  0  2.246227  0  0  -0.360599  -0.569913  0  2.265723  0
O  O95  1  0.60884822  0.89336770  0.57323685  1  0  -0.633167  0  2.02145  0  0  -0.586252  0  2.257992  0  0  -0.609935  0  2.246256  0  0  -0.360624  -0.569895  0  2.265746  0
O  O96  1  0.36145324  0.40757385  0.85921296  1  0  -0.625098  0  2.017964  0  0  -0.578513  0  2.254714  0  0  -0.602027  0  2.24231  0  0  -0.325169  -0.562304  0  2.262988  0
O  O97  1  0.63854970  0.09242672  0.35921129  1  0  -0.625189  0  2.01792  0  0  -0.578582  0  2.254696  0  0  -0.602095  0  2.242296  0  0  -0.32521  -0.562377  0  2.262976  0
O  O98  1  0.63854852  0.59242680  0.14078702  1  0  -0.625141  0  2.017939  0  0  -0.578556  0  2.25468  0  0  -0.602072  0  2.242276  0  0  -0.32516  -0.562346  0  2.262949  0
O  O99  1  0.36144746  0.90757174  0.64078795  1  0  -0.625155  0  2.017905  0  0  -0.578581  0  2.254624  0  0  -0.602094  0  2.24222  0  0  -0.325186  -0.562376  0  2.262897  0
