# generated using pymatgen
data_Cd3H24C32N6(ClO)4
_symmetry_space_group_name_H-M   'P 1'
_cell_length_a   9.40192747
_cell_length_b   11.10271935
_cell_length_c   18.31000000
_cell_angle_alpha   102.89830386
_cell_angle_beta   90.00000000
_cell_angle_gamma   115.04945535
_symmetry_Int_Tables_number   1
_chemical_formula_structural   Cd3H24C32N6(ClO)4
_chemical_formula_sum   'Cd6 H48 C64 N12 Cl8 O8'
_cell_volume   1678.16577156
_cell_formula_units_Z   2
loop_
 _symmetry_equiv_pos_site_id
 _symmetry_equiv_pos_as_xyz
  1  'x, y, z'
loop_
 _atom_site_type_symbol
 _atom_site_label
 _atom_site_symmetry_multiplicity
 _atom_site_fract_x
 _atom_site_fract_y
 _atom_site_fract_z
 _atom_site_occupancy
 _atom_site_pbe_bader_charge
 _atom_site_pbe_bader_spin_density
 _atom_site_pbe_cm5_charge
 _atom_site_pbe_ddec_charge
 _atom_site_pbe_ddec_spin_density
 _atom_site_pbe_ddec_sum_bond_order
 _atom_site_pbe_magmom
Cd  Cd0  1  0.32440098  0.00020516  0.74990106  1  1.135809  0  0.590246  0.724426  0  2.51211  0
Cd  Cd1  1  0.67559957  0.99979418  0.25009901  1  1.135807  0  0.590251  0.724424  0  2.512081  0
Cd  Cd2  1  0.25062040  0.27296816  0.88391503  1  1.206334  0  0.668074  0.787816  0  2.435626  0
Cd  Cd3  1  0.97790493  0.72715530  0.61606198  1  1.206907  0  0.667975  0.787392  0  2.436689  0
Cd  Cd4  1  0.74938117  0.72703323  0.11608478  1  1.206381  0  0.668071  0.787823  0  2.4356  0
Cd  Cd5  1  0.02209506  0.27284506  0.38393824  1  1.206892  0  0.667976  0.787388  0  2.436686  0
H  H6  1  0.20975273  0.31605252  0.71943708  1  0.109511  0  0.104127  0.077022  0  1.038592  0
H  H7  1  0.89409132  0.68412531  0.78054128  1  0.105109  0  0.103786  0.076366  0  1.039241  0
H  H8  1  0.79024727  0.68394784  0.28056259  1  0.109519  0  0.104128  0.076998  0  1.038602  0
H  H9  1  0.10590769  0.31587095  0.21945892  1  0.105268  0  0.103799  0.076394  0  1.039247  0
H  H10  1  0.04553800  0.38539783  0.64286869  1  0.094634  0  0.106427  0.112824  0  1.018559  0
H  H11  1  0.66050089  0.61472358  0.85712278  1  0.099062  0  0.106301  0.113125  0  1.018009  0
H  H12  1  0.95445781  0.61459843  0.35712988  1  0.094927  0  0.106449  0.11284  0  1.018528  0
H  H13  1  0.33949493  0.38527268  0.14287633  1  0.098993  0  0.106291  0.113102  0  1.018012  0
H  H14  1  0.81627477  0.41335445  0.69771340  1  0.115379  0  0.110154  0.11537  0  0.997716  0
H  H15  1  0.40329738  0.58663771  0.80225785  1  0.132482  0  0.109687  0.114412  0  0.998516  0
H  H16  1  0.18372160  0.58664078  0.30228557  1  0.115576  0  0.110117  0.115289  0  0.997671  0
H  H17  1  0.59669950  0.41335856  0.19774126  1  0.132621  0  0.109725  0.11443  0  0.998534  0
H  H18  1  0.75782107  0.37677685  0.82547241  1  0.089972  0  0.097045  0.112348  0  1.046583  0
H  H19  1  0.38133220  0.62328711  0.67453587  1  0.114113  0  0.096995  0.111968  0  1.046874  0
H  H20  1  0.24217684  0.62322146  0.17452753  1  0.089971  0  0.097044  0.112326  0  1.046605  0
H  H21  1  0.61866681  0.37670915  0.32546325  1  0.114012  0  0.096987  0.111925  0  1.046847  0
H  H22  1  0.72675564  0.35233366  0.93121795  1  0.082914  0  0.108299  0.118474  0  1.009676  0
H  H23  1  0.37473799  0.64774877  0.56885781  1  0.09499  0  0.108603  0.118932  0  1.009266  0
H  H24  1  0.27324539  0.64766876  0.06878145  1  0.082927  0  0.108323  0.118491  0  1.009721  0
H  H25  1  0.62526673  0.35225467  0.43114172  1  0.094987  0  0.10858  0.11892  0  1.009213  0
H  H26  1  0.70766091  0.33159777  0.06229326  1  0.143404  0  0.110204  0.119455  0  1.011853  0
H  H27  1  0.37591646  0.66797893  0.43771187  1  0.144076  0  0.110029  0.11904  0  1.011847  0
H  H28  1  0.29233909  0.66840260  0.93770586  1  0.143388  0  0.110185  0.119421  0  1.01188  0
H  H29  1  0.62408247  0.33202143  0.56228780  1  0.144061  0  0.110042  0.119032  0  1.011857  0
H  H30  1  0.90358252  0.27295380  0.12348545  1  0.126181  0  0.098413  0.111913  0  1.033031  0
H  H31  1  0.63032012  0.72641774  0.37636575  1  0.125169  0  0.098407  0.112497  0  1.033252  0
H  H32  1  0.09641696  0.72704554  0.87651408  1  0.126171  0  0.098401  0.111888  0  1.032952  0
H  H33  1  0.36968145  0.27358365  0.62363460  1  0.125172  0  0.098386  0.112486  0  1.033275  0
H  H34  1  0.11630527  0.24613686  0.04733351  1  0.105945  0  0.113596  0.082666  0  1.011215  0
H  H35  1  0.87013912  0.75377016  0.45252573  1  0.097876  0  0.113449  0.082544  0  1.011016  0
H  H36  1  0.88369524  0.75386453  0.95266630  1  0.105943  0  0.113624  0.082692  0  1.011217  0
H  H37  1  0.12986088  0.24623021  0.54747449  1  0.097887  0  0.113446  0.082518  0  1.011036  0
H  H38  1  0.88429585  0.99406703  0.80456302  1  0.106407  0  0.096899  0.11088  0  1.048953  0
H  H39  1  0.89031007  0.00585434  0.69539100  1  0.112759  0  0.096876  0.110634  0  1.049223  0
H  H40  1  0.11570359  0.00593436  0.19543788  1  0.106269  0  0.096905  0.110902  0  1.048918  0
H  H41  1  0.10968836  0.99414500  0.30460962  1  0.11278  0  0.096883  0.110632  0  1.049224  0
H  H42  1  0.84661592  0.94465645  0.92918796  1  0.116021  0  0.103204  0.103138  0  1.002407  0
H  H43  1  0.90220415  0.05501463  0.57068139  1  0.096318  0  0.103241  0.103469  0  1.003333  0
H  H44  1  0.15338246  0.05534494  0.07081239  1  0.116025  0  0.103188  0.10313  0  1.002331  0
H  H45  1  0.09779691  0.94498574  0.42931992  1  0.096308  0  0.103236  0.103468  0  1.003326  0
H  H46  1  0.58770744  0.90260304  0.98194473  1  0.114538  0  0.107037  0.117866  0  1.02368  0
H  H47  1  0.68555800  0.09729988  0.51783967  1  0.11748  0  0.106978  0.117823  0  1.023101  0
H  H48  1  0.41229413  0.09739836  0.01805617  1  0.114554  0  0.107036  0.11786  0  1.023674  0
H  H49  1  0.31444251  0.90270151  0.48216068  1  0.117472  0  0.106995  0.117835  0  1.023118  0
H  H50  1  0.38390094  0.93474500  0.90798839  1  0.122238  0  0.104893  0.075022  0  1.045746  0
H  H51  1  0.44974348  0.06564826  0.59181596  1  0.107581  0  0.104762  0.074424  0  1.045741  0
H  H52  1  0.61609957  0.06525640  0.09201251  1  0.122253  0  0.104893  0.07503  0  1.045733  0
H  H53  1  0.55025651  0.93435211  0.40818480  1  0.107571  0  0.104774  0.07444  0  1.045769  0
C  C54  1  0.10955351  0.33285235  0.74077220  1  0.452539  0  0.044819  0.092171  0  3.955902  0
C  C55  1  0.77705537  0.66726394  0.75921476  1  0.495956  0  0.045509  0.092934  0  3.957553  0
C  C56  1  0.89044546  0.66714597  0.25922665  1  0.45258  0  0.044817  0.092202  0  3.955875  0
C  C57  1  0.22294093  0.33273540  0.24078586  1  0.49587  0  0.045504  0.092924  0  3.957496  0
C  C58  1  0.01875955  0.37027112  0.69883431  1  -0.010437  0  -0.078855  -0.10731  0  3.953048  0
C  C59  1  0.64887774  0.62981645  0.80115531  1  -0.043923  0  -0.078863  -0.10755  0  3.953599  0
C  C60  1  0.98123840  0.62972515  0.30116425  1  -0.010732  0  -0.078911  -0.107364  0  3.953062  0
C  C61  1  0.35111643  0.37018290  0.19884476  1  -0.043965  0  -0.078847  -0.107513  0  3.953561  0
C  C62  1  0.89061564  0.38612719  0.72989641  1  0.027621  0  -0.063147  -0.009097  0  3.93572  0
C  C63  1  0.50485239  0.61386292  0.77006582  1  -0.039283  0  -0.06308  -0.00825  0  3.936372  0
C  C64  1  0.10938073  0.61386805  0.27010201  1  0.027433  0  -0.063099  -0.008989  0  3.935639  0
C  C65  1  0.49514079  0.38613232  0.22993315  1  -0.039378  0  -0.063148  -0.0083  0  3.936468  0
C  C66  1  0.85967871  0.36688899  0.80180853  1  -0.01429  0  -0.081211  -0.155848  0  3.923547  0
C  C67  1  0.49310494  0.63316164  0.69817228  1  -0.009587  0  -0.081016  -0.156065  0  3.924715  0
C  C68  1  0.14031975  0.63310830  0.19819018  1  -0.014281  0  -0.081188  -0.155822  0  3.923539  0
C  C69  1  0.50689037  0.36683360  0.30182615  1  -0.009419  0  -0.080999  -0.156021  0  3.924792  0
C  C70  1  0.95855409  0.33255281  0.84172947  1  0.465518  0  0.118946  0.166019  0  3.976814  0
C  C71  1  0.62631608  0.66749372  0.65825023  1  0.471236  0  0.119229  0.167124  0  3.975746  0
C  C72  1  0.04144543  0.66744448  0.15826924  1  0.465439  0  0.118936  0.165985  0  3.976843  0
C  C73  1  0.37368447  0.33250562  0.34174984  1  0.471227  0  0.119178  0.167043  0  3.975737  0
C  C74  1  0.93597689  0.31552217  0.91994967  1  0.476503  0  0.118495  0.163708  0  3.987447  0
C  C75  1  0.62076252  0.68451512  0.58003369  1  0.475848  0  0.118836  0.164284  0  3.987999  0
C  C76  1  0.06402520  0.68448024  0.08005027  1  0.476872  0  0.118514  0.163746  0  3.987529  0
C  C77  1  0.37923854  0.31548525  0.41996761  1  0.475863  0  0.118849  0.164287  0  3.988008  0
C  C78  1  0.81301906  0.33032986  0.95828604  1  0.014771  0  -0.074847  -0.139283  0  3.901243  0
C  C79  1  0.48292601  0.66967564  0.54174163  1  -0.008812  0  -0.075017  -0.139875  0  3.901374  0
C  C80  1  0.18698251  0.66967153  0.04171322  1  0.014775  0  -0.074873  -0.139303  0  3.901335  0
C  C81  1  0.51707659  0.33032781  0.45825954  1  -0.008832  0  -0.074965  -0.139824  0  3.901356  0
C  C82  1  0.80102267  0.31641566  0.03210065  1  -0.05947  0  -0.065945  -0.018834  0  3.930137  0
C  C83  1  0.48455267  0.68324618  0.46786740  1  -0.102831  0  -0.066188  -0.018455  0  3.930592  0
C  C84  1  0.19897839  0.68358470  0.96789902  1  -0.059496  0  -0.065931  -0.018782  0  3.930191  0
C  C85  1  0.51544784  0.31675521  0.53213295  1  -0.102859  0  -0.066188  -0.018417  0  3.930576  0
C  C86  1  0.91023318  0.28597451  0.06613974  1  -0.04688  0  -0.084064  -0.125579  0  3.962397  0
C  C87  1  0.62407731  0.71351500  0.43373835  1  0.004423  0  -0.083961  -0.126501  0  3.963646  0
C  C88  1  0.08976685  0.71402381  0.93385965  1  -0.046887  0  -0.084078  -0.125607  0  3.962338  0
C  C89  1  0.37592060  0.28648331  0.56626104  1  0.004447  0  -0.083945  -0.12653  0  3.963708  0
C  C90  1  0.02797840  0.27099962  0.02422476  1  0.474039  0  0.047468  0.097619  0  3.961025  0
C  C91  1  0.75697437  0.72881816  0.47567318  1  0.488867  0  0.048046  0.098349  0  3.95917  0
C  C92  1  0.97202317  0.72900178  0.97577504  1  0.474047  0  0.047469  0.097606  0  3.961038  0
C  C93  1  0.24302669  0.27118221  0.52432703  1  0.488846  0  0.048026  0.098384  0  3.959226  0
C  C94  1  0.49709727  0.55503943  0.97998576  1  1.556049  0  0.189824  0.452764  0  4.23208  0
C  C95  1  0.94199672  0.44499068  0.52001903  1  1.565459  0  0.189501  0.452192  0  4.234446  0
C  C96  1  0.50290482  0.44496299  0.02001528  1  1.575996  0  0.189846  0.452797  0  4.232069  0
C  C97  1  0.05800698  0.55501071  0.47998023  1  1.58305  0  0.189511  0.452293  0  4.234489  0
C  C98  1  0.65149022  0.98787212  0.78837770  1  0.461025  0  0.117474  0.168293  0  3.975083  0
C  C99  1  0.66377677  0.01222980  0.71147460  1  0.53941  0  0.11779  0.166259  0  3.977195  0
C  C100  1  0.34850926  0.01212722  0.21162347  1  0.460964  0  0.117462  0.1683  0  3.975084  0
C  C101  1  0.33622272  0.98776954  0.28852602  1  0.539432  0  0.117757  0.166204  0  3.97731  0
C  C102  1  0.77332861  0.97952811  0.82782666  1  -0.003262  0  -0.083031  -0.157018  0  3.939122  0
C  C103  1  0.79394624  0.02037377  0.67204935  1  -0.037476  0  -0.083235  -0.156281  0  3.939771  0
C  C104  1  0.22667351  0.02047225  0.17217409  1  -0.00314  0  -0.083036  -0.157082  0  3.939177  0
C  C105  1  0.20605431  0.97962557  0.32795182  1  -0.037452  0  -0.083202  -0.156211  0  3.939781  0
C  C106  1  0.75207139  0.95132735  0.89842788  1  -0.048951  0  -0.065525  -0.013262  0  3.956546  0
C  C107  1  0.80100232  0.04847709  0.60140545  1  0.013827  0  -0.065864  -0.014014  0  3.957772  0
C  C108  1  0.24792967  0.04867302  0.10157342  1  -0.048917  0  -0.065525  -0.013272  0  3.956523  0
C  C109  1  0.19899823  0.95152225  0.39859572  1  0.013772  0  -0.065898  -0.014055  0  3.95782  0
C  C110  1  0.61000062  0.93120797  0.92852766  1  -0.0407  0  -0.079779  -0.119225  0  3.94268  0
C  C111  1  0.67923893  0.06879649  0.57128633  1  -0.075337  0  -0.079257  -0.11852  0  3.943204  0
C  C112  1  0.38999989  0.06879342  0.07147324  1  -0.040681  0  -0.079784  -0.119192  0  3.942698  0
C  C113  1  0.32076264  0.93120490  0.42871512  1  -0.075058  0  -0.079275  -0.118568  0  3.943322  0
C  C114  1  0.49645965  0.94586179  0.88718891  1  0.474067  0  0.045089  0.094666  0  3.950499  0
C  C115  1  0.55107200  0.05437452  0.61262478  1  0.472341  0  0.044766  0.094681  0  3.951099  0
C  C116  1  0.50354035  0.05413858  0.11281185  1  0.474069  0  0.045091  0.094628  0  3.950602  0
C  C117  1  0.44892855  0.94562482  0.38737529  1  0.472136  0  0.044765  0.094706  0  3.951066  0
N  N118  1  0.08026614  0.31480308  0.81016692  1  -1.227346  0  -0.326676  -0.260583  0  3.491865  0
N  N119  1  0.76579207  0.68531013  0.68982126  1  -1.223352  0  -0.327027  -0.26116  0  3.492028  0
N  N120  1  0.91973598  0.68519729  0.18983220  1  -1.227657  0  -0.326662  -0.260585  0  3.491812  0
N  N121  1  0.23420639  0.31468716  0.31017908  1  -1.223391  0  -0.326979  -0.261085  0  3.491888  0
N  N122  1  0.04098346  0.28619301  0.95365157  1  -1.239084  0  -0.325077  -0.273209  0  3.501414  0
N  N123  1  0.75501200  0.71381249  0.54627834  1  -1.238502  0  -0.325646  -0.274055  0  3.501917  0
N  N124  1  0.95901918  0.71380838  0.04634824  1  -1.239068  0  -0.325105  -0.273219  0  3.501472  0
N  N125  1  0.24498745  0.28618890  0.45372201  1  -1.238505  0  -0.325664  -0.27409  0  3.501905  0
N  N126  1  0.51722208  0.97439184  0.81959676  1  -1.235311  0  -0.326623  -0.25686  0  3.501341  0
N  N127  1  0.54314199  0.02587626  0.68022451  1  -1.244783  0  -0.326374  -0.255693  0  3.501287  0
N  N128  1  0.48277792  0.02560852  0.18040345  1  -1.235306  0  -0.326594  -0.256797  0  3.501361  0
N  N129  1  0.45685856  0.97412308  0.31977556  1  -1.244836  0  -0.326356  -0.255692  0  3.501322  0
Cl  Cl130  1  0.15457565  0.00975963  0.86420578  1  -0.639952  0  -0.294046  -0.483474  0  1.271362  0
Cl  Cl131  1  0.14498429  0.99039460  0.63562629  1  -0.640242  0  -0.293761  -0.48309  0  1.271942  0
Cl  Cl132  1  0.84542644  0.99024278  0.13579525  1  -0.639963  0  -0.294047  -0.483491  0  1.271366  0
Cl  Cl133  1  0.85501677  0.00960576  0.36437392  1  -0.640268  0  -0.293766  -0.483087  0  1.271915  0
Cl  Cl134  1  0.44551764  0.27302766  0.78274121  1  -0.640049  0  -0.307058  -0.493923  0  1.257709  0
Cl  Cl135  1  0.17287503  0.72728661  0.71720318  1  -0.645743  0  -0.307218  -0.493772  0  1.256958  0
Cl  Cl136  1  0.55448342  0.72697271  0.21725900  1  -0.640053  0  -0.307061  -0.49391  0  1.257696  0
Cl  Cl137  1  0.82712603  0.27271376  0.28279649  1  -0.645737  0  -0.307211  -0.493761  0  1.256932  0
O  O138  1  0.59286714  0.67992869  0.00679356  1  -1.165033  0  -0.330753  -0.517819  0  2.304049  0
O  O139  1  0.91269431  0.32005937  0.49320444  1  -1.158388  0  -0.33037  -0.517309  0  2.304913  0
O  O140  1  0.40713231  0.32007270  0.99320570  1  -1.164972  0  -0.330743  -0.517809  0  2.304059  0
O  O141  1  0.08730675  0.67994100  0.50679413  1  -1.158388  0  -0.330345  -0.517304  0  2.304914  0
O  O142  1  0.39720113  0.51291421  0.92303045  1  -1.158953  0  -0.319041  -0.510728  0  2.332224  0
O  O143  1  0.88430671  0.48719387  0.57697833  1  -1.173482  0  -0.318941  -0.510283  0  2.333495  0
O  O144  1  0.60280305  0.48709026  0.07697032  1  -1.159024  0  -0.319064  -0.510744  0  2.332206  0
O  O145  1  0.11569592  0.51280752  0.42301984  1  -1.173543  0  -0.318974  -0.510352  0  2.333494  0
