# generated using pymatgen
data_K3HC(NO)6
_symmetry_space_group_name_H-M   'P 1'
_cell_length_a   7.33031272
_cell_length_b   7.84038790
_cell_length_c   19.20849752
_cell_angle_alpha   82.19728047
_cell_angle_beta   78.99058259
_cell_angle_gamma   62.10346843
_symmetry_Int_Tables_number   1
_chemical_formula_structural   K3HC(NO)6
_chemical_formula_sum   'K12 H4 C4 N24 O24'
_cell_volume   956.34538498
_cell_formula_units_Z   4
loop_
 _symmetry_equiv_pos_site_id
 _symmetry_equiv_pos_as_xyz
  1  'x, y, z'
loop_
 _atom_site_type_symbol
 _atom_site_label
 _atom_site_symmetry_multiplicity
 _atom_site_fract_x
 _atom_site_fract_y
 _atom_site_fract_z
 _atom_site_occupancy
 _atom_site_hle17_bader_spin_density
 _atom_site_hle17_ddec_charge
 _atom_site_hle17_ddec_spin_density
 _atom_site_hle17_ddec_sum_bond_order
 _atom_site_hle17_magmom
 _atom_site_hse06_10hf_bader_spin_density
 _atom_site_hse06_10hf_ddec_charge
 _atom_site_hse06_10hf_ddec_spin_density
 _atom_site_hse06_10hf_ddec_sum_bond_order
 _atom_site_hse06_10hf_magmom
 _atom_site_hse06_bader_spin_density
 _atom_site_hse06_ddec_charge
 _atom_site_hse06_ddec_spin_density
 _atom_site_hse06_ddec_sum_bond_order
 _atom_site_hse06_magmom
 _atom_site_pbe_bader_spin_density
 _atom_site_pbe_cm5_charge
 _atom_site_pbe_ddec_charge
 _atom_site_pbe_ddec_spin_density
 _atom_site_pbe_ddec_sum_bond_order
 _atom_site_pbe_magmom
K  K0  1  0.52476668  0.00494849  0.30461939  1  0  0.8821  0  0.557829  0  0  0.80819  0  0.784707  0  0  0.825881  0  0.758924  0  0  0.902819  0.795281  0  0.802834  0
K  K1  1  0.83455935  0.49545126  0.19549108  1  0  0.881716  0  0.557957  0  0  0.808421  0  0.784381  0  0  0.826159  0  0.758589  0  0  0.902745  0.795595  0  0.802453  0
K  K2  1  0.47523045  0.99505107  0.69538068  1  0  0.882072  0  0.557865  0  0  0.808199  0  0.784695  0  0  0.825886  0  0.758916  0  0  0.902831  0.795289  0  0.802823  0
K  K3  1  0.16543822  0.50455263  0.80450911  1  0  0.881731  0  0.557937  0  0  0.80842  0  0.784378  0  0  0.826158  0  0.758586  0  0  0.902739  0.795594  0  0.802452  0
K  K4  1  0.85334051  0.22102542  0.38686521  1  0  0.914459  0  0.473415  0  0  0.848929  0  0.678272  0  0  0.866101  0  0.654236  0  0  0.831999  0.836347  0  0.695131  0
K  K5  1  0.46140324  0.27874010  0.11309310  1  0  0.914339  0  0.473908  0  0  0.849046  0  0.678422  0  0  0.866149  0  0.654505  0  0  0.832421  0.836526  0  0.695208  0
K  K6  1  0.14665713  0.77897414  0.61313434  1  0  0.914435  0  0.473442  0  0  0.848922  0  0.678282  0  0  0.86611  0  0.654219  0  0  0.832006  0.836341  0  0.695139  0
K  K7  1  0.53859704  0.72126091  0.88690726  1  0  0.914345  0  0.473909  0  0  0.849051  0  0.67842  0  0  0.866155  0  0.654503  0  0  0.832419  0.836532  0  0.695207  0
K  K8  1  0.27163686  0.26389129  0.50559447  1  0  0.90845  0  0.530036  0  0  0.847855  0  0.739026  0  0  0.863576  0  0.716139  0  0  0.907831  0.836141  0  0.755227  0
K  K9  1  0.04051434  0.23666046  0.99450410  1  0  0.908493  0  0.529935  0  0  0.84768  0  0.739251  0  0  0.863353  0  0.716413  0  0  0.907609  0.835999  0  0.75538  0
K  K10  1  0.72836136  0.73610972  0.49440516  1  0  0.908461  0  0.530013  0  0  0.847856  0  0.739018  0  0  0.863581  0  0.716124  0  0  0.907831  0.836142  0  0.755219  0
K  K11  1  0.95948846  0.76333911  0.00549586  1  0  0.908491  0  0.529929  0  0  0.847684  0  0.739239  0  0  0.863358  0  0.716403  0  0  0.907602  0.836003  0  0.755369  0
H  H12  1  0.24107728  0.78240335  0.31524248  1  0  0.068993  0  1.002771  0  0  0.05471  0  1.107799  0  0  0.058299  0  1.102024  0  0  0.15944  0.051935  0  1.112112  0
H  H13  1  0.33880763  0.71754599  0.18471437  1  0  0.068427  0  1.002458  0  0  0.054323  0  1.106913  0  0  0.057937  0  1.101092  0  0  0.159273  0.051557  0  1.111148  0
H  H14  1  0.75892372  0.21759621  0.68475790  1  0  0.068981  0  1.002797  0  0  0.054731  0  1.107767  0  0  0.058318  0  1.101997  0  0  0.159443  0.051956  0  1.11208  0
H  H15  1  0.66119213  0.28245501  0.81528650  1  0  0.068426  0  1.002452  0  0  0.054329  0  1.106915  0  0  0.057947  0  1.10109  0  0  0.159276  0.051563  0  1.111151  0
C  C16  1  0.21813696  0.67652412  0.35501918  1  0  0.108845  0  3.640572  0  0  0.041818  0  3.915953  0  0  0.050467  0  3.92529  0  0  0.224567  0.035864  0  3.910381  0
C  C17  1  0.24973419  0.82344328  0.14493111  1  0  0.110404  0  3.638073  0  0  0.045035  0  3.910854  0  0  0.053767  0  3.920096  0  0  0.224609  0.039125  0  3.905227  0
C  C18  1  0.78186584  0.32347544  0.64498078  1  0  0.108807  0  3.640674  0  0  0.041796  0  3.916046  0  0  0.050444  0  3.925384  0  0  0.224571  0.035843  0  3.910476  0
C  C19  1  0.75026552  0.17655628  0.85506917  1  0  0.110385  0  3.638074  0  0  0.044947  0  3.910959  0  0  0.053676  0  3.920196  0  0  0.224581  0.039038  0  3.905332  0
N  N20  1  0.37771691  0.48490275  0.33369245  1  0  0.241884  0  3.703515  0  0  0.277528  0  4.004595  0  0  0.278418  0  4.02101  0  0  -0.059299  0.276333  0  3.993689  0
N  N21  1  0.19626237  0.01506086  0.16627079  1  0  0.242264  0  3.702885  0  0  0.276756  0  4.004587  0  0  0.277633  0  4.021013  0  0  -0.059088  0.275579  0  3.993648  0
N  N22  1  0.62228254  0.51509681  0.66630669  1  0  0.24195  0  3.703574  0  0  0.27758  0  4.004653  0  0  0.278471  0  4.021069  0  0  -0.0593  0.276386  0  3.993745  0
N  N23  1  0.80373791  0.98494014  0.83372956  1  0  0.242254  0  3.703001  0  0  0.276761  0  4.004714  0  0  0.277637  0  4.021141  0  0  -0.059105  0.275584  0  3.993774  0
N  N24  1  0.45030896  0.48663125  0.26540934  1  0  -0.030643  0  3.116893  0  0  -0.026564  0  3.436027  0  0  -0.013338  0  3.438849  0  0  -0.166049  -0.03468  0  3.4339  0
N  N25  1  0.20221954  0.01328764  0.23455422  1  0  -0.034656  0  3.126258  0  0  -0.026237  0  3.437266  0  0  -0.013022  0  3.440114  0  0  -0.165749  -0.034363  0  3.43517  0
N  N26  1  0.54969126  0.51336831  0.73459042  1  0  -0.030679  0  3.116935  0  0  -0.026602  0  3.436082  0  0  -0.013375  0  3.438904  0  0  -0.166065  -0.034718  0  3.433956  0
N  N27  1  0.79777945  0.98671336  0.76544604  1  0  -0.034666  0  3.126298  0  0  -0.026272  0  3.437333  0  0  -0.013055  0  3.440182  0  0  -0.165749  -0.034396  0  3.435235  0
N  N28  1  0.23009306  0.72331654  0.42494657  1  0  0.256053  0  3.662991  0  0  0.294354  0  3.959064  0  0  0.29655  0  3.973298  0  0  -0.05197  0.292333  0  3.94944  0
N  N29  1  0.37845376  0.77667943  0.07501181  1  0  0.256396  0  3.662425  0  0  0.294118  0  3.958304  0  0  0.296308  0  3.972446  0  0  -0.051689  0.292216  0  3.948541  0
N  N30  1  0.76990717  0.27668302  0.57505319  1  0  0.255951  0  3.663244  0  0  0.294281  0  3.959255  0  0  0.296478  0  3.973489  0  0  -0.051986  0.292262  0  3.94963  0
N  N31  1  0.62154652  0.22332157  0.92498854  1  0  0.256388  0  3.662404  0  0  0.294129  0  3.95829  0  0  0.296318  0  3.972433  0  0  -0.051688  0.292226  0  3.948529  0
N  N32  1  0.29822024  0.85383398  0.42077953  1  0  -0.055771  0  3.104139  0  0  -0.051941  0  3.416155  0  0  -0.038291  0  3.417757  0  0  -0.170038  -0.060993  0  3.415891  0
N  N33  1  0.57297504  0.64599833  0.07917188  1  0  -0.058378  0  3.106021  0  0  -0.054527  0  3.41788  0  0  -0.041139  0  3.420057  0  0  -0.170862  -0.064058  0  3.418329  0
N  N34  1  0.70178146  0.14616414  0.57922087  1  0  -0.055649  0  3.104063  0  0  -0.051909  0  3.416103  0  0  -0.03826  0  3.417706  0  0  -0.170043  -0.060965  0  3.415846  0
N  N35  1  0.42702543  0.35400123  0.92082902  1  0  -0.058392  0  3.106061  0  0  -0.054534  0  3.417907  0  0  -0.041146  0  3.420085  0  0  -0.170838  -0.064061  0  3.418349  0
N  N36  1  0.00506459  0.70473129  0.35497586  1  0  0.218504  0  3.707427  0  0  0.258081  0  4.004629  0  0  0.258934  0  4.020332  0  0  -0.101543  0.256854  0  3.994195  0
N  N37  1  0.06484409  0.79526725  0.14498711  1  0  0.218509  0  3.709816  0  0  0.257678  0  4.006774  0  0  0.258504  0  4.022488  0  0  -0.102058  0.256474  0  3.996334  0
N  N38  1  0.99493640  0.29526826  0.64502452  1  0  0.218543  0  3.70736  0  0  0.258096  0  4.004586  0  0  0.25895  0  4.020288  0  0  -0.101529  0.256868  0  3.994153  0
N  N39  1  0.93515490  0.20473376  0.85501315  1  0  0.218552  0  3.709768  0  0  0.257738  0  4.006731  0  0  0.258564  0  4.022447  0  0  -0.102031  0.256534  0  3.996291  0
N  N40  1  0.97943804  0.55806265  0.34213226  1  0  -0.013626  0  3.062921  0  0  -0.019909  0  3.372814  0  0  -0.00329  0  3.374542  0  0  -0.147512  -0.030383  0  3.37138  0
N  N41  1  0.87955193  0.94188384  0.15784503  1  0  -0.01428  0  3.064653  0  0  -0.020892  0  3.375243  0  0  -0.004254  0  3.376978  0  0  -0.147546  -0.031414  0  3.373819  0
N  N42  1  0.02056276  0.44193836  0.65786757  1  0  -0.013607  0  3.06294  0  0  -0.019895  0  3.372845  0  0  -0.003277  0  3.374573  0  0  -0.147516  -0.030369  0  3.371412  0
N  N43  1  0.12044887  0.05811716  0.84215480  1  0  -0.014328  0  3.064702  0  0  -0.020926  0  3.375267  0  0  -0.004287  0  3.377001  0  0  -0.14755  -0.031448  0  3.373842  0
O  O44  1  0.42963775  0.33234319  0.37683490  1  0  -0.612068  0  1.821144  0  0  -0.586778  0  2.074173  0  0  -0.606823  0  2.070623  0  0  -0.410328  -0.572831  0  2.076508  0
O  O45  1  0.13881752  0.16763896  0.12314673  1  0  -0.610899  0  1.820814  0  0  -0.586048  0  2.074742  0  0  -0.606075  0  2.071222  0  0  -0.409454  -0.572125  0  2.077045  0
O  O46  1  0.57036119  0.66765637  0.62316475  1  0  -0.612056  0  1.82116  0  0  -0.586783  0  2.074192  0  0  -0.60683  0  2.070643  0  0  -0.410311  -0.572836  0  2.076526  0
O  O47  1  0.86118329  0.83236205  0.87685310  1  0  -0.61088  0  1.820843  0  0  -0.58603  0  2.074783  0  0  -0.606057  0  2.071264  0  0  -0.409424  -0.572105  0  2.077085  0
O  O48  1  0.57921972  0.31954511  0.24191308  1  0  -0.538581  0  1.960353  0  0  -0.511794  0  2.234344  0  0  -0.527142  0  2.226539  0  0  -0.367785  -0.500906  0  2.239182  0
O  O49  1  0.14054997  0.18034035  0.25806328  1  0  -0.538486  0  1.963798  0  0  -0.512909  0  2.235836  0  0  -0.528292  0  2.228041  0  0  -0.369335  -0.502009  0  2.240707  0
O  O50  1  0.42077992  0.68045301  0.75808660  1  0  -0.538566  0  1.960354  0  0  -0.511774  0  2.234355  0  0  -0.527123  0  2.226551  0  0  -0.367773  -0.500887  0  2.239194  0
O  O51  1  0.85944631  0.81966355  0.74193681  1  0  -0.538452  0  1.963862  0  0  -0.512871  0  2.235903  0  0  -0.528257  0  2.228108  0  0  -0.369324  -0.50197  0  2.240773  0
O  O52  1  0.16422828  0.64900470  0.48295895  1  0  -0.620102  0  1.787252  0  0  -0.598353  0  2.036969  0  0  -0.619967  0  2.034109  0  0  -0.386468  -0.583253  0  2.038717  0
O  O53  1  0.29623046  0.85118393  0.01701604  1  0  -0.619413  0  1.786574  0  0  -0.597758  0  2.036479  0  0  -0.619308  0  2.033568  0  0  -0.38568  -0.582642  0  2.038151  0
O  O54  1  0.83577085  0.35099342  0.51704126  1  0  -0.620101  0  1.787471  0  0  -0.598343  0  2.037149  0  0  -0.619955  0  2.034291  0  0  -0.386465  -0.583243  0  2.038896  0
O  O55  1  0.70376983  0.14881708  0.98298431  1  0  -0.619378  0  1.786576  0  0  -0.59773  0  2.036492  0  0  -0.619281  0  2.033582  0  0  -0.385665  -0.582613  0  2.038164  0
O  O56  1  0.30705531  0.90174821  0.48107760  1  0  -0.541842  0  1.962723  0  0  -0.510807  0  2.229694  0  0  -0.524248  0  2.220887  0  0  -0.360173  -0.500841  0  2.235196  0
O  O57  1  0.69004634  0.59810187  0.01886215  1  0  -0.540347  0  1.964617  0  0  -0.509243  0  2.231641  0  0  -0.522561  0  2.222873  0  0  -0.360307  -0.499119  0  2.23714  0
O  O58  1  0.69294259  0.09825135  0.51892310  1  0  -0.541952  0  1.962761  0  0  -0.510808  0  2.229638  0  0  -0.524247  0  2.220832  0  0  -0.360164  -0.50084  0  2.23514  0
O  O59  1  0.30995388  0.40189770  0.98113761  1  0  -0.540335  0  1.964664  0  0  -0.509232  0  2.231688  0  0  -0.522549  0  2.222921  0  0  -0.360311  -0.499108  0  2.237186  0
O  O60  1  0.85907212  0.88065316  0.36612281  1  0  -0.618122  0  1.825522  0  0  -0.58746  0  2.075486  0  0  -0.610052  0  2.074523  0  0  -0.44153  -0.571627  0  2.075963  0
O  O61  1  0.10622244  0.61928652  0.13386723  1  0  -0.618541  0  1.826521  0  0  -0.588026  0  2.076601  0  0  -0.610617  0  2.075634  0  0  -0.441741  -0.5722  0  2.07706  0
O  O62  1  0.14092881  0.11934496  0.63387698  1  0  -0.618127  0  1.825467  0  0  -0.587477  0  2.075422  0  0  -0.610071  0  2.074459  0  0  -0.441549  -0.571645  0  2.075899  0
O  O63  1  0.89377837  0.38071449  0.86613260  1  0  -0.618581  0  1.826521  0  0  -0.588058  0  2.076586  0  0  -0.610649  0  2.075618  0  0  -0.441768  -0.572232  0  2.077045  0
O  O64  1  0.78706230  0.60140512  0.33932003  1  0  -0.567439  0  1.910688  0  0  -0.538102  0  2.179204  0  0  -0.555315  0  2.172286  0  0  -0.36371  -0.525833  0  2.183336  0
O  O65  1  0.72776777  0.89846545  0.16072068  1  0  -0.566603  0  1.909057  0  0  -0.537175  0  2.177757  0  0  -0.554309  0  2.170712  0  0  -0.363406  -0.524884  0  2.181901  0
O  O66  1  0.21293722  0.39859589  0.66067970  1  0  -0.567477  0  1.910778  0  0  -0.53811  0  2.179252  0  0  -0.555326  0  2.172336  0  0  -0.363719  -0.525843  0  2.183385  0
O  O67  1  0.27223245  0.10153411  0.83927908  1  0  -0.566585  0  1.909076  0  0  -0.537167  0  2.177776  0  0  -0.5543  0  2.170731  0  0  -0.363419  -0.524879  0  2.18193  0
