# generated using pymatgen
data_AlC27N7(OF2)6
_symmetry_space_group_name_H-M   'P 1'
_cell_length_a   3.96798768
_cell_length_b   18.18300063
_cell_length_c   18.16072661
_cell_angle_alpha   120.68641776
_cell_angle_beta   97.88990916
_cell_angle_gamma   95.56577440
_symmetry_Int_Tables_number   1
_chemical_formula_structural   AlC27N7(OF2)6
_chemical_formula_sum   'Al1 C27 N7 O6 F12'
_cell_volume   1094.48096440
_cell_formula_units_Z   1
loop_
 _symmetry_equiv_pos_site_id
 _symmetry_equiv_pos_as_xyz
  1  'x, y, z'
loop_
 _atom_site_type_symbol
 _atom_site_label
 _atom_site_symmetry_multiplicity
 _atom_site_fract_x
 _atom_site_fract_y
 _atom_site_fract_z
 _atom_site_occupancy
 _atom_site_pbe_bader_charge
 _atom_site_pbe_bader_spin_density
 _atom_site_pbe_cm5_charge
 _atom_site_pbe_ddec_charge
 _atom_site_pbe_ddec_spin_density
 _atom_site_pbe_ddec_sum_bond_order
 _atom_site_pbe_magmom
Al  Al0  1  0.00744417  0.00070840  0.49740127  1  2.505868  0  0.433028  1.591545  0  2.582936  0
C  C1  1  0.49745434  0.06561230  0.43270601  1  1.654727  0  0.289296  0.704895  0  4.036127  0
C  C2  1  0.61399562  0.06741598  0.63185138  1  1.647044  0  0.287636  0.702397  0  4.03972  0
C  C3  1  0.41191370  0.86713004  0.42945480  1  1.648921  0  0.287327  0.700207  0  4.039194  0
C  C4  1  0.54768718  0.24811086  0.38701066  1  0.517818  0  0.104169  0.16378  0  4.063342  0
C  C5  1  0.50854494  0.20316639  0.29502483  1  0.121359  0  -0.013344  -0.178182  0  3.979791  0
C  C6  1  0.65314097  0.11842616  0.86461188  1  0.594104  0  0.102823  0.160877  0  4.055025  0
C  C7  1  0.66643711  0.20955823  0.91346873  1  0.047575  0  -0.01529  -0.180312  0  3.972726  0
C  C8  1  0.37395709  0.58649458  0.28783855  1  0.10022  0  -0.013579  -0.177879  0  3.967515  0
C  C9  1  0.37507681  0.63394204  0.24557003  1  0.561711  0  0.106239  0.167196  0  4.053551  0
C  C10  1  0.68132381  0.25224683  0.86658748  1  0.627694  0  0.105148  0.164972  0  4.058771  0
C  C11  1  0.67066696  0.20596033  0.77684506  1  0.518686  0  0.095224  0.154902  0  4.09124  0
C  C12  1  0.65674913  0.11595055  0.72942755  1  0.088271  0  -0.016441  -0.210369  0  4.00583  0
C  C13  1  0.65397275  0.07340743  0.77521389  1  0.551052  0  0.095358  0.156335  0  4.093115  0
C  C14  1  0.38193240  0.72337575  0.29151249  1  0.612747  0  0.09517  0.15409  0  4.091162  0
C  C15  1  0.37662853  0.77022972  0.38076095  1  0.062822  0  -0.017033  -0.210426  0  4.001818  0
C  C16  1  0.36357983  0.72382692  0.42267519  1  0.562796  0  0.096401  0.157306  0  4.089945  0
C  C17  1  0.36719614  0.63467795  0.37809952  1  0.544038  0  0.103076  0.160552  0  4.053505  0
C  C18  1  0.46385779  0.11141338  0.24963395  1  0.576268  0  0.104951  0.165543  0  4.062461  0
C  C19  1  0.45526518  0.06750553  0.29395485  1  0.576867  0  0.094761  0.153648  0  4.097  0
C  C20  1  0.49691400  0.11276282  0.38495568  1  0.018225  0  -0.017208  -0.211785  0  4.013762  0
C  C21  1  0.54462447  0.20354139  0.43068158  1  0.646431  0  0.094637  0.153456  0  4.097737  0
C  C22  1  0.41086847  0.37002152  0.24545094  1  1.501757  0  0.363796  0.511452  0  4.065392  0
C  C23  1  0.62548899  0.25272396  0.12986678  1  1.539962  0  0.364495  0.511492  0  4.062108  0
C  C24  1  0.51323446  0.25014646  0.24845930  1  1.15473  0  0.269786  0.435922  0  4.001365  0
C  C25  1  0.39559783  0.49306790  0.24099749  1  1.111394  0  0.259547  0.418294  0  4.025934  0
C  C26  1  0.52254734  0.37786036  0.12142022  1  1.536841  0  0.36268  0.505782  0  4.089118  0
C  C27  1  0.64667511  0.25703573  0.00696151  1  1.171296  0  0.257219  0.414497  0  4.032335  0
N  N28  1  0.51988689  0.33344729  0.16569399  1  -1.190173  0  -0.189901  -0.240458  0  3.598765  0
N  N29  1  0.63782241  0.21349476  0.17496371  1  -1.14436  0  -0.310135  -0.423035  0  3.197055  0
N  N30  1  0.39189392  0.32480322  0.28428700  1  -1.138212  0  -0.310075  -0.423277  0  3.198307  0
N  N31  1  0.32671617  0.44877760  0.27991407  1  -1.137421  0  -0.318361  -0.436533  0  3.193417  0
N  N32  1  0.48549376  0.46063380  0.16305825  1  -1.151988  0  -0.311378  -0.419757  0  3.214887  0
N  N33  1  0.71147998  0.21756861  0.05169990  1  -1.180566  0  -0.318861  -0.435405  0  3.188807  0
N  N34  1  0.56131593  0.33587933  0.03886215  1  -1.18116  0  -0.310736  -0.419024  0  3.214935  0
O  O35  1  0.21377913  0.90252569  0.48150923  1  -1.233815  0  -0.222162  -0.571624  0  2.3397  0
O  O36  1  0.22319312  0.01194931  0.41432647  1  -1.237189  0  -0.223182  -0.572462  0  2.340231  0
O  O37  1  0.36929179  0.08288049  0.59185566  1  -1.236175  0  -0.226672  -0.592598  0  2.393735  0
O  O38  1  0.64658189  0.90718399  0.41425785  1  -1.235963  0  -0.227583  -0.593633  0  2.396186  0
O  O39  1  0.81519899  0.01574449  0.59632414  1  -1.233908  0  -0.221284  -0.568308  0  2.328761  0
O  O40  1  0.77423778  0.08345604  0.48786626  1  -1.2399  0  -0.224031  -0.577825  0  2.352562  0
F  F41  1  0.41261290  0.97985436  0.24763397  1  -0.602509  0  -0.077616  -0.085409  0  1.353927  0
F  F42  1  0.41593252  0.06251652  0.16204607  1  -0.597572  0  -0.070204  -0.080186  0  1.397613  0
F  F43  1  0.58389905  0.24948752  0.51860383  1  -0.620832  0  -0.077961  -0.085724  0  1.354787  0
F  F44  1  0.60232391  0.33542502  0.43647873  1  -0.617492  0  -0.070562  -0.080666  0  1.398254  0
F  F45  1  0.37560206  0.59824343  0.42633408  1  -0.585576  0  -0.068405  -0.077088  0  1.411254  0
F  F46  1  0.36551362  0.76551668  0.50891903  1  -0.602537  0  -0.07585  -0.083818  0  1.363508  0
F  F47  1  0.36651373  0.59627068  0.15975580  1  -0.598823  0  -0.066283  -0.07635  0  1.418414  0
F  F48  1  0.38591009  0.76395169  0.24697423  1  -0.620264  0  -0.073873  -0.079701  0  1.37149  0
F  F49  1  0.62456773  0.07006144  0.90047341  1  -0.609344  0  -0.068221  -0.076901  0  1.409542  0
F  F50  1  0.63206638  0.98642609  0.73234615  1  -0.606309  0  -0.076247  -0.084563  0  1.359458  0
F  F51  1  0.71096516  0.33865900  0.90541103  1  -0.60626  0  -0.065496  -0.074767  0  1.418848  0
F  F52  1  0.68183171  0.25039080  0.73617799  1  -0.592877  0  -0.074793  -0.081078  0  1.3643  0
