# generated using pymatgen
data_Ni3H18C30N3O13
_symmetry_space_group_name_H-M   'P 1'
_cell_length_a   18.47909271
_cell_length_b   18.47907680
_cell_length_c   18.47876143
_cell_angle_alpha   109.46988806
_cell_angle_beta   109.47046938
_cell_angle_gamma   109.47069423
_symmetry_Int_Tables_number   1
_chemical_formula_structural   Ni3H18C30N3O13
_chemical_formula_sum   'Ni12 H72 C120 N12 O52'
_cell_volume   4857.64610712
_cell_formula_units_Z   4
loop_
 _symmetry_equiv_pos_site_id
 _symmetry_equiv_pos_as_xyz
  1  'x, y, z'
loop_
 _atom_site_type_symbol
 _atom_site_label
 _atom_site_symmetry_multiplicity
 _atom_site_fract_x
 _atom_site_fract_y
 _atom_site_fract_z
 _atom_site_occupancy
 _atom_site_pbe_bader_charge
 _atom_site_pbe_bader_spin_density
 _atom_site_pbe_cm5_charge
 _atom_site_pbe_ddec_charge
 _atom_site_pbe_ddec_spin_density
 _atom_site_pbe_ddec_sum_bond_order
 _atom_site_pbe_magmom
Ni  Ni0  1  0.35728694  0.46482323  0.35728860  1  1.287934  1.039536  0.707688  0.993633  1.188716  2.672269  1.026
Ni  Ni1  1  0.64271673  0.00000371  0.10752675  1  1.284659  1.039588  0.707624  0.992861  1.188792  2.67244  1.026
Ni  Ni2  1  0.89244586  0.53515920  0.89244685  1  1.291629  1.039549  0.707667  0.993639  1.188748  2.672334  1.026
Ni  Ni3  1  0.10755498  0.00000734  0.64270684  1  1.284753  1.039523  0.707631  0.993526  1.188789  2.672529  1.026
Ni  Ni4  1  0.99999068  0.64270102  0.10753415  1  1.285228  1.039717  0.70762  0.993099  1.18898  2.671741  1.026
Ni  Ni5  1  0.53516723  0.89245154  0.89245801  1  1.29368  1.039781  0.707553  0.993321  1.188972  2.672068  1.026
Ni  Ni6  1  0.00000279  0.10753581  0.64271464  1  1.285329  1.039868  0.70753  0.99272  1.189119  2.672241  1.026
Ni  Ni7  1  0.46481597  0.35727293  0.35729332  1  1.287725  1.039856  0.707549  0.993309  1.189066  2.672131  1.026
Ni  Ni8  1  0.89246482  0.89246739  0.53517320  1  1.292793  1.03963  0.707649  0.993751  1.188785  2.671776  1.026
Ni  Ni9  1  0.64270638  0.10753739  0.99999006  1  1.285788  1.039535  0.70768  0.992802  1.188779  2.672647  1.026
Ni  Ni10  1  0.35728288  0.35728802  0.46483325  1  1.287733  1.039543  0.707646  0.993598  1.188759  2.672229  1.026
Ni  Ni11  1  0.10751986  0.64271309  0.99999111  1  1.284994  1.03965  0.707569  0.992933  1.188859  2.672223  1.026
H  H12  1  0.41576020  0.56202257  0.70466559  1  0.093015  0.000755  0.11447  0.127499  0.000373  0.990557  0.0
H  H13  1  0.58423894  0.28887534  0.14625920  1  0.099004  0.000753  0.114415  0.127384  0.000373  0.990529  0.0
H  H14  1  0.14264777  0.43797302  0.85375833  1  0.104052  0.000756  0.11443  0.127521  0.000374  0.990339  0.0
H  H15  1  0.85735610  0.71112466  0.29532779  1  0.093975  0.000754  0.114493  0.127523  0.000373  0.99064  0.0
H  H16  1  0.71111461  0.29535455  0.85738086  1  0.094071  0.000754  0.114391  0.127389  0.000373  0.990485  0.0
H  H17  1  0.43798268  0.85374442  0.14266038  1  0.104181  0.000755  0.114478  0.127694  0.000373  0.990493  0.0
H  H18  1  0.28888081  0.14625874  0.58420967  1  0.098959  0.000753  0.114451  0.127457  0.000373  0.990531  0.0
H  H19  1  0.56201818  0.70466296  0.41576115  1  0.092975  0.000755  0.114447  0.127506  0.000373  0.990624  0.0
H  H20  1  0.85374632  0.14263308  0.43796422  1  0.104219  0.000755  0.11446  0.127503  0.000373  0.990625  0.0
H  H21  1  0.29535395  0.85738616  0.71112688  1  0.094088  0.000753  0.11447  0.127502  0.000373  0.99068  0.0
H  H22  1  0.70466188  0.41578076  0.56202967  1  0.093365  0.000755  0.11442  0.12748  0.000373  0.990562  0.0
H  H23  1  0.14625503  0.58422501  0.28888553  1  0.098694  0.000753  0.114478  0.127535  0.000373  0.990616  0.0
H  H24  1  0.41578414  0.70467310  0.56203753  1  0.093287  0.000756  0.114442  0.127478  0.000373  0.990555  0.0
H  H25  1  0.58422037  0.14624344  0.28890385  1  0.09824  0.000754  0.114511  0.127648  0.000373  0.990543  0.0
H  H26  1  0.14262364  0.85376079  0.43796675  1  0.104273  0.000755  0.114459  0.127505  0.000373  0.990526  0.0
H  H27  1  0.85739238  0.29536627  0.71112980  1  0.094222  0.000753  0.114481  0.127442  0.000373  0.990704  0.0
H  H28  1  0.71113345  0.85737300  0.29534579  1  0.09414  0.000754  0.114455  0.127519  0.000373  0.990513  0.0
H  H29  1  0.43797941  0.14264491  0.85375841  1  0.104063  0.000756  0.114417  0.127503  0.000373  0.990471  0.0
H  H30  1  0.28890693  0.58425345  0.14625983  1  0.09849  0.000754  0.114482  0.12748  0.000374  0.990439  0.0
H  H31  1  0.56204142  0.41578972  0.70467257  1  0.093306  0.000755  0.114442  0.127492  0.000373  0.990655  0.0
H  H32  1  0.85375401  0.43796620  0.14264311  1  0.104051  0.000755  0.114452  0.127465  0.000373  0.990639  0.0
H  H33  1  0.29536313  0.71111286  0.85739006  1  0.094008  0.000754  0.11442  0.127451  0.000373  0.990481  0.0
H  H34  1  0.70465531  0.56202419  0.41575803  1  0.092972  0.000756  0.114403  0.127373  0.000373  0.990457  0.0
H  H35  1  0.14624052  0.28888176  0.58420735  1  0.098484  0.000753  0.114448  0.127544  0.000373  0.990432  0.0
H  H36  1  0.35506308  0.21274380  0.08334999  1  0.096637  0.000466  0.104535  0.109943  0.000237  1.00667  0.0
H  H37  1  0.64494410  0.72827416  0.85768863  1  0.084892  0.000472  0.10453  0.110005  0.000238  1.006706  0.0
H  H38  1  0.87060367  0.78724704  0.14232049  1  0.084317  0.000473  0.104557  0.109947  0.000237  1.006785  0.0
H  H39  1  0.12939400  0.27170857  0.91665090  1  0.086854  0.000474  0.10455  0.109959  0.000237  1.006764  0.0
H  H40  1  0.27171265  0.91664767  0.12940740  1  0.086962  0.000475  0.104527  0.109935  0.000238  1.006659  0.0
H  H41  1  0.78724346  0.14230675  0.87061043  1  0.084368  0.000474  0.104522  0.109916  0.000237  1.006573  0.0
H  H42  1  0.72826635  0.85767542  0.64493267  1  0.08496  0.000472  0.104528  0.109972  0.000238  1.006608  0.0
H  H43  1  0.21273629  0.08333873  0.35506840  1  0.096838  0.000466  0.104528  0.109881  0.000237  1.006778  0.0
H  H44  1  0.14231044  0.87060491  0.78725002  1  0.084472  0.000473  0.104545  0.109938  0.000237  1.006886  0.0
H  H45  1  0.91665395  0.12940896  0.27171171  1  0.087021  0.000474  0.10454  0.109985  0.000237  1.006651  0.0
H  H46  1  0.08335250  0.35506868  0.21274921  1  0.096505  0.000466  0.104542  0.109911  0.000238  1.006852  0.0
H  H47  1  0.85767706  0.64493048  0.72826399  1  0.084932  0.000471  0.104578  0.110007  0.000237  1.006621  0.0
H  H48  1  0.35506644  0.08333902  0.21275851  1  0.096569  0.000466  0.104588  0.110026  0.000238  1.006608  0.0
H  H49  1  0.64490986  0.85767523  0.72828060  1  0.085942  0.00047  0.104568  0.109877  0.000237  1.006707  0.0
H  H50  1  0.87058890  0.14229589  0.78725374  1  0.084671  0.000473  0.10451  0.109944  0.000237  1.006737  0.0
H  H51  1  0.12938628  0.91664584  0.27171668  1  0.086672  0.000475  0.104563  0.109915  0.000237  1.00669  0.0
H  H52  1  0.27172159  0.12939984  0.91665000  1  0.086687  0.000475  0.104532  0.109931  0.000238  1.00669  0.0
H  H53  1  0.78725370  0.87059179  0.14231008  1  0.084406  0.000473  0.104567  0.11  0.000237  1.006641  0.0
H  H54  1  0.72829509  0.64492446  0.85768674  1  0.086202  0.00047  0.104538  0.10992  0.000237  1.006679  0.0
H  H55  1  0.21273825  0.35505728  0.08334661  1  0.096695  0.000466  0.104537  0.109971  0.000238  1.006645  0.0
H  H56  1  0.14230099  0.78724445  0.87059110  1  0.084499  0.000474  0.104535  0.110019  0.000237  1.006581  0.0
H  H57  1  0.91665847  0.27172393  0.12938831  1  0.086861  0.000474  0.104534  0.10988  0.000237  1.006749  0.0
H  H58  1  0.08334147  0.21274986  0.35506513  1  0.096793  0.000466  0.104577  0.110005  0.000237  1.006575  0.0
H  H59  1  0.85768221  0.72829989  0.64492638  1  0.085831  0.00047  0.104552  0.109912  0.000237  1.006584  0.0
H  H60  1  0.46126714  0.70152061  0.83828733  1  0.114665  0.001094  0.12416  0.097553  0.000396  0.990466  0.001
H  H61  1  0.53871338  0.37697298  0.24024150  1  0.113386  0.001092  0.124133  0.097632  0.000396  0.99062  0.001
H  H62  1  0.13675682  0.29846944  0.75975299  1  0.112798  0.001095  0.124193  0.097578  0.000397  0.990577  0.001
H  H63  1  0.86324751  0.62299053  0.16171622  1  0.102675  0.001096  0.124159  0.09761  0.000396  0.990564  0.001
H  H64  1  0.62300846  0.16172954  0.86326374  1  0.103122  0.001096  0.12416  0.097619  0.000396  0.99065  0.001
H  H65  1  0.29847543  0.75975391  0.13677167  1  0.113043  0.001094  0.124184  0.09751  0.000396  0.990526  0.001
H  H66  1  0.37700732  0.24026297  0.53871383  1  0.112925  0.001093  0.124188  0.097654  0.000396  0.990299  0.001
H  H67  1  0.70151715  0.83828435  0.46126012  1  0.114465  0.001094  0.124135  0.097498  0.000396  0.990517  0.001
H  H68  1  0.75973898  0.13675153  0.29846331  1  0.112752  0.001094  0.124143  0.097558  0.000396  0.990347  0.001
H  H69  1  0.16173123  0.86325348  0.62299727  1  0.103162  0.001097  0.124142  0.09768  0.000397  0.99028  0.001
H  H70  1  0.83827955  0.46128193  0.70152404  1  0.114501  0.001094  0.124149  0.097629  0.000396  0.990588  0.001
H  H71  1  0.24024842  0.53871109  0.37700271  1  0.112772  0.001093  0.124174  0.097576  0.000396  0.990399  0.001
H  H72  1  0.46129774  0.83829498  0.70154503  1  0.114925  0.001095  0.124211  0.097636  0.000397  0.990558  0.001
H  H73  1  0.53871362  0.24023674  0.37701712  1  0.112537  0.001095  0.124158  0.097581  0.000397  0.990323  0.001
H  H74  1  0.13675011  0.75974388  0.29847173  1  0.113031  0.001094  0.124106  0.097502  0.000396  0.990611  0.001
H  H75  1  0.86325259  0.16173633  0.62300162  1  0.103307  0.001097  0.124175  0.09768  0.000397  0.990336  0.001
H  H76  1  0.62301255  0.86325405  0.16172207  1  0.102801  0.001096  0.124106  0.09783  0.000396  0.990833  0.001
H  H77  1  0.29847771  0.13675181  0.75974035  1  0.112403  0.001094  0.124133  0.097577  0.000396  0.990749  0.001
H  H78  1  0.37701367  0.53873035  0.24024844  1  0.112673  0.001093  0.124173  0.097516  0.000397  0.990568  0.001
H  H79  1  0.70153285  0.46128984  0.83829428  1  0.114795  0.001094  0.124157  0.097486  0.000396  0.990385  0.001
H  H80  1  0.75975565  0.29846691  0.13676784  1  0.113316  0.001094  0.124151  0.097558  0.000396  0.990438  0.001
H  H81  1  0.16173407  0.62301242  0.86327072  1  0.103249  0.001096  0.124119  0.100625  0.000399  0.987309  0.001
H  H82  1  0.83827152  0.70152842  0.46126334  1  0.115003  0.001094  0.124155  0.097618  0.000396  0.990546  0.001
H  H83  1  0.24023613  0.37700673  0.53870875  1  0.11268  0.001094  0.12418  0.097582  0.000397  0.990433  0.001
C  C84  1  0.39181974  0.54363012  0.54362594  1  1.587943  -0.002445  0.224304  0.58227  -0.002734  4.160508  -0.003
C  C85  1  0.60816752  0.15178118  0.15180424  1  1.5774  -0.002387  0.224361  0.582735  -0.002738  4.160545  -0.003
C  C86  1  0.00002223  0.45638871  0.84821392  1  1.580516  -0.002386  0.224492  0.582927  -0.002736  4.16057  -0.003
C  C87  1  0.99998207  0.84819208  0.45635418  1  1.580925  -0.002383  0.22432  0.582441  -0.002731  4.160692  -0.003
C  C88  1  0.84820976  0.45638182  0.00002499  1  1.580242  -0.002385  0.224337  0.582547  -0.002735  4.160699  -0.003
C  C89  1  0.45637335  0.84819682  0.00000754  1  1.581028  -0.002384  0.22425  0.582215  -0.002733  4.160991  -0.003
C  C90  1  0.15178984  0.15178902  0.60815282  1  1.578447  -0.002392  0.224306  0.582316  -0.002739  4.160775  -0.003
C  C91  1  0.54362109  0.54363126  0.39181485  1  1.589344  -0.002444  0.224351  0.582444  -0.002732  4.160345  -0.003
C  C92  1  0.84820960  0.99999873  0.45637009  1  1.580949  -0.002386  0.224387  0.582462  -0.002734  4.160677  -0.003
C  C93  1  0.45638099  0.00000921  0.84819964  1  1.580797  -0.002386  0.224498  0.582672  -0.002735  4.160714  -0.003
C  C94  1  0.54362416  0.39183290  0.54362383  1  1.586369  -0.002451  0.224525  0.582653  -0.002739  4.160597  -0.003
C  C95  1  0.15181176  0.60818355  0.15181538  1  1.576376  -0.002382  0.22423  0.582198  -0.002732  4.160466  -0.003
C  C96  1  0.41369560  0.62367688  0.62368248  1  -0.002291  0.00975  0.003902  0.020012  0.005654  3.941402  0.008
C  C97  1  0.58630414  0.20995902  0.20999530  1  -0.024115  0.009707  0.004005  0.019554  0.00565  3.941864  0.008
C  C98  1  0.00001199  0.37633589  0.79003226  1  -0.035312  0.009719  0.003906  0.019546  0.00565  3.941971  0.008
C  C99  1  0.99999321  0.79003366  0.37631021  1  -0.034761  0.009726  0.003826  0.019905  0.005654  3.941618  0.008
C  C100  1  0.79002448  0.37633087  0.00001283  1  -0.031007  0.009723  0.004028  0.019812  0.005653  3.941823  0.008
C  C101  1  0.37633291  0.79002132  0.00001864  1  -0.031076  0.009722  0.003978  0.01995  0.005653  3.941692  0.008
C  C102  1  0.20996641  0.20997499  0.58628828  1  -0.024358  0.00971  0.003926  0.019962  0.00565  3.941716  0.008
C  C103  1  0.62367382  0.62367999  0.41368810  1  -0.002354  0.009751  0.00396  0.019802  0.005655  3.941531  0.008
C  C104  1  0.79003920  0.00000809  0.37632105  1  -0.030844  0.009722  0.003772  0.019819  0.005653  3.941658  0.008
C  C105  1  0.37633089  0.00000338  0.79002123  1  -0.034964  0.009729  0.003922  0.019664  0.005656  3.941915  0.008
C  C106  1  0.62367231  0.41370698  0.62367984  1  -0.002215  0.009743  0.003921  0.019918  0.00565  3.941667  0.008
C  C107  1  0.20999150  0.58630840  0.20998805  1  -0.028235  0.009711  0.003934  0.020063  0.005651  3.941517  0.008
C  C108  1  0.42470241  0.62203765  0.70164229  1  -0.038135  0.002566  -0.078488  -0.150043  0.001447  3.951605  0.002
C  C109  1  0.57529331  0.27691454  0.19734130  1  -0.004311  0.00254  -0.078378  -0.149594  0.001448  3.951345  0.002
C  C110  1  0.07959622  0.37795714  0.80267260  1  0.002555  0.002532  -0.07846  -0.149995  0.001447  3.951466  0.002
C  C111  1  0.92039842  0.72308554  0.29835838  1  0.010326  0.002532  -0.07837  -0.149908  0.001447  3.951395  0.002
C  C112  1  0.72308508  0.29838793  0.92042992  1  0.010679  0.00253  -0.078287  -0.14969  0.001445  3.95162  0.002
C  C113  1  0.37796960  0.80267371  0.07962182  1  -0.003368  0.002535  -0.078435  -0.150136  0.001448  3.951502  0.002
C  C114  1  0.27691394  0.19733249  0.57527488  1  -0.007262  0.002541  -0.078356  -0.149684  0.001446  3.95166  0.002
C  C115  1  0.62203402  0.70164218  0.42470562  1  -0.038237  0.002567  -0.078468  -0.149985  0.001447  3.951389  0.002
C  C116  1  0.80267874  0.07959595  0.37795321  1  -0.001358  0.002531  -0.078401  -0.149915  0.001446  3.951845  0.002
C  C117  1  0.29838453  0.92041979  0.72308926  1  0.010099  0.002531  -0.078444  -0.149763  0.001446  3.951866  0.002
C  C118  1  0.70163230  0.42471473  0.62204481  1  -0.04139  0.002567  -0.078431  -0.14994  0.001447  3.951584  0.002
C  C119  1  0.19733081  0.57528385  0.27692862  1  -0.004767  0.002539  -0.078404  -0.149966  0.001447  3.95158  0.002
C  C120  1  0.42471226  0.70163459  0.62204648  1  -0.041124  0.002567  -0.078378  -0.149959  0.001447  3.951196  0.002
C  C121  1  0.57529252  0.19731606  0.27693283  1  -0.007882  0.002539  -0.078487  -0.149987  0.001446  3.951718  0.002
C  C122  1  0.07958838  0.80268154  0.37795078  1  0.002987  0.002531  -0.07838  -0.149894  0.001447  3.951794  0.002
C  C123  1  0.92042056  0.29838804  0.72308931  1  0.010013  0.002531  -0.078388  -0.149545  0.001446  3.9518  0.002
C  C124  1  0.72309663  0.92041433  0.29837281  1  0.010448  0.002533  -0.07833  -0.149814  0.001447  3.951584  0.002
C  C125  1  0.37796205  0.07960014  0.80266903  1  0.000977  0.002533  -0.078447  -0.149938  0.001448  3.951304  0.002
C  C126  1  0.27693743  0.57530733  0.19734133  1  -0.004064  0.002537  -0.078415  -0.149898  0.001447  3.951086  0.002
C  C127  1  0.62204725  0.42472275  0.70163911  1  -0.041464  0.002565  -0.078424  -0.149946  0.001445  3.951772  0.002
C  C128  1  0.80267517  0.37795665  0.07961090  1  -0.002833  0.002534  -0.078408  -0.149774  0.001448  3.951813  0.002
C  C129  1  0.29839268  0.72308369  0.92043276  1  0.010765  0.002532  -0.078356  -0.150015  0.001447  3.95264  0.002
C  C130  1  0.70162938  0.62204147  0.42469408  1  -0.040647  0.002566  -0.078376  -0.149709  0.001447  3.951215  0.002
C  C131  1  0.19732815  0.27692223  0.57528457  1  -0.009541  0.002541  -0.078405  -0.149988  0.001446  3.951407  0.002
C  C132  1  0.30607012  0.22557601  0.04606628  1  -0.088842  0.000753  -0.085052  -0.097481  0.000148  3.983128  0.001
C  C133  1  0.69393473  0.73997681  0.91950843  1  -0.057354  0.000736  -0.084954  -0.097703  0.00015  3.983589  0.001
C  C134  1  0.82049727  0.77440939  0.08049170  1  0.082296  0.000698  -0.085208  -0.097487  0.000147  3.983137  0.001
C  C135  1  0.17950806  0.26000210  0.95393130  1  0.062519  0.000704  -0.08512  -0.09751  0.000148  3.982853  0.001
C  C136  1  0.26000022  0.95393009  0.17951983  1  0.06225  0.000704  -0.085152  -0.097509  0.000148  3.983431  0.001
C  C137  1  0.77440856  0.08047963  0.82049037  1  0.082769  0.000699  -0.08514  -0.097368  0.000148  3.982989  0.001
C  C138  1  0.73997523  0.91949992  0.69392646  1  -0.057639  0.000737  -0.084965  -0.097625  0.000149  3.983324  0.001
C  C139  1  0.22557372  0.04605987  0.30608393  1  -0.088987  0.000754  -0.085069  -0.097538  0.000149  3.983412  0.001
C  C140  1  0.08049331  0.82049440  0.77441626  1  0.082365  0.0007  -0.085142  -0.097438  0.000148  3.983269  0.001
C  C141  1  0.95393793  0.17951772  0.26000008  1  0.06183  0.000705  -0.085162  -0.097585  0.000149  3.983031  0.001
C  C142  1  0.04607277  0.30608227  0.22558265  1  0.053338  0.000709  -0.085146  -0.097552  0.000148  3.982835  0.001
C  C143  1  0.91949811  0.69392283  0.73997983  1  -0.057517  0.000734  -0.085032  -0.097601  0.000147  3.9834  0.001
C  C144  1  0.30607253  0.04606557  0.22559301  1  -0.08913  0.000753  -0.085174  -0.0977  0.000148  3.983445  0.001
C  C145  1  0.69390233  0.91949240  0.73998706  1  0.083601  0.000693  -0.085276  -0.097346  0.000148  3.983005  0.001
C  C146  1  0.82047493  0.08047930  0.77442143  1  -0.06085  0.000743  -0.084991  -0.09751  0.000148  3.983265  0.001
C  C147  1  0.17950598  0.95393428  0.26001739  1  0.062519  0.000706  -0.085214  -0.097476  0.00015  3.983106  0.001
C  C148  1  0.26000592  0.17951174  0.95392964  1  0.062951  0.000702  -0.085085  -0.097455  0.000147  3.983086  0.001
C  C149  1  0.77442688  0.82048405  0.08048849  1  -0.060382  0.000743  -0.085059  -0.097545  0.000147  3.983318  0.001
C  C150  1  0.73999775  0.69391533  0.91950421  1  0.083575  0.000693  -0.085222  -0.097379  0.000149  3.982937  0.001
C  C151  1  0.22557359  0.30606770  0.04606526  1  -0.089195  0.000755  -0.08512  -0.097571  0.000149  3.982896  0.001
C  C152  1  0.08048300  0.77442232  0.82047777  1  -0.060771  0.000744  -0.085039  -0.09766  0.000149  3.982762  0.001
C  C153  1  0.95393164  0.26001249  0.17950312  1  -0.080218  0.000749  -0.085105  -0.097342  0.000148  3.982985  0.001
C  C154  1  0.04606296  0.22558267  0.30606971  1  -0.089424  0.000754  -0.085075  -0.097515  0.000148  3.983192  0.001
C  C155  1  0.91950727  0.74000371  0.69392042  1  0.084462  0.000692  -0.085199  -0.097476  0.000148  3.982647  0.001
C  C156  1  0.28872029  0.28871484  0.09244187  1  -0.067375  0.014893  -0.015238  -0.026293  0.008947  3.964849  0.012
C  C157  1  0.71128982  0.80371637  0.00000462  1  -0.106507  0.014926  -0.015212  -0.026205  0.008949  3.965236  0.012
C  C158  1  0.80373149  0.71126814  0.00000744  1  -0.105541  0.014919  -0.015122  -0.026324  0.008949  3.964704  0.012
C  C159  1  0.19628050  0.19627462  0.90755127  1  -0.101793  0.015051  -0.015278  -0.026303  0.008949  3.964632  0.012
C  C160  1  0.19627384  0.90755442  0.19628127  1  -0.101406  0.01505  -0.015176  -0.026318  0.008948  3.965212  0.012
C  C161  1  0.71125516  0.99998966  0.80371488  1  -0.105589  0.014921  -0.015204  -0.02658  0.00895  3.965095  0.012
C  C162  1  0.80370668  0.99999162  0.71127507  1  -0.106313  0.014924  -0.015212  -0.026274  0.008948  3.965289  0.012
C  C163  1  0.28871933  0.09243736  0.28872936  1  -0.067397  0.014905  -0.015143  -0.026033  0.008953  3.964995  0.012
C  C164  1  0.00000249  0.80372900  0.71126752  1  -0.105766  0.014912  -0.015201  -0.02631  0.008944  3.964576  0.012
C  C165  1  0.90755663  0.19628260  0.19626436  1  -0.100833  0.015052  -0.015156  -0.026416  0.008949  3.964909  0.012
C  C166  1  0.09244772  0.28872714  0.28872503  1  -0.066992  0.014894  -0.015227  -0.026277  0.008948  3.964712  0.012
C  C167  1  0.99998395  0.71126914  0.80370525  1  -0.106503  0.014925  -0.015222  -0.026131  0.008949  3.964751  0.012
C  C168  1  0.44968985  0.69865375  0.77542858  1  0.499094  -0.001929  0.05462  0.093947  -0.00237  3.938638  -0.001
C  C169  1  0.55029571  0.32570756  0.24895705  1  0.485131  -0.001916  0.054518  0.093679  -0.002366  3.939154  -0.001
C  C170  1  0.07677933  0.30134298  0.75104567  1  0.481703  -0.001916  0.05464  0.09319  -0.00237  3.938713  -0.001
C  C171  1  0.92322722  0.67426847  0.22456792  1  0.484116  -0.001925  0.054622  0.093087  -0.002371  3.938439  -0.001
C  C172  1  0.67427974  0.22458197  0.92324925  1  0.484664  -0.001931  0.054477  0.092979  -0.002376  3.938739  -0.001
C  C173  1  0.30134865  0.75104468  0.07678556  1  0.481601  -0.001911  0.054515  0.093351  -0.002366  3.938275  -0.001
C  C174  1  0.32571629  0.24896303  0.55029103  1  0.489194  -0.001926  0.054408  0.093389  -0.002373  3.938769  -0.001
C  C175  1  0.69865338  0.77543277  0.44968914  1  0.499863  -0.001927  0.054672  0.094016  -0.002367  3.938534  -0.001
C  C176  1  0.75104130  0.07676227  0.30133479  1  0.479563  -0.001914  0.054481  0.093152  -0.002369  3.93806  -0.001
C  C177  1  0.22459046  0.92324938  0.67428394  1  0.484917  -0.001929  0.054575  0.09351  -0.002373  3.938927  -0.001
C  C178  1  0.77542726  0.44970064  0.69865601  1  0.502523  -0.001932  0.054579  0.093712  -0.002372  3.939332  -0.001
C  C179  1  0.24895986  0.55029122  0.32572052  1  0.486411  -0.001919  0.054382  0.093671  -0.002369  3.938599  -0.001
C  C180  1  0.44970509  0.77543662  0.69866907  1  0.501935  -0.001932  0.054461  0.093718  -0.002372  3.938949  -0.001
C  C181  1  0.55029768  0.24895051  0.32573521  1  0.485189  -0.001922  0.054637  0.093811  -0.002373  3.938605  -0.001
C  C182  1  0.07676343  0.75104275  0.30133856  1  0.479349  -0.001913  0.054531  0.093126  -0.002368  3.938666  -0.001
C  C183  1  0.92324819  0.22459763  0.67428973  1  0.484247  -0.001925  0.054456  0.092801  -0.00237  3.938372  -0.001
C  C184  1  0.67428211  0.92323560  0.22457047  1  0.484406  -0.001925  0.054575  0.092562  -0.00237  3.939537  -0.001
C  C185  1  0.30135012  0.07677852  0.75103883  1  0.482335  -0.001916  0.054642  0.093773  -0.002368  3.939204  -0.001
C  C186  1  0.32574762  0.55030931  0.24897207  1  0.485345  -0.00192  0.054674  0.093974  -0.002372  3.938881  -0.001
C  C187  1  0.69866497  0.44970801  0.77542820  1  0.502306  -0.001935  0.054532  0.093866  -0.002375  3.938786  -0.001
C  C188  1  0.75105110  0.30134392  0.07677961  1  0.48006  -0.001913  0.054453  0.092957  -0.002369  3.938518  -0.001
C  C189  1  0.22458728  0.67428477  0.92325778  1  0.484594  -0.001927  0.054528  0.090652  -0.002376  3.938917  -0.001
C  C190  1  0.77542247  0.69866391  0.44968498  1  0.501767  -0.001928  0.054515  0.093687  -0.002369  3.938919  -0.001
C  C191  1  0.24895599  0.32573406  0.55029723  1  0.485789  -0.001924  0.054706  0.093821  -0.002375  3.938824  -0.001
C  C192  1  0.33669750  0.33669568  0.19171996  1  1.550353  -0.000917  0.223466  0.586387  -0.001269  4.164199  -0.002
C  C193  1  0.66331094  0.85502224  0.99999863  1  1.559838  -0.000922  0.223603  0.586383  -0.001272  4.164001  -0.002
C  C194  1  0.85503496  0.66329709  0.00001332  1  1.559254  -0.000917  0.223391  0.586273  -0.001271  4.164179  -0.002
C  C195  1  0.14497002  0.14496712  0.80827231  1  1.588976  -0.0011  0.223507  0.586201  -0.001273  4.164258  -0.002
C  C196  1  0.14497032  0.80827934  0.14498263  1  1.589243  -0.001097  0.223405  0.586316  -0.001269  4.164209  -0.002
C  C197  1  0.66327416  0.99998347  0.85500856  1  1.560588  -0.000918  0.223455  0.586435  -0.00127  4.16412  -0.002
C  C198  1  0.85500267  0.99998300  0.66329494  1  1.561249  -0.000919  0.223443  0.586457  -0.001267  4.164249  -0.002
C  C199  1  0.33669033  0.19171568  0.33669646  1  1.550883  -0.000923  0.223471  0.586406  -0.001273  4.164171  -0.002
C  C200  1  0.00000071  0.85502029  0.66328137  1  1.559998  -0.000916  0.223419  0.586208  -0.001267  4.16445  -0.002
C  C201  1  0.80828459  0.14497777  0.14496179  1  1.589961  -0.001103  0.223562  0.586481  -0.00127  4.164099  -0.002
C  C202  1  0.19172642  0.33670753  0.33669435  1  1.550205  -0.000917  0.223578  0.586567  -0.001272  4.163985  -0.002
C  C203  1  0.00000080  0.66330445  0.85501913  1  1.56095  -0.000922  0.223513  0.586408  -0.001271  4.164128  -0.002
N  N204  1  0.46382112  0.77439337  0.77439124  1  -1.153397  0.034751  -0.304599  -0.169761  0.020096  3.512934  0.032
N  N205  1  0.53616888  0.31054855  0.31057114  1  -1.15636  0.034758  -0.304727  -0.169864  0.020101  3.512584  0.032
N  N206  1  0.00001845  0.22562549  0.68944668  1  -1.158291  0.034783  -0.304728  -0.167845  0.020103  3.510398  0.032
N  N207  1  0.99999593  0.68942623  0.22560731  1  -1.156533  0.034783  -0.304684  -0.167878  0.020101  3.510379  0.032
N  N208  1  0.68943917  0.22560848  0.00000754  1  -1.156587  0.034757  -0.304601  -0.167685  0.020086  3.510417  0.032
N  N209  1  0.22561016  0.68944475  0.00001735  1  -1.157521  0.034769  -0.304672  -0.168156  0.020095  3.511409  0.032
N  N210  1  0.31055517  0.31057460  0.53616848  1  -1.156524  0.034723  -0.304716  -0.169606  0.020079  3.512725  0.032
N  N211  1  0.77438947  0.77439555  0.46381329  1  -1.153794  0.034741  -0.304712  -0.169919  0.020091  3.512592  0.032
N  N212  1  0.68943213  0.99999197  0.22559671  1  -1.156699  0.034762  -0.304592  -0.167825  0.020088  3.510545  0.032
N  N213  1  0.22562391  0.00001192  0.68943320  1  -1.157544  0.034762  -0.304673  -0.169659  0.020085  3.512879  0.032
N  N214  1  0.77439255  0.46382466  0.77438581  1  -1.153716  0.034715  -0.304686  -0.169831  0.020076  3.513119  0.032
N  N215  1  0.31058084  0.53617092  0.31056328  1  -1.156197  0.03474  -0.304659  -0.169847  0.020089  3.512709  0.032
O  O216  1  0.40010129  0.40011067  0.40011462  1  -0.824187  -0.081786  -0.46542  -0.772443  -0.087931  2.208091  -0.068
O  O217  1  0.59988365  0.99999750  0.99998778  1  -0.818491  -0.081819  -0.46536  -0.772158  -0.08793  2.208159  -0.068
O  O218  1  0.99997709  0.59987477  0.99998623  1  -0.818528  -0.081822  -0.46539  -0.772355  -0.087937  2.207965  -0.068
O  O219  1  0.00000793  0.99999275  0.59988961  1  -0.818323  -0.081898  -0.465379  -0.772335  -0.088002  2.207843  -0.068
O  O220  1  0.38372474  0.55226516  0.47652984  1  -1.104644  0.057547  -0.288094  -0.521238  0.032006  2.376034  0.053
O  O221  1  0.61620967  0.09274372  0.16849593  1  -1.107225  0.057506  -0.288083  -0.521379  0.031986  2.376142  0.053
O  O222  1  0.92428626  0.44773928  0.83150134  1  -1.101838  0.057526  -0.28796  -0.521265  0.031988  2.375976  0.053
O  O223  1  0.07571754  0.90719655  0.52345178  1  -1.112338  0.057549  -0.288009  -0.521296  0.03202  2.375826  0.053
O  O224  1  0.90722708  0.52345692  0.07574996  1  -1.112818  0.057532  -0.288036  -0.521347  0.032011  2.376363  0.053
O  O225  1  0.44770374  0.83148897  0.92426710  1  -1.102914  0.057519  -0.287943  -0.521087  0.031985  2.375837  0.053
O  O226  1  0.09278345  0.16850669  0.61624257  1  -1.10754  0.057546  -0.288006  -0.521173  0.032009  2.37655  0.053
O  O227  1  0.55225600  0.47653279  0.38372120  1  -1.104404  0.05756  -0.288056  -0.521201  0.032013  2.375651  0.053
O  O228  1  0.83148297  0.92426783  0.44773092  1  -1.102276  0.057539  -0.288036  -0.521258  0.031993  2.37607  0.053
O  O229  1  0.52345212  0.07574728  0.90723868  1  -1.112959  0.057546  -0.288078  -0.521337  0.032018  2.37592  0.053
O  O230  1  0.47652885  0.38373981  0.55226231  1  -1.103035  0.057528  -0.288057  -0.521337  0.031993  2.376063  0.053
O  O231  1  0.16851614  0.61625086  0.09278526  1  -1.106632  0.057551  -0.288036  -0.521215  0.032009  2.37571  0.053
O  O232  1  0.38377515  0.47655139  0.55228285  1  -1.103704  0.057556  -0.287983  -0.521204  0.032012  2.375804  0.053
O  O233  1  0.61625827  0.16851740  0.09279829  1  -1.106951  0.05752  -0.28797  -0.521264  0.031993  2.376199  0.053
O  O234  1  0.92425485  0.83149101  0.44771102  1  -1.103134  0.057586  -0.288034  -0.521305  0.032022  2.37611  0.053
O  O235  1  0.07574831  0.52347732  0.90722646  1  -1.112859  0.0575  -0.288127  -0.52174  0.031993  2.37673  0.053
O  O236  1  0.90722991  0.07572579  0.52344953  1  -1.112802  0.057488  -0.288026  -0.521249  0.031987  2.376253  0.053
O  O237  1  0.44774815  0.92428259  0.83146759  1  -1.102039  0.057581  -0.288054  -0.521197  0.032016  2.376205  0.053
O  O238  1  0.09279785  0.61625042  0.16853266  1  -1.106949  0.057511  -0.288014  -0.521267  0.031987  2.375988  0.053
O  O239  1  0.55227939  0.38378378  0.47654304  1  -1.104074  0.057506  -0.288093  -0.521288  0.031986  2.376188  0.053
O  O240  1  0.83149404  0.44773661  0.92428417  1  -1.101682  0.057584  -0.288069  -0.521342  0.032019  2.375759  0.053
O  O241  1  0.52347106  0.90720048  0.07573013  1  -1.113106  0.057556  -0.288071  -0.521246  0.032022  2.376373  0.053
O  O242  1  0.47654402  0.55228825  0.38377420  1  -1.105563  0.057533  -0.288042  -0.521312  0.032  2.375778  0.053
O  O243  1  0.16850210  0.09275525  0.61619836  1  -1.107105  0.057531  -0.288011  -0.521262  0.032  2.375861  0.053
O  O244  1  0.31750470  0.39271653  0.22934853  1  -1.108811  0.071279  -0.288294  -0.524462  0.039335  2.431197  0.066
O  O245  1  0.68256785  0.91190770  0.07520839  1  -1.112056  0.071186  -0.288507  -0.524539  0.039282  2.431428  0.066
O  O246  1  0.83665445  0.60729465  0.92479417  1  -1.113842  0.071246  -0.288233  -0.52437  0.039315  2.431114  0.066
O  O247  1  0.16337154  0.08815434  0.77064251  1  -1.11097  0.071284  -0.288282  -0.524394  0.03933  2.431189  0.066
O  O248  1  0.08814103  0.77065454  0.16335930  1  -1.111181  0.071267  -0.288315  -0.52449  0.039318  2.431256  0.066
O  O249  1  0.60731827  0.92477331  0.83666472  1  -1.115924  0.071214  -0.288301  -0.52437  0.0393  2.431296  0.066
O  O250  1  0.91181507  0.07518712  0.68247476  1  -1.112891  0.071253  -0.288282  -0.524385  0.039321  2.431606  0.066
O  O251  1  0.39269751  0.22933426  0.31749062  1  -1.109017  0.071311  -0.288366  -0.524507  0.039347  2.431579  0.066
O  O252  1  0.92479573  0.83663031  0.60726323  1  -1.113864  0.071216  -0.288357  -0.524378  0.039299  2.431749  0.066
O  O253  1  0.77065983  0.16330407  0.08807556  1  -1.11196  0.071244  -0.288509  -0.524616  0.039305  2.431048  0.066
O  O254  1  0.22935430  0.31751346  0.39271144  1  -1.108735  0.071232  -0.288387  -0.52455  0.039308  2.431553  0.066
O  O255  1  0.07520837  0.68251789  0.91185521  1  -1.11246  0.071251  -0.288369  -0.52475  0.039318  2.432449  0.066
O  O256  1  0.31746735  0.22934276  0.39268412  1  -1.109066  0.07125  -0.288327  -0.524521  0.039319  2.431182  0.066
O  O257  1  0.68244525  0.07519443  0.91180633  1  -1.112827  0.071276  -0.288289  -0.524386  0.039334  2.431712  0.066
O  O258  1  0.83665365  0.92477529  0.60731770  1  -1.115388  0.071264  -0.288396  -0.524632  0.039326  2.430894  0.066
O  O259  1  0.16333863  0.77065457  0.08813139  1  -1.11128  0.071272  -0.288282  -0.524413  0.03932  2.43123  0.066
O  O260  1  0.08810274  0.16330978  0.77065269  1  -1.111456  0.071219  -0.288425  -0.524366  0.039291  2.431744  0.066
O  O261  1  0.60726826  0.83660029  0.92478913  1  -1.113623  0.07128  -0.28836  -0.524426  0.039332  2.431331  0.066
O  O262  1  0.91186645  0.68250785  0.07521665  1  -1.111961  0.071232  -0.288324  -0.524419  0.039309  2.431895  0.066
O  O263  1  0.39268181  0.31747007  0.22934574  1  -1.108937  0.071193  -0.288342  -0.524442  0.039288  2.431328  0.066
O  O264  1  0.92479174  0.60730235  0.83664659  1  -1.114417  0.071263  -0.288332  -0.524507  0.039322  2.431053  0.066
O  O265  1  0.77065650  0.08818145  0.16337232  1  -1.111311  0.071314  -0.288332  -0.524347  0.039344  2.431614  0.066
O  O266  1  0.22934724  0.39269132  0.31746236  1  -1.109096  0.07124  -0.288327  -0.524487  0.039317  2.431068  0.066
O  O267  1  0.07521412  0.91187346  0.68251065  1  -1.112635  0.071213  -0.288273  -0.524355  0.039298  2.431178  0.066
