# generated using pymatgen
data_Cd3H12C20(S3N7)2
_symmetry_space_group_name_H-M   'P 1'
_cell_length_a   7.01230600
_cell_length_b   8.45095810
_cell_length_c   13.79620661
_cell_angle_alpha   87.02562401
_cell_angle_beta   84.45649737
_cell_angle_gamma   68.44655259
_symmetry_Int_Tables_number   1
_chemical_formula_structural   Cd3H12C20(S3N7)2
_chemical_formula_sum   'Cd3 H12 C20 S6 N14'
_cell_volume   756.72926345
_cell_formula_units_Z   1
loop_
 _symmetry_equiv_pos_site_id
 _symmetry_equiv_pos_as_xyz
  1  'x, y, z'
loop_
 _atom_site_type_symbol
 _atom_site_label
 _atom_site_symmetry_multiplicity
 _atom_site_fract_x
 _atom_site_fract_y
 _atom_site_fract_z
 _atom_site_occupancy
 _atom_site_hle17_bader_spin_density
 _atom_site_hle17_ddec_charge
 _atom_site_hle17_ddec_spin_density
 _atom_site_hle17_ddec_sum_bond_order
 _atom_site_hle17_magmom
 _atom_site_hse06_10hf_bader_spin_density
 _atom_site_hse06_10hf_ddec_charge
 _atom_site_hse06_10hf_ddec_spin_density
 _atom_site_hse06_10hf_ddec_sum_bond_order
 _atom_site_hse06_10hf_magmom
 _atom_site_hse06_bader_spin_density
 _atom_site_hse06_ddec_charge
 _atom_site_hse06_ddec_spin_density
 _atom_site_hse06_ddec_sum_bond_order
 _atom_site_hse06_magmom
 _atom_site_pbe_bader_spin_density
 _atom_site_pbe_cm5_charge
 _atom_site_pbe_ddec_charge
 _atom_site_pbe_ddec_spin_density
 _atom_site_pbe_ddec_sum_bond_order
 _atom_site_pbe_magmom
Cd  Cd0  1  0.50000539  0.00000542  0.99999806  1  0  0.941178  0  2.008707  0  0  0.767384  0  2.468989  0  0  0.811495  0  2.432824  0  0  0.714836  0.736682  0  2.49314  0
Cd  Cd1  1  0.35863657  0.46705942  0.31604178  1  0  0.963498  0  2.013604  0  0  0.783445  0  2.489289  0  0  0.829017  0  2.449655  0  0  0.730468  0.751618  0  2.51605  0
Cd  Cd2  1  0.64136550  0.53294081  0.68395651  1  0  0.963459  0  2.013662  0  0  0.783383  0  2.489377  0  0  0.828959  0  2.449739  0  0  0.730413  0.751558  0  2.516123  0
H  H3  1  0.07619652  0.62926935  0.55157463  1  0  0.108808  0  0.92526  0  0  0.118035  0  0.985641  0  0  0.119847  0  0.984195  0  0  0.125556  0.116716  0  0.986639  0
H  H4  1  0.92379124  0.37072439  0.44842668  1  0  0.10883  0  0.925224  0  0  0.118099  0  0.985565  0  0  0.119912  0  0.984115  0  0  0.125563  0.116783  0  0.986557  0
H  H5  1  0.78201585  0.95380684  0.55864112  1  0  0.129973  0  0.974949  0  0  0.134957  0  1.039118  0  0  0.137729  0  1.039992  0  0  0.103685  0.132981  0  1.038664  0
H  H6  1  0.21797735  0.04618438  0.44136000  1  0  0.130065  0  0.974764  0  0  0.135011  0  1.038969  0  0  0.137783  0  1.039845  0  0  0.103738  0.133041  0  1.038501  0
H  H7  1  0.70432562  0.03566399  0.36823035  1  0  0.120842  0  0.951266  0  0  0.129797  0  1.015442  0  0  0.132255  0  1.012925  0  0  0.12649  0.128023  0  1.01719  0
H  H8  1  0.29566927  0.96432977  0.63177280  1  0  0.120799  0  0.951301  0  0  0.129819  0  1.015386  0  0  0.132279  0  1.012871  0  0  0.126489  0.128044  0  1.017138  0
H  H9  1  0.24862732  0.51798487  0.07451628  1  0  0.097917  0  0.950819  0  0  0.105013  0  1.01345  0  0  0.106603  0  1.013468  0  0  0.119948  0.103811  0  1.01359  0
H  H10  1  0.75136301  0.48200633  0.92548571  1  0  0.09796  0  0.95069  0  0  0.105062  0  1.01335  0  0  0.106654  0  1.013365  0  0  0.119976  0.103861  0  1.013489  0
H  H11  1  0.95925370  0.70024282  0.97408176  1  0  0.085879  0  0.971806  0  0  0.087397  0  1.047524  0  0  0.089714  0  1.047259  0  0  0.108917  0.085715  0  1.047861  0
H  H12  1  0.04074522  0.29975484  0.02591747  1  0  0.085866  0  0.971867  0  0  0.087373  0  1.047585  0  0  0.089699  0  1.047289  0  0  0.108906  0.085688  0  1.047922  0
H  H13  1  0.63913263  0.95987041  0.22257051  1  0  0.103449  0  0.959667  0  0  0.108334  0  1.028059  0  0  0.110548  0  1.02712  0  0  0.118993  0.106615  0  1.02904  0
H  H14  1  0.36087314  0.04013748  0.77742958  1  0  0.103484  0  0.959737  0  0  0.108349  0  1.028136  0  0  0.110563  0  1.027198  0  0  0.119024  0.106632  0  1.029116  0
C  C15  1  0.00138462  0.71021227  0.49215751  1  0  0.107131  0  3.664151  0  0  0.064492  0  3.937995  0  0  0.074128  0  3.95193  0  0  0.041171  0.058451  0  3.92818  0
C  C16  1  0.99861484  0.28977769  0.50784626  1  0  0.107057  0  3.664144  0  0  0.064374  0  3.938  0  0  0.07401  0  3.951939  0  0  0.041129  0.058329  0  3.928188  0
C  C17  1  0.85126562  0.87658428  0.49514499  1  0  -0.167092  0  3.718349  0  0  -0.178575  0  3.977228  0  0  -0.188821  0  3.998974  0  0  -0.098493  -0.171909  0  3.962456  0
C  C18  1  0.14872897  0.12341329  0.50486097  1  0  -0.167081  0  3.718387  0  0  -0.178508  0  3.977286  0  0  -0.188755  0  3.999034  0  0  -0.098489  -0.171841  0  3.962507  0
C  C19  1  0.80906130  0.92001444  0.39975542  1  0  0.028726  0  3.618238  0  0  -0.022111  0  3.881273  0  0  -0.012514  0  3.894932  0  0  0.027523  -0.0281  0  3.871773  0
C  C20  1  0.19093618  0.07998320  0.60024460  1  0  0.028689  0  3.618567  0  0  -0.022206  0  3.881601  0  0  -0.01261  0  3.895263  0  0  0.027479  -0.028204  0  3.872109  0
C  C21  1  0.93946079  0.76298718  0.24423061  1  0  0.295721  0  3.776066  0  0  0.265781  0  4.040913  0  0  0.277993  0  4.055703  0  0  0.240529  0.257314  0  4.031258  0
C  C22  1  0.06053810  0.23701042  0.75577371  1  0  0.29597  0  3.77579  0  0  0.265912  0  4.040812  0  0  0.278124  0  4.055597  0  0  0.240555  0.257445  0  4.031156  0
C  C23  1  0.11270223  0.61749271  0.10733577  1  0  0.115105  0  3.657662  0  0  0.087718  0  3.909312  0  0  0.091381  0  3.927229  0  0  0.06107  0.085114  0  3.897499  0
C  C24  1  0.88729267  0.38250744  0.89266648  1  0  0.115087  0  3.657532  0  0  0.087669  0  3.909177  0  0  0.09133  0  3.927089  0  0  0.061028  0.085065  0  3.897362  0
C  C25  1  0.95345012  0.71637286  0.05232233  1  0  0.062072  0  3.677895  0  0  0.031736  0  3.934367  0  0  0.032725  0  3.953082  0  0  0.045135  0.030753  0  3.922112  0
C  C26  1  0.04654821  0.28362605  0.94767907  1  0  0.062075  0  3.678074  0  0  0.031766  0  3.934557  0  0  0.032762  0  3.953274  0  0  0.045156  0.030782  0  3.922301  0
C  C27  1  0.50967782  0.29924504  0.53382785  1  0  0.318901  0  3.994012  0  0  0.299001  0  4.289592  0  0  0.32151  0  4.305582  0  0  0.154136  0.283602  0  4.278399  0
C  C28  1  0.49031057  0.70076025  0.46616586  1  0  0.318815  0  3.994171  0  0  0.298905  0  4.289764  0  0  0.321414  0  4.30575  0  0  0.154041  0.283515  0  4.278558  0
C  C29  1  0.24394685  0.15191443  0.21933654  1  0  0.302573  0  4.009261  0  0  0.283005  0  4.311006  0  0  0.305458  0  4.323876  0  0  0.144775  0.267681  0  4.302059  0
C  C30  1  0.75606581  0.84808461  0.78065912  1  0  0.302654  0  4.009149  0  0  0.283098  0  4.310878  0  0  0.305551  0  4.323744  0  0  0.144813  0.267771  0  4.301927  0
C  C31  1  0.60729476  0.30434703  0.10460227  1  0  0.302363  0  4.007359  0  0  0.282713  0  4.30933  0  0  0.304298  0  4.324312  0  0  0.144792  0.268067  0  4.298762  0
C  C32  1  0.39271953  0.69566086  0.89540395  1  0  0.30267  0  4.007417  0  0  0.283021  0  4.309358  0  0  0.304605  0  4.32433  0  0  0.144965  0.268369  0  4.298806  0
C  C33  1  0.77693572  0.86286768  0.18950349  1  0  0.020649  0  3.652413  0  0  -0.015965  0  3.913179  0  0  -0.014153  0  3.92842  0  0  0.058536  -0.017567  0  3.903411  0
C  C34  1  0.22307377  0.13713514  0.81049512  1  0  0.020692  0  3.652139  0  0  -0.015855  0  3.912911  0  0  -0.014042  0  3.928147  0  0  0.05856  -0.01746  0  3.903147  0
S  S35  1  0.68596326  0.40089371  0.18246091  1  0  -0.328091  0  2.142283  0  0  -0.294414  0  2.459034  0  0  -0.312353  0  2.454924  0  0  -0.148762  -0.281836  0  2.461525  0
S  S36  1  0.31404421  0.59911673  0.81754120  1  0  -0.328174  0  2.142224  0  0  -0.294525  0  2.459016  0  0  -0.312461  0  2.454901  0  0  -0.148805  -0.281941  0  2.461506  0
S  S37  1  0.22015876  0.00780593  0.15224630  1  0  -0.322866  0  2.187456  0  0  -0.294313  0  2.521828  0  0  -0.311678  0  2.51713  0  0  -0.149709  -0.281992  0  2.524705  0
S  S38  1  0.77985420  0.99219568  0.84774710  1  0  -0.322857  0  2.187362  0  0  -0.294307  0  2.521712  0  0  -0.311669  0  2.517015  0  0  -0.14968  -0.281991  0  2.524606  0
S  S39  1  0.53020900  0.26068667  0.65001336  1  0  -0.341848  0  2.244866  0  0  -0.31538  0  2.588055  0  0  -0.334315  0  2.585028  0  0  -0.140231  -0.301798  0  2.589904  0
S  S40  1  0.46976569  0.73933002  0.34997994  1  0  -0.341825  0  2.244787  0  0  -0.315387  0  2.588052  0  0  -0.334323  0  2.585021  0  0  -0.140216  -0.301812  0  2.589904  0
N  N41  1  0.50075238  0.32114999  0.44872550  1  0  -0.542422  0  2.900908  0  0  -0.478966  0  3.175789  0  0  -0.502454  0  3.183308  0  0  -0.398119  -0.462771  0  3.170379  0
N  N42  1  0.49925888  0.67884909  0.55126515  1  0  -0.54237  0  2.901089  0  0  -0.478886  0  3.175908  0  0  -0.502374  0  3.183428  0  0  -0.398018  -0.462696  0  3.170492  0
N  N43  1  0.54660526  0.23926019  0.04671065  1  0  -0.53965  0  2.868537  0  0  -0.484894  0  3.142236  0  0  -0.50574  0  3.149293  0  0  -0.400754  -0.470556  0  3.137154  0
N  N44  1  0.45339935  0.76074384  0.95329177  1  0  -0.539868  0  2.86865  0  0  -0.485129  0  3.142379  0  0  -0.505972  0  3.149433  0  0  -0.400883  -0.470795  0  3.137312  0
N  N45  1  0.26307954  0.25343583  0.26952426  1  0  -0.524998  0  2.8806  0  0  -0.466689  0  3.156116  0  0  -0.48771  0  3.162061  0  0  -0.393727  -0.45234  0  3.151944  0
N  N46  1  0.73693425  0.74656065  0.73047359  1  0  -0.525082  0  2.880551  0  0  -0.466785  0  3.15608  0  0  -0.487806  0  3.16202  0  0  -0.393782  -0.452434  0  3.151902  0
N  N47  1  0.10478899  0.64092870  0.20317613  1  0  -0.328885  0  3.197296  0  0  -0.270026  0  3.461202  0  0  -0.284312  0  3.475831  0  0  -0.299949  -0.260161  0  3.451221  0
N  N48  1  0.89521165  0.35906513  0.79682313  1  0  -0.32895  0  3.197357  0  0  -0.270038  0  3.461283  0  0  -0.28433  0  3.475928  0  0  -0.299912  -0.260172  0  3.451297  0
N  N49  1  0.04970635  0.65390450  0.40106136  1  0  -0.285631  0  3.085061  0  0  -0.24066  0  3.365051  0  0  -0.254702  0  3.383118  0  0  -0.244843  -0.231124  0  3.352676  0
N  N50  1  0.95029512  0.34609060  0.59894000  1  0  -0.285638  0  3.085062  0  0  -0.240687  0  3.365076  0  0  -0.254728  0  3.383142  0  0  -0.244868  -0.231152  0  3.3527  0
N  N51  1  0.93211228  0.78399644  0.34440065  1  0  -0.006269  0  3.629756  0  0  0.072997  0  3.84705  0  0  0.05887  0  3.875739  0  0  -0.13325  0.082303  0  3.827716  0
N  N52  1  0.06788604  0.21599607  0.65560165  1  0  -0.006391  0  3.629768  0  0  0.072932  0  3.847064  0  0  0.058803  0  3.875754  0  0  -0.133228  0.082247  0  3.827727  0
N  N53  1  0.78648088  0.83754982  0.09433551  1  0  -0.246419  0  3.267216  0  0  -0.17606  0  3.523586  0  0  -0.189023  0  3.543368  0  0  -0.301302  -0.166888  0  3.510071  0
N  N54  1  0.21352315  0.16245548  0.90566836  1  0  -0.246547  0  3.2673  0  0  -0.17621  0  3.523663  0  0  -0.189176  0  3.543443  0  0  -0.301376  -0.167033  0  3.510141  0
