# generated using pymatgen
data_CuH17C18N2ClO3
_symmetry_space_group_name_H-M   'P 1'
_cell_length_a   7.73518928
_cell_length_b   11.39159500
_cell_length_c   11.39143812
_cell_angle_alpha   112.44841044
_cell_angle_beta   103.58108128
_cell_angle_gamma   103.57914202
_symmetry_Int_Tables_number   1
_chemical_formula_structural   CuH17C18N2ClO3
_chemical_formula_sum   'Cu2 H34 C36 N4 Cl2 O6'
_cell_volume   840.90349158
_cell_formula_units_Z   2
loop_
 _symmetry_equiv_pos_site_id
 _symmetry_equiv_pos_as_xyz
  1  'x, y, z'
loop_
 _atom_site_type_symbol
 _atom_site_label
 _atom_site_symmetry_multiplicity
 _atom_site_fract_x
 _atom_site_fract_y
 _atom_site_fract_z
 _atom_site_occupancy
 _atom_site_hle17_ddec_charge
 _atom_site_hle17_ddec_spin_density
 _atom_site_hle17_ddec_sum_bond_order
 _atom_site_hle17_magmom
 _atom_site_hse06_10hf_ddec_charge
 _atom_site_hse06_10hf_ddec_spin_density
 _atom_site_hse06_10hf_ddec_sum_bond_order
 _atom_site_hse06_10hf_magmom
 _atom_site_hse06_ddec_charge
 _atom_site_hse06_ddec_spin_density
 _atom_site_hse06_ddec_sum_bond_order
 _atom_site_hse06_magmom
 _atom_site_pbe_cm5_charge
 _atom_site_pbe_ddec_charge
 _atom_site_pbe_ddec_spin_density
 _atom_site_pbe_ddec_sum_bond_order
 _atom_site_pbe_magmom
Cu  Cu0  1  0.50222392  0.84985770  0.89790719  1  0.770346  -0.697812  1.944383  -0.479  0.73991  -0.779228  2.36245  -0.587  0.828364  -0.858102  2.287656  -0.67  0.660427  0.689399  -0.725598  2.411769  -0.535
Cu  Cu1  1  0.00222643  0.89790202  0.84986393  1  0.770312  0.697807  1.944481  0.479  0.74002  0.779243  2.362459  0.587  0.828328  0.858089  2.287741  0.67  0.660432  0.689479  0.725607  2.411771  0.535
H  H2  1  0.84310297  0.95624098  0.16516390  1  0.087124  -0.001008  0.958403  -0.002  0.095945  -0.000998  1.02013  -0.002  0.097688  -0.000723  1.018509  -0.001  0.111842  0.094467  -0.001225  1.021407  -0.002
H  H3  1  0.34311307  0.16514555  0.95623000  1  0.087057  0.001006  0.958296  0.002  0.095949  0.000998  1.019978  0.002  0.097693  0.000723  1.018356  0.001  0.111878  0.094471  0.001225  1.021263  0.002
H  H4  1  0.91710633  0.87733370  0.34421733  1  0.106237  -0.000583  0.965295  -0.001  0.115426  -0.000606  1.026655  -0.001  0.117231  -0.000443  1.02883  0.0  0.106921  0.114077  -0.000733  1.02542  -0.001
H  H5  1  0.41711167  0.34418294  0.87731172  1  0.10615  0.000584  0.96533  0.001  0.115324  0.000606  1.026724  0.001  0.117126  0.000443  1.028903  0.0  0.106854  0.113972  0.000733  1.025496  0.001
H  H6  1  0.68107802  0.66387798  0.31158958  1  0.111341  -0.000161  0.961814  0.0  0.122662  0.000101  1.019476  0.0  0.125937  8.9e-05  1.015771  0.0  0.111533  0.120176  9.7e-05  1.022394  0.0
H  H7  1  0.18107363  0.31155588  0.66384830  1  0.111315  0.000162  0.961834  0.0  0.12262  -0.000101  1.019519  0.0  0.125895  -8.9e-05  1.015814  0.0  0.111554  0.120132  -9.7e-05  1.022433  0.0
H  H8  1  0.37781822  0.54131256  0.10630571  1  0.107648  -0.000566  0.944719  0.0  0.122143  -0.000638  0.997879  -0.001  0.124545  -0.000455  0.998476  0.0  0.111293  0.120319  -0.000788  0.99782  -0.001
H  H9  1  0.87779636  0.10628884  0.54130401  1  0.107695  0.000564  0.944698  0.0  0.122141  0.000637  0.997916  0.001  0.124543  0.000454  0.998513  0.0  0.11132  0.120316  0.000788  0.997853  0.001
H  H10  1  0.22427057  0.51117333  0.86241326  1  0.084294  -0.003256  0.928107  -0.004  0.10364  -0.002051  0.987878  -0.002  0.102933  -0.001476  0.98907  -0.002  0.112521  0.10416  -0.002412  0.987021  -0.002
H  H11  1  0.72423515  0.86241661  0.51117496  1  0.084256  0.00326  0.928067  0.004  0.103593  0.002051  0.987816  0.002  0.102885  0.001476  0.989013  0.002  0.112461  0.10411  0.002413  0.986965  0.002
H  H12  1  0.16002150  0.65151141  0.94663945  1  0.101298  -4e-05  0.935019  0.0  0.118476  -7e-06  0.997157  0.0  0.118901  -5.7e-05  0.997147  0.0  0.116511  0.118518  5e-05  0.996543  0.0
H  H13  1  0.66001668  0.94664896  0.65152902  1  0.10129  3.9e-05  0.934885  0.0  0.118467  7e-06  0.996985  0.0  0.118916  5.7e-05  0.99695  0.0  0.11651  0.118514  -5e-05  0.996372  0.0
H  H14  1  0.06329626  0.51341158  0.66407296  1  0.072684  -0.008978  0.936533  -0.011  0.082029  -0.006072  1.004236  -0.007  0.082938  -0.004499  1.000243  -0.006  0.118771  0.081137  -0.00722  1.00714  -0.009
H  H15  1  0.56328882  0.66407585  0.51340937  1  0.072667  0.00898  0.936475  0.011  0.082044  0.006071  1.004129  0.007  0.082953  0.004499  1.000135  0.006  0.118769  0.081151  0.00722  1.007043  0.009
H  H16  1  0.34426603  0.03836593  0.66579404  1  0.09099  -0.000171  0.985714  0.0  0.099753  -0.000188  1.051304  0.0  0.102019  -0.000121  1.051299  0.0  0.096921  0.098171  -0.000239  1.051328  0.0
H  H17  1  0.84425965  0.66580083  0.03837447  1  0.09096  0.000171  0.98568  0.0  0.099705  0.000188  1.051301  0.0  0.10197  0.000121  1.051294  0.0  0.09688  0.098117  0.000239  1.051321  0.0
H  H18  1  0.35125270  0.14070073  0.50889271  1  0.097567  -5.6e-05  0.97325  0.0  0.105025  -2.7e-05  1.039297  0.0  0.107896  -2.2e-05  1.038589  0.0  0.096866  0.102827  -3.3e-05  1.040106  0.0
H  H19  1  0.85126821  0.50890840  0.14071687  1  0.097737  5.6e-05  0.973116  0.0  0.105159  2.7e-05  1.039179  0.0  0.108034  2.2e-05  1.038463  0.0  0.096901  0.102962  3.3e-05  1.039996  0.0
H  H20  1  0.28861404  0.99009458  0.26209515  1  0.09121  0.000229  0.990033  0.0  0.100641  0.000229  1.055054  0.0  0.104007  0.000168  1.052416  0.0  0.086847  0.098506  0.000268  1.056341  0.0
H  H21  1  0.78868141  0.26212141  0.99012160  1  0.091177  -0.000228  0.989962  0.0  0.100584  -0.00023  1.055028  0.0  0.103913  -0.000168  1.052425  0.0  0.08685  0.098453  -0.000268  1.056317  0.0
H  H22  1  0.22043495  0.74457492  0.18079743  1  0.083887  -0.000131  0.975875  0.0  0.094334  -0.0001  1.037997  0.0  0.096531  -7.1e-05  1.03818  0.0  0.095112  0.093008  -0.000128  1.037611  0.0
H  H23  1  0.72050959  0.18082588  0.74459883  1  0.083948  0.000133  0.976006  0.0  0.094445  0.0001  1.03801  0.0  0.096639  7.1e-05  1.038203  0.0  0.095206  0.093126  0.000127  1.037617  0.0
H  H24  1  0.21188903  0.64288576  0.33716540  1  0.083066  7.3e-05  0.969019  0.0  0.093382  6.4e-05  1.033191  0.0  0.095673  5.7e-05  1.032169  0.0  0.097542  0.091744  6.6e-05  1.033912  0.0
H  H25  1  0.71193288  0.33717895  0.64289396  1  0.083048  -7.2e-05  0.969052  0.0  0.093351  -6.5e-05  1.033267  0.0  0.09566  -5.7e-05  1.032217  0.0  0.09754  0.09171  -6.6e-05  1.033984  0.0
H  H26  1  0.80919796  0.31748111  0.22874473  1  0.052869  2.1e-05  0.923489  0.0  0.070848  3e-06  0.983152  0.0  0.070227  5e-06  0.983529  0.0  0.101547  0.071273  3e-06  0.982769  0.0
H  H27  1  0.30919682  0.22873836  0.31746325  1  0.052821  -2.1e-05  0.923458  0.0  0.070808  -3e-06  0.983117  0.0  0.070187  -4e-06  0.983493  0.0  0.101523  0.071234  -3e-06  0.982728  0.0
H  H28  1  0.65735736  0.37593798  0.31418942  1  0.056818  -2.6e-05  0.95155  0.0  0.067884  -2.2e-05  1.019138  0.0  0.068912  -1.5e-05  1.017723  0.0  0.100379  0.067079  -2.3e-05  1.020263  0.0
H  H29  1  0.15736392  0.31419466  0.37593485  1  0.056836  2.7e-05  0.951579  0.0  0.067921  2.2e-05  1.019139  0.0  0.068946  1.5e-05  1.017724  0.0  0.100378  0.067116  2.3e-05  1.020266  0.0
H  H30  1  0.83496687  0.16755104  0.34301390  1  0.098924  1e-06  0.953175  0.0  0.120604  2.8e-05  1.015078  0.0  0.122005  1.7e-05  1.01481  0.0  0.087361  0.119597  3.6e-05  1.015305  0.0
H  H31  1  0.33494630  0.34301555  0.16753580  1  0.098824  -1e-06  0.953485  0.0  0.120546  -2.8e-05  1.015314  0.0  0.121943  -1.7e-05  1.01505  0.0  0.087381  0.11954  -3.6e-05  1.015538  0.0
H  H32  1  0.59615413  0.12412598  0.23878997  1  0.120261  0.001243  0.977422  0.0  0.141191  0.001118  1.039595  0.0  0.142014  0.00088  1.040831  0.0  0.083971  0.140393  0.001287  1.039045  0.0
H  H33  1  0.09614259  0.23880352  0.12411501  1  0.120182  -0.001242  0.977477  0.0  0.141101  -0.001118  1.039675  0.0  0.141914  -0.000879  1.040923  0.0  0.083903  0.140311  -0.001287  1.039115  0.0
H  H34  1  0.67062183  0.21854801  0.41922476  1  0.094602  -3.4e-05  0.957407  0.0  0.114792  6e-06  1.023059  0.0  0.116251  -1e-06  1.022762  0.0  0.083748  0.113802  9e-06  1.023186  0.0
H  H35  1  0.17061747  0.41923299  0.21854425  1  0.094612  3.4e-05  0.957289  0.0  0.114783  -6e-06  1.022981  0.0  0.116241  1e-06  1.022682  0.0  0.083768  0.113796  -9e-06  1.023107  0.0
C  C36  1  0.74414512  0.86725881  0.16019728  1  0.136428  0.006744  3.688516  0.008  0.108636  0.000757  3.938456  0.002  0.117912  0.001733  3.958034  0.003  0.050373  0.102773  4e-05  3.92599  0.001
C  C37  1  0.24414838  0.16018611  0.86725264  1  0.136729  -0.006752  3.68818  -0.008  0.108848  -0.000754  3.938138  -0.002  0.118119  -0.001732  3.957704  -0.003  0.050362  0.102983  -3.9e-05  3.925683  -0.001
C  C38  1  0.78263965  0.82242910  0.25773695  1  -0.12615  -0.009147  3.717673  -0.009  -0.137976  -0.004084  3.967283  -0.005  -0.145836  -0.003852  3.987889  -0.004  -0.083706  -0.133171  -0.004156  3.953807  -0.005
C  C39  1  0.28263343  0.25771579  0.82241781  1  -0.12617  0.009156  3.717937  0.009  -0.137938  0.004082  3.967528  0.005  -0.145799  0.003851  3.988135  0.004  -0.083566  -0.133135  0.004155  3.954054  0.005
C  C40  1  0.65010997  0.70404277  0.23965517  1  0.009172  0.008512  3.707399  0.008  -0.012663  0.003022  3.95899  0.003  -0.00591  0.003208  3.973015  0.003  -0.062681  -0.017108  0.002893  3.949924  0.003
C  C41  1  0.15009760  0.23964215  0.70403534  1  0.009151  -0.008528  3.707552  -0.008  -0.012698  -0.003023  3.959135  -0.003  -0.005942  -0.003209  3.973156  -0.003  -0.062767  -0.017139  -0.002893  3.950067  -0.003
C  C42  1  0.48387487  0.63484947  0.12490180  1  -0.165844  -0.008758  3.723143  -0.009  -0.181343  -0.003567  3.968903  -0.004  -0.190204  -0.003413  3.989108  -0.004  -0.081422  -0.175649  -0.003612  3.955719  -0.004
C  C43  1  0.98386438  0.12489444  0.63484435  1  -0.165798  0.008777  3.723056  0.009  -0.181263  0.003567  3.968829  0.004  -0.190126  0.003412  3.989035  0.004  -0.081435  -0.175567  0.003612  3.955648  0.004
C  C44  1  0.45268865  0.68631470  0.03197144  1  0.247817  0.006376  3.709109  0.007  0.248516  0.000627  3.957174  0.001  0.25957  0.001721  3.976156  0.003  0.124785  0.241379  -0.00026  3.944556  0.0
C  C45  1  0.95268320  0.03196919  0.68631751  1  0.247682  -0.006389  3.709302  -0.007  0.248394  -0.000627  3.9573  -0.001  0.259441  -0.001722  3.976285  -0.003  0.124745  0.241254  0.000259  3.944686  0.0
C  C46  1  0.27239689  0.62312655  0.91084816  1  -0.060104  -0.00382  3.710749  -0.002  -0.121132  -0.003856  3.966557  -0.003  -0.117092  -0.002467  3.98003  -0.001  -0.061302  -0.123422  -0.004849  3.957231  -0.004
C  C47  1  0.77238726  0.91085315  0.62313499  1  -0.060023  0.003818  3.710458  0.002  -0.121005  0.003857  3.966206  0.003  -0.116978  0.002469  3.97965  0.001  -0.061196  -0.123295  0.004849  3.956883  0.004
C  C48  1  0.17188563  0.61082476  0.69245416  1  0.198074  0.016  3.737946  0.017  0.149465  0.003141  4.013244  0.005  0.173966  0.004374  4.025519  0.006  0.063688  0.133512  0.002152  4.005409  0.004
C  C49  1  0.67187922  0.69245088  0.61082462  1  0.198161  -0.016002  3.737803  -0.017  0.149536  -0.003139  4.013063  -0.005  0.174036  -0.004373  4.025335  -0.006  0.063747  0.133577  -0.002153  4.005233  -0.004
C  C50  1  0.15409281  0.65452992  0.59002630  1  -0.331846  -0.00801  3.767762  -0.01  -0.329137  -0.002796  4.049048  -0.004  -0.357842  -0.001589  4.072188  -0.003  -0.068702  -0.310424  -0.003819  4.033454  -0.005
C  C51  1  0.65410000  0.59002575  0.65452854  1  -0.331953  0.008012  3.767656  0.01  -0.329191  0.002791  4.048974  0.004  -0.357902  0.001591  4.072128  0.003  -0.068692  -0.310478  0.003818  4.033379  0.005
C  C52  1  0.27714122  0.78303086  0.61577777  1  0.391662  0.008141  3.729132  0.011  0.365617  0.000819  4.002357  0.003  0.396674  0.001575  4.008427  0.003  0.1293  0.345009  0.000112  3.997748  0.003
C  C53  1  0.77715471  0.61578017  0.78303931  1  0.391789  -0.008145  3.729048  -0.011  0.36566  -0.000817  4.002351  -0.003  0.396719  -0.001574  4.008413  -0.003  0.129203  0.345049  -0.000113  3.997736  -0.003
C  C54  1  0.27139949  0.83367679  0.51209253  1  -0.021744  -0.012892  3.749669  -0.014  -0.000195  -0.006991  3.978335  -0.008  -0.006919  -0.004865  3.999328  -0.006  -0.019312  0.004158  -0.008811  3.963933  -0.01
C  C55  1  0.77141919  0.51210317  0.83368256  1  -0.021895  0.012906  3.750068  0.014  -0.000295  0.006985  3.978693  0.008  -0.007042  0.004867  3.999714  0.006  -0.019284  0.004062  0.008807  3.964286  0.01
C  C56  1  0.31474922  0.97429516  0.55873090  1  -0.088186  -0.000215  3.740418  0.0  -0.11165  -0.00021  3.986336  0.0  -0.11063  0.00011  4.006028  0.0  -0.092266  -0.112121  -0.000424  3.97272  0.0
C  C57  1  0.81475095  0.55874153  0.97429941  1  -0.087962  0.000196  3.739994  0.0  -0.111411  0.000212  3.985895  0.0  -0.110382  -0.000111  4.005583  0.0  -0.092123  -0.111876  0.000424  3.972267  0.0
C  C58  1  0.32120021  0.03154005  0.47055635  1  -0.096717  0.000148  3.778655  0.0  -0.105729  2.3e-05  4.027384  0.0  -0.10989  -6.2e-05  4.049847  0.0  -0.099004  -0.102791  2.2e-05  4.01225  0.0
C  C59  1  0.82122768  0.47057571  0.03155607  1  -0.097022  -0.000126  3.778378  0.0  -0.106008  -2.2e-05  4.0271  0.0  -0.110172  6.2e-05  4.049551  0.0  -0.099182  -0.103078  -2.2e-05  4.011973  0.0
C  C60  1  0.28663142  0.94847536  0.33383983  1  -0.062509  -0.000525  3.751969  0.0  -0.07792  -0.000103  3.995754  0.0  -0.078631  0.000162  4.016562  0.0  -0.093776  -0.077376  -0.000285  3.981385  0.0
C  C61  1  0.78667464  0.33386259  0.94849827  1  -0.062351  0.0005  3.752005  0.0  -0.077745  0.000102  3.995828  0.0  -0.078421  -0.000162  4.016652  0.0  -0.093669  -0.077205  0.000285  3.981469  0.0
C  C62  1  0.24752399  0.80898001  0.28736170  1  -0.075319  -0.001273  3.770018  -0.001  -0.08648  -0.000424  4.019112  0.0  -0.090281  -0.000339  4.042592  0.0  -0.094426  -0.084183  -0.000547  4.003455  -0.001
C  C63  1  0.74759656  0.28738441  0.80900299  1  -0.075375  0.001291  3.770385  0.001  -0.086542  0.000424  4.019439  0.0  -0.090346  0.000339  4.042909  0.0  -0.094521  -0.084251  0.000547  4.00379  0.001
C  C64  1  0.24068351  0.75155637  0.37525910  1  -0.080904  0.000285  3.743733  0.0  -0.103189  -0.000492  3.990188  -0.001  -0.103014  -0.000137  4.010998  0.0  -0.088472  -0.102917  -0.00082  3.976131  -0.001
C  C65  1  0.74072609  0.37527186  0.75157027  1  -0.080921  -0.000308  3.744045  0.0  -0.103226  0.000493  3.99053  0.001  -0.103051  0.000135  4.011317  0.0  -0.088482  -0.102949  0.00082  3.97647  0.001
C  C66  1  0.98946992  0.56431520  0.46237851  1  0.599005  0.001371  3.849388  0.002  0.547654  0.000321  4.1506  0.0  0.582704  0.000361  4.145128  0.0  0.219893  0.523838  0.000254  4.15372  0.0
C  C67  1  0.48947895  0.46237908  0.56431319  1  0.599074  -0.001371  3.849296  -0.002  0.547654  -0.000316  4.150587  0.0  0.582708  -0.000362  4.145107  0.0  0.219874  0.523843  -0.000254  4.153711  0.0
C  C68  1  0.77072675  0.33349138  0.31919149  1  0.15259  -9e-06  3.59993  0.0  0.094979  8e-06  3.872971  0.0  0.104431  -3e-06  3.877958  0.0  -0.071481  0.088535  6e-06  3.869457  0.0
C  C69  1  0.27072794  0.31919077  0.33348563  1  0.152664  7e-06  3.599825  0.0  0.095055  -9e-06  3.872805  0.0  0.104517  2e-06  3.877772  0.0  -0.071423  0.088611  -6e-06  3.869292  0.0
C  C70  1  0.71527863  0.20364724  0.33146353  1  -0.32426  0.001265  3.7112  0.001  -0.403801  0.001199  3.960183  0.001  -0.406881  0.000916  3.969081  0.001  -0.252259  -0.401469  0.00141  3.954096  0.002
C  C71  1  0.21527469  0.33146698  0.20363775  1  -0.324142  -0.001266  3.711416  -0.001  -0.4037  -0.001198  3.960398  -0.001  -0.406768  -0.000917  3.969301  -0.001  -0.252266  -0.401386  -0.001409  3.954323  -0.002
N  N72  1  0.58171298  0.80051364  0.05007736  1  -0.332142  -0.081529  3.303155  -0.099  -0.283033  -0.061725  3.586745  -0.08  -0.315434  -0.052751  3.608628  -0.072  -0.341362  -0.264404  -0.066291  3.574471  -0.083
N  N73  1  0.08171230  0.05006647  0.80051478  1  -0.332181  0.081528  3.302958  0.099  -0.283132  0.061714  3.586642  0.08  -0.315499  0.052748  3.608505  0.072  -0.341363  -0.264496  0.066281  3.574357  0.083
N  N74  1  0.29699976  0.67583521  0.81579552  1  -0.331773  -0.110414  3.311091  -0.133  -0.284368  -0.072828  3.633442  -0.093  -0.323638  -0.062033  3.654588  -0.083  -0.394593  -0.261761  -0.078227  3.621987  -0.097
N  N75  1  0.79699097  0.81579329  0.67583915  1  -0.331892  0.110435  3.310998  0.133  -0.284537  0.072832  3.633357  0.093  -0.323777  0.062044  3.654475  0.084  -0.394677  -0.261926  0.078237  3.621896  0.097
Cl  Cl76  1  0.77549076  0.02848895  0.97847879  1  -0.547767  -0.089957  1.003476  -0.099  -0.536374  -0.058391  1.302301  -0.067  -0.562377  -0.047288  1.271405  -0.056  -0.300741  -0.520143  -0.064569  1.32398  -0.072
Cl  Cl77  1  0.27549965  0.97847271  0.02849273  1  -0.547765  0.089956  1.00352  0.099  -0.536386  0.05839  1.302331  0.067  -0.562372  0.047293  1.271429  0.056  -0.300753  -0.520156  0.064568  1.324011  0.072
O  O78  1  0.41029605  0.86792652  0.73150605  1  -0.498188  -0.090334  2.140427  -0.116  -0.463681  -0.061024  2.428438  -0.086  -0.506319  -0.047349  2.424974  -0.07  -0.295028  -0.436358  -0.070512  2.431211  -0.096
O  O79  1  0.91030660  0.73151415  0.86793341  1  -0.498231  0.090339  2.140434  0.116  -0.463712  0.061022  2.428454  0.086  -0.506313  0.047352  2.424959  0.07  -0.295033  -0.436378  0.070514  2.431209  0.096
O  O80  1  0.90247100  0.59798193  0.38317241  1  -0.550029  -0.00143  2.003632  -0.002  -0.509511  -0.000479  2.23337  -0.001  -0.530803  -0.000215  2.226632  0.0  -0.287585  -0.494818  -0.000735  2.237689  -0.001
O  O81  1  0.40249086  0.38317796  0.59798729  1  -0.550019  0.001431  2.003516  0.002  -0.509514  0.000475  2.233318  0.001  -0.530806  0.000212  2.226576  0.0  -0.287603  -0.494825  0.000735  2.237645  0.001
O  O82  1  0.93727454  0.43215481  0.43977639  1  -0.352454  -0.000233  2.276689  0.0  -0.275411  -0.000269  2.517623  0.0  -0.297651  -0.000177  2.516301  0.0  -0.180061  -0.259765  -0.000373  2.517886  0.0
O  O83  1  0.43729083  0.43977307  0.43215127  1  -0.35242  0.000235  2.276545  0.0  -0.275366  0.00027  2.51749  0.0  -0.297607  0.00018  2.516164  0.0  -0.179976  -0.259724  0.000373  2.517758  0.0
