# generated using pymatgen
data_AgH4C4N3O2
_symmetry_space_group_name_H-M   'P 1'
_cell_length_a   5.90199460
_cell_length_b   7.23431669
_cell_length_c   14.43657400
_cell_angle_alpha   89.99809798
_cell_angle_beta   90.00541331
_cell_angle_gamma   90.00354558
_symmetry_Int_Tables_number   1
_chemical_formula_structural   AgH4C4N3O2
_chemical_formula_sum   'Ag4 H16 C16 N12 O8'
_cell_volume   616.39692465
_cell_formula_units_Z   4
loop_
 _symmetry_equiv_pos_site_id
 _symmetry_equiv_pos_as_xyz
  1  'x, y, z'
loop_
 _atom_site_type_symbol
 _atom_site_label
 _atom_site_symmetry_multiplicity
 _atom_site_fract_x
 _atom_site_fract_y
 _atom_site_fract_z
 _atom_site_occupancy
 _atom_site_hle17_bader_spin_density
 _atom_site_hle17_ddec_charge
 _atom_site_hle17_ddec_spin_density
 _atom_site_hle17_ddec_sum_bond_order
 _atom_site_hle17_magmom
 _atom_site_hse06_10hf_bader_spin_density
 _atom_site_hse06_10hf_ddec_charge
 _atom_site_hse06_10hf_ddec_spin_density
 _atom_site_hse06_10hf_ddec_sum_bond_order
 _atom_site_hse06_10hf_magmom
 _atom_site_hse06_bader_spin_density
 _atom_site_hse06_ddec_charge
 _atom_site_hse06_ddec_spin_density
 _atom_site_hse06_ddec_sum_bond_order
 _atom_site_hse06_magmom
 _atom_site_pbe_bader_spin_density
 _atom_site_pbe_cm5_charge
 _atom_site_pbe_ddec_charge
 _atom_site_pbe_ddec_spin_density
 _atom_site_pbe_ddec_sum_bond_order
 _atom_site_pbe_magmom
Ag  Ag0  1  0.46858180  0.25011115  0.14136499  1  0  0.472494  0  1.532946  0  0  0.320157  0  2.000507  0  0  0.343998  0  1.953625  0  0  0.450795  0.30733  0  2.03098  0
Ag  Ag1  1  0.03143281  0.74992301  0.64135687  1  0  0.472535  0  1.532795  0  0  0.320201  0  2.000223  0  0  0.34408  0  1.953301  0  0  0.450721  0.307302  0  2.030824  0
Ag  Ag2  1  0.96856778  0.25008485  0.35864181  1  0  0.47251  0  1.53268  0  0  0.320165  0  2.000191  0  0  0.344038  0  1.953275  0  0  0.450705  0.307262  0  2.03078  0
Ag  Ag3  1  0.53145606  0.74983312  0.85863299  1  0  0.472142  0  1.532999  0  0  0.320027  0  2.000114  0  0  0.343897  0  1.953223  0  0  0.450686  0.30719  0  2.030592  0
H  H4  1  0.12420650  0.57527836  0.18589048  1  0  0.091764  0  0.9432  0  0  0.094764  0  1.013949  0  0  0.097609  0  1.012363  0  0  0.117323  0.09245  0  1.01555  0
H  H5  1  0.37574020  0.42478580  0.68584557  1  0  0.091516  0  0.943446  0  0  0.094732  0  1.014004  0  0  0.097602  0  1.012382  0  0  0.117288  0.092377  0  1.01567  0
H  H6  1  0.62424588  0.92484319  0.31413588  1  0  0.091682  0  0.943363  0  0  0.09481  0  1.01398  0  0  0.097673  0  1.01238  0  0  0.117253  0.092481  0  1.015618  0
H  H7  1  0.87569168  0.07519683  0.81414204  1  0  0.091573  0  0.94385  0  0  0.094799  0  1.014329  0  0  0.097661  0  1.012733  0  0  0.117332  0.092495  0  1.015912  0
H  H8  1  0.87571107  0.42470876  0.81414144  1  0  0.091528  0  0.943431  0  0  0.094644  0  1.014107  0  0  0.097491  0  1.01251  0  0  0.117319  0.092327  0  1.015711  0
H  H9  1  0.62422989  0.57524141  0.31413995  1  0  0.091727  0  0.943218  0  0  0.094826  0  1.013931  0  0  0.097678  0  1.012324  0  0  0.117358  0.092491  0  1.015555  0
H  H10  1  0.37573776  0.07518540  0.68583855  1  0  0.09158  0  0.943463  0  0  0.094711  0  1.014085  0  0  0.097578  0  1.012475  0  0  0.117261  0.092372  0  1.015731  0
H  H11  1  0.12426486  0.92485941  0.18587118  1  0  0.091448  0  0.943518  0  0  0.094632  0  1.014058  0  0  0.097504  0  1.012451  0  0  0.117242  0.092299  0  1.0157  0
H  H12  1  0.75002235  0.57663636  0.05279094  1  0  0.101205  0  0.949562  0  0  0.101909  0  1.022579  0  0  0.105506  0  1.019755  0  0  0.117612  0.098948  0  1.025243  0
H  H13  1  0.74996813  0.42339327  0.55277501  1  0  0.101191  0  0.950003  0  0  0.101859  0  1.023117  0  0  0.105449  0  1.020305  0  0  0.117615  0.0989  0  1.025778  0
H  H14  1  0.25015003  0.92372546  0.44723278  1  0  0.101296  0  0.949554  0  0  0.102042  0  1.022634  0  0  0.105649  0  1.019847  0  0  0.117486  0.099059  0  1.025301  0
H  H15  1  0.24991320  0.07625647  0.94722356  1  0  0.101249  0  0.949583  0  0  0.102014  0  1.022608  0  0  0.105625  0  1.019818  0  0  0.117495  0.099029  0  1.025279  0
H  H16  1  0.25003754  0.42332865  0.94720081  1  0  0.101162  0  0.950037  0  0  0.101935  0  1.022862  0  0  0.105525  0  1.020044  0  0  0.117633  0.098975  0  1.025532  0
H  H17  1  0.25006804  0.57662979  0.44722713  1  0  0.101254  0  0.949773  0  0  0.101828  0  1.022991  0  0  0.105419  0  1.020176  0  0  0.117618  0.098865  0  1.025657  0
H  H18  1  0.74987936  0.07630175  0.55277213  1  0  0.101237  0  0.94958  0  0  0.102006  0  1.022558  0  0  0.105609  0  1.019763  0  0  0.117539  0.099029  0  1.025221  0
H  H19  1  0.75015008  0.92374724  0.05277443  1  0  0.101347  0  0.949056  0  0  0.102076  0  1.022197  0  0  0.105691  0  1.019407  0  0  0.117499  0.09909  0  1.024869  0
C  C20  1  0.26497205  0.65403278  0.15695644  1  0  0.080118  0  3.659541  0  0  0.05283  0  3.910794  0  0  0.055887  0  3.926814  0  0  0.048271  0.050129  0  3.901612  0
C  C21  1  0.23498677  0.34600441  0.65691685  1  0  0.080679  0  3.65958  0  0  0.053103  0  3.910865  0  0  0.056146  0  3.92691  0  0  0.048431  0.050446  0  3.901594  0
C  C22  1  0.76500550  0.84607272  0.34306303  1  0  0.079951  0  3.659273  0  0  0.052603  0  3.910505  0  0  0.055635  0  3.926554  0  0  0.048526  0.049838  0  3.901414  0
C  C23  1  0.73497247  0.15393206  0.84304094  1  0  0.079823  0  3.660817  0  0  0.052436  0  3.911911  0  0  0.055455  0  3.927976  0  0  0.048176  0.049624  0  3.902926  0
C  C24  1  0.73496923  0.34594466  0.84305609  1  0  0.080664  0  3.66011  0  0  0.053222  0  3.911312  0  0  0.056276  0  3.927342  0  0  0.048517  0.0506  0  3.901995  0
C  C25  1  0.76502060  0.65400344  0.34305480  1  0  0.080537  0  3.659128  0  0  0.053025  0  3.910451  0  0  0.056084  0  3.926478  0  0  0.048372  0.050389  0  3.901151  0
C  C26  1  0.23499509  0.15397937  0.65693080  1  0  0.080255  0  3.660038  0  0  0.052932  0  3.911224  0  0  0.055956  0  3.927286  0  0  0.048516  0.050245  0  3.902001  0
C  C27  1  0.26502134  0.84607303  0.15698198  1  0  0.080325  0  3.659949  0  0  0.052854  0  3.911205  0  0  0.05588  0  3.927262  0  0  0.048388  0.050129  0  3.902056  0
C  C28  1  0.61012165  0.65392843  0.08337448  1  0  0.065257  0  3.676032  0  0  0.03625  0  3.938495  0  0  0.040117  0  3.950817  0  0  0.045909  0.032912  0  3.93201  0
C  C29  1  0.88982659  0.34608382  0.58335349  1  0  0.065405  0  3.677376  0  0  0.036257  0  3.939823  0  0  0.040119  0  3.952146  0  0  0.045937  0.032921  0  3.933333  0
C  C30  1  0.11022838  0.84645639  0.41663955  1  0  0.066089  0  3.676252  0  0  0.036584  0  3.938909  0  0  0.040405  0  3.951264  0  0  0.046755  0.033296  0  3.932368  0
C  C31  1  0.38983980  0.15350837  0.91661390  1  0  0.065917  0  3.676192  0  0  0.036522  0  3.938841  0  0  0.040342  0  3.951193  0  0  0.046681  0.033235  0  3.932317  0
C  C32  1  0.38986877  0.34604072  0.91662212  1  0  0.065528  0  3.677473  0  0  0.036456  0  3.939933  0  0  0.040323  0  3.95225  0  0  0.045947  0.033111  0  3.933452  0
C  C33  1  0.11020619  0.65391022  0.41663341  1  0  0.065323  0  3.676451  0  0  0.036481  0  3.938561  0  0  0.040341  0  3.950888  0  0  0.045951  0.033147  0  3.932056  0
C  C34  1  0.88980948  0.15356391  0.58336120  1  0  0.066265  0  3.676451  0  0  0.036979  0  3.938936  0  0  0.040814  0  3.95127  0  0  0.046743  0.033679  0  3.932416  0
C  C35  1  0.61019298  0.84648981  0.08339932  1  0  0.066026  0  3.675399  0  0  0.036639  0  3.937982  0  0  0.040454  0  3.950346  0  0  0.046681  0.033347  0  3.931457  0
N  N36  1  0.43761790  0.55695279  0.12012707  1  0  -0.238519  0  3.281471  0  0  -0.168056  0  3.56272  0  0  -0.178002  0  3.573681  0  0  -0.323078  -0.162185  0  3.556141  0
N  N37  1  0.06232923  0.44307183  0.62007293  1  0  -0.238971  0  3.281983  0  0  -0.168384  0  3.563204  0  0  -0.178343  0  3.57418  0  0  -0.323262  -0.162514  0  3.556622  0
N  N38  1  0.93759549  0.94325447  0.37989369  1  0  -0.238682  0  3.281309  0  0  -0.167961  0  3.562511  0  0  -0.177929  0  3.573532  0  0  -0.323426  -0.162058  0  3.555862  0
N  N39  1  0.56245347  0.05671313  0.87986003  1  0  -0.238226  0  3.281194  0  0  -0.16766  0  3.562352  0  0  -0.177623  0  3.573365  0  0  -0.323144  -0.161761  0  3.555714  0
N  N40  1  0.56234372  0.44300116  0.87988823  1  0  -0.238774  0  3.282873  0  0  -0.168234  0  3.564002  0  0  -0.178193  0  3.574977  0  0  -0.323242  -0.162364  0  3.557424  0
N  N41  1  0.93766119  0.55694847  0.37990566  1  0  -0.238988  0  3.281869  0  0  -0.168392  0  3.562986  0  0  -0.178355  0  3.573967  0  0  -0.323262  -0.162513  0  3.556387  0
N  N42  1  0.06242374  0.05676582  0.62012092  1  0  -0.238945  0  3.281643  0  0  -0.168362  0  3.562864  0  0  -0.178326  0  3.573869  0  0  -0.323479  -0.162481  0  3.556244  0
N  N43  1  0.43753695  0.94327953  0.12012964  1  0  -0.238559  0  3.281222  0  0  -0.167913  0  3.56252  0  0  -0.177873  0  3.573534  0  0  -0.32318  -0.162024  0  3.555889  0
N  N44  1  0.50333254  0.25011739  0.37987448  1  0  0.197364  0  3.316213  0  0  0.211079  0  3.645514  0  0  0.229962  0  3.646139  0  0  -0.069067  0.199306  0  3.642994  0
N  N45  1  0.99673336  0.74991656  0.87987369  1  0  0.197535  0  3.316888  0  0  0.210857  0  3.646038  0  0  0.229747  0  3.646664  0  0  -0.069284  0.199073  0  3.643531  0
N  N46  1  0.00333330  0.25006503  0.12013815  1  0  0.197229  0  3.316307  0  0  0.211126  0  3.645374  0  0  0.230013  0  3.645997  0  0  -0.069016  0.199345  0  3.642864  0
N  N47  1  0.49658503  0.74988908  0.62013943  1  0  0.197219  0  3.316054  0  0  0.210856  0  3.645497  0  0  0.229732  0  3.646126  0  0  -0.06914  0.199082  0  3.642983  0
O  O48  1  0.41184688  0.25013982  0.45820497  1  0  -0.419704  0  1.924113  0  0  -0.377442  0  2.170899  0  0  -0.400542  0  2.170747  0  0  -0.180275  -0.360105  0  2.169331  0
O  O49  1  0.08833912  0.74994224  0.95819009  1  0  -0.419844  0  1.92476  0  0  -0.377327  0  2.171313  0  0  -0.400436  0  2.171174  0  0  -0.180068  -0.359983  0  2.169746  0
O  O50  1  0.91180209  0.25001171  0.04181067  1  0  -0.419539  0  1.923915  0  0  -0.377457  0  2.17068  0  0  -0.400559  0  2.170533  0  0  -0.180275  -0.36012  0  2.16912  0
O  O51  1  0.58799783  0.74978786  0.54179647  1  0  -0.419638  0  1.923699  0  0  -0.377384  0  2.170476  0  0  -0.40048  0  2.17033  0  0  -0.180358  -0.360044  0  2.168904  0
O  O52  1  0.36726223  0.24995315  0.31037539  1  0  -0.450379  0  2.051558  0  0  -0.38969  0  2.357747  0  0  -0.416101  0  2.346929  0  0  -0.213999  -0.371517  0  2.364175  0
O  O53  1  0.13274474  0.74998878  0.81037196  1  0  -0.450565  0  2.052116  0  0  -0.38966  0  2.358092  0  0  -0.416065  0  2.347253  0  0  -0.21406  -0.371495  0  2.364532  0
O  O54  1  0.86724908  0.25004396  0.18962048  1  0  -0.450415  0  2.051985  0  0  -0.389808  0  2.358194  0  0  -0.416224  0  2.34738  0  0  -0.214117  -0.371635  0  2.364629  0
O  O55  1  0.63273497  0.75006438  0.68961151  1  0  -0.450203  0  2.051763  0  0  -0.389496  0  2.357889  0  0  -0.415917  0  2.347083  0  0  -0.213847  -0.371327  0  2.364323  0
