# generated using pymatgen
data_ZnH13C20NO7
_symmetry_space_group_name_H-M   'P 1'
_cell_length_a   10.98619037
_cell_length_b   16.37814458
_cell_length_c   17.61543233
_cell_angle_alpha   95.05903971
_cell_angle_beta   90.43021941
_cell_angle_gamma   92.53686313
_symmetry_Int_Tables_number   1
_chemical_formula_structural   ZnH13C20NO7
_chemical_formula_sum   'Zn2 H26 C40 N2 O14'
_cell_volume   3153.95557329
_cell_formula_units_Z   2
loop_
 _symmetry_equiv_pos_site_id
 _symmetry_equiv_pos_as_xyz
  1  'x, y, z'
loop_
 _atom_site_type_symbol
 _atom_site_label
 _atom_site_symmetry_multiplicity
 _atom_site_fract_x
 _atom_site_fract_y
 _atom_site_fract_z
 _atom_site_occupancy
 _atom_site_pbe_bader_charge
 _atom_site_pbe_bader_spin_density
 _atom_site_pbe_cm5_charge
 _atom_site_pbe_ddec_charge
 _atom_site_pbe_ddec_spin_density
 _atom_site_pbe_ddec_sum_bond_order
 _atom_site_pbe_magmom
Zn  Zn0  1  0.50168262  0.41006792  0.50384620  1  1.299277  0  0.677967  0.841302  0  2.386183  0
Zn  Zn1  1  0.50661051  0.58863279  0.50609452  1  1.290084  0  0.677357  0.835816  0  2.40444  0
H  H2  1  0.34465005  0.71820943  0.49286488  1  0.124458  0  0.123378  0.101593  0  0.988996  0
H  H3  1  0.34499343  0.86935969  0.49305377  1  0.079333  0  0.109473  0.119866  0  1.004035  0
H  H4  1  0.73456005  0.87367424  0.53802443  1  0.09738  0  0.117971  0.143125  0  0.97519  0
H  H5  1  0.28610744  0.12037737  0.46031180  1  0.081052  0  0.11727  0.141568  0  0.977122  0
H  H6  1  0.66323010  0.13341567  0.53751176  1  0.037915  0  0.109283  0.118906  0  1.003384  0
H  H7  1  0.66007799  0.28393086  0.53316321  1  0.135475  0  0.123796  0.102014  0  0.99597  0
H  H8  1  0.64390689  0.00182249  0.53100201  1  0.096027  0  0.107887  0.105069  0  0.99508  0
H  H9  1  0.37351839  0.99603015  0.48211735  1  0.058325  0  0.10709  0.102946  0  0.998516  0
H  H10  1  0.52526580  0.62413562  0.26871520  1  0.048361  0  0.096663  0.096075  0  1.012575  0
H  H11  1  0.51244693  0.62071655  0.12800208  1  0.05383  0  0.098204  0.102414  0  1.012857  0
H  H12  1  0.50290390  0.35512383  0.11477275  1  0.079986  0  0.108174  0.125897  0  0.986832  0
H  H13  1  0.49752472  0.66274279  0.89038092  1  0.079987  0  0.107089  0.125039  0  0.988217  0
H  H14  1  0.47955100  0.39750454  0.88483608  1  0.039854  0  0.097735  0.101037  0  1.017733  0
H  H15  1  0.47293728  0.38929982  0.74398755  1  0.08998  0  0.103371  0.107743  0  0.996978  0
H  H16  1  0.49052187  0.41594421  0.00210059  1  0.054822  0  0.100912  0.097598  0  1.009266  0
H  H17  1  0.50510562  0.60449506  0.00660182  1  0.050765  0  0.101114  0.097577  0  1.004454  0
H  H18  1  0.76259505  0.58878989  0.40169873  1  0.113799  0  0.100727  0.121384  0  1.054854  0
H  H19  1  0.21304663  0.59452596  0.37339340  1  0.04338  0  0.102311  0.123734  0  1.02664  0
H  H20  1  0.12776654  0.40454160  0.56182539  1  0.099621  0  0.107324  0.111842  0  0.993034  0
H  H21  1  0.90156832  0.40125594  0.57555348  1  0.075355  0  0.106692  0.110292  0  0.991238  0
H  H22  1  0.72855618  0.65600845  0.53251514  1  0.648549  0  0.308752  0.368704  0  0.966779  0
H  H23  1  0.28393166  0.33754175  0.46668678  1  0.676702  0  0.308008  0.36658  0  0.976533  0
H  H24  1  0.51961156  0.36014326  0.31550331  1  0.651391  0  0.302042  0.353572  0  0.970637  0
H  H25  1  0.48308568  0.65115819  0.68950569  1  0.621299  0  0.300763  0.352287  0  0.974454  0
H  H26  1  0.76444829  0.67056941  0.30597563  1  0.596335  0  0.335342  0.36545  0  0.878121  0
H  H27  1  0.17906432  0.67477956  0.27688787  1  0.580592  0  0.340212  0.364361  0  0.871307  0
C  C28  1  0.52796981  0.49844819  0.35542169  1  1.506144  0  0.207352  0.596544  0  4.16854  0
C  C29  1  0.26617424  0.49939873  0.48306297  1  1.487905  0  0.230609  0.620221  0  4.119293  0
C  C30  1  0.48061185  0.51134907  0.65310623  1  1.446442  0  0.212763  0.60836  0  4.152409  0
C  C31  1  0.74266326  0.49106434  0.51162434  1  1.554792  0  0.229903  0.621553  0  4.117623  0
C  C32  1  0.42887704  0.75583165  0.50197088  1  0.414084  0  0.042484  0.110481  0  3.975822  0
C  C33  1  0.43011409  0.83990571  0.50212572  1  -0.023928  0  -0.099812  -0.219342  0  3.983434  0
C  C34  1  0.54198284  0.88564542  0.51505479  1  -0.021075  0  0.007268  0.168553  0  4.065096  0
C  C35  1  0.64568447  0.84236904  0.52752622  1  0.063112  0  -0.089195  -0.2879  0  3.866101  0
C  C36  1  0.63789483  0.75619116  0.52600551  1  1.093624  0  0.222049  0.488985  0  4.069171  0
C  C37  1  0.55341280  0.97469868  0.51574877  1  -0.068368  0  -0.075836  -0.113735  0  3.951008  0
C  C38  1  0.46329408  0.02365446  0.49846004  1  -0.052057  0  -0.075143  -0.111007  0  3.953512  0
C  C39  1  0.37142809  0.15359331  0.47736700  1  0.043247  0  -0.090125  -0.288593  0  3.86943  0
C  C40  1  0.47308330  0.11264250  0.49868084  1  0.024873  0  0.007017  0.16835  0  4.070094  0
C  C41  1  0.58022574  0.16074213  0.51990014  1  0.035683  0  -0.09987  -0.218628  0  3.981391  0
C  C42  1  0.57927546  0.24458163  0.51822748  1  0.412984  0  0.044202  0.114426  0  3.970859  0
C  C43  1  0.37634155  0.23967167  0.47798039  1  1.103003  0  0.22134  0.489048  0  4.06905  0
C  C44  1  0.52286299  0.49338424  0.27161467  1  -0.000104  0  -0.048987  -0.204521  0  4.004947  0
C  C45  1  0.52152741  0.56570779  0.23366286  1  -0.005346  0  -0.094972  -0.078453  0  4.068469  0
C  C46  1  0.51377132  0.56354610  0.15522450  1  -0.052715  0  -0.109201  -0.173804  0  4.004976  0
C  C47  1  0.50680955  0.48697800  0.11057681  1  -0.003325  0  -0.004965  0.144974  0  4.061689  0
C  C48  1  0.50830305  0.41480403  0.14770588  1  0.026111  0  -0.100792  -0.254846  0  3.904749  0
C  C49  1  0.51609996  0.41657948  0.22727895  1  0.495217  0  0.093077  0.32823  0  4.069135  0
C  C50  1  0.49766069  0.47924375  0.02777235  1  -0.075367  0  -0.087047  -0.126831  0  3.981748  0
C  C51  1  0.49770467  0.54095947  0.98147393  1  -0.004725  0  -0.084619  -0.11868  0  3.974894  0
C  C52  1  0.49159623  0.60208427  0.85920836  1  0.009445  0  -0.103078  -0.259052  0  3.91077  0
C  C53  1  0.48996554  0.53135536  0.89855128  1  -0.018987  0  -0.006771  0.140017  0  4.067105  0
C  C54  1  0.48188889  0.45365337  0.85595145  1  -0.045389  0  -0.108354  -0.174777  0  4.005838  0
C  C55  1  0.47788700  0.44869212  0.77731892  1  0.024487  0  -0.087216  -0.062693  0  4.040891  0
C  C56  1  0.48048952  0.51944302  0.73710774  1  0.073136  0  -0.044232  -0.199727  0  3.990364  0
C  C57  1  0.48613808  0.59752761  0.77938542  1  0.427367  0  0.092225  0.326379  0  4.066738  0
C  C58  1  0.87637093  0.49274857  0.49784104  1  -0.042032  0  -0.012195  -0.074723  0  3.945248  0
C  C59  1  0.93108930  0.54387295  0.44473489  1  -0.009044  0  -0.005488  0.075883  0  3.979638  0
C  C60  1  0.94612278  0.44143732  0.53707203  1  0.025107  0  -0.090152  -0.104787  0  4.028065  0
C  C61  1  0.86162465  0.59022445  0.39731651  1  0.056784  0  -0.121001  -0.293069  0  4.018063  0
C  C62  1  0.91546336  0.63627316  0.34391136  1  0.404695  0  0.07675  0.230098  0  4.084355  0
C  C63  1  0.13059037  0.49540332  0.48137249  1  0.104  0  -0.01554  -0.084402  0  3.949575  0
C  C64  1  0.07284522  0.44291080  0.52895147  1  -0.109171  0  -0.090375  -0.102024  0  4.017528  0
C  C65  1  0.06137720  0.54532531  0.43626490  1  0.027093  0  -0.004923  0.079778  0  3.9881  0
C  C66  1  0.11449132  0.59334485  0.38090845  1  0.006301  0  -0.119391  -0.295504  0  4.028299  0
C  C67  1  0.04466312  0.63765449  0.33530040  1  0.498791  0  0.074882  0.222416  0  4.094275  0
N  N68  1  0.53038019  0.71368826  0.51330030  1  -1.242438  0  -0.348093  -0.354179  0  3.479559  0
N  N69  1  0.47985685  0.28457896  0.49776238  1  -1.265629  0  -0.344533  -0.353118  0  3.461619  0
O  O70  1  0.52230411  0.43050754  0.38779335  1  -1.174869  0  -0.312027  -0.558469  0  2.342819  0
O  O71  1  0.53733336  0.56929422  0.39204964  1  -1.178544  0  -0.325976  -0.557972  0  2.350578  0
O  O72  1  0.32266462  0.56863413  0.48370950  1  -1.162146  0  -0.30069  -0.525824  0  2.330539  0
O  O73  1  0.31901971  0.43131288  0.48701611  1  -1.192476  0  -0.308932  -0.568713  0  2.431985  0
O  O74  1  0.47822022  0.57862988  0.61937013  1  -1.163396  0  -0.31765  -0.562536  0  2.369149  0
O  O75  1  0.48399739  0.44043480  0.61778223  1  -1.17511  0  -0.317932  -0.541434  0  2.327253  0
O  O76  1  0.68765036  0.42146809  0.51202487  1  -1.161978  0  -0.302244  -0.52648  0  2.324661  0
O  O77  1  0.69002850  0.55962794  0.52260242  1  -1.193331  0  -0.308225  -0.570882  0  2.399844  0
O  O78  1  0.73989753  0.71797439  0.53724802  1  -1.158981  0  -0.337086  -0.4602  0  2.2624  0
O  O79  1  0.27573916  0.27537181  0.45860142  1  -1.186176  0  -0.340396  -0.465584  0  2.256076  0
O  O80  1  0.51640546  0.34465441  0.25898537  1  -1.1706  0  -0.360827  -0.448195  0  2.240229  0
O  O81  1  0.48755028  0.66840554  0.74565610  1  -1.136936  0  -0.365014  -0.45377  0  2.241133  0
O  O82  1  0.85107402  0.68085461  0.29688097  1  -1.087055  0  -0.350255  -0.423058  0  2.24653  0
O  O83  1  0.09189714  0.68315120  0.28020593  1  -1.087061  0  -0.349664  -0.420573  0  2.250555  0
