# generated using pymatgen
data_Er2Cu3H38C42(N3O17)2
_symmetry_space_group_name_H-M   'P 1'
_cell_length_a   11.32587658
_cell_length_b   13.06187811
_cell_length_c   19.06113074
_cell_angle_alpha   89.90006505
_cell_angle_beta   92.00919366
_cell_angle_gamma   89.99412664
_symmetry_Int_Tables_number   1
_chemical_formula_structural   Er2Cu3H38C42(N3O17)2
_chemical_formula_sum   'Er4 Cu6 H76 C84 N12 O68'
_cell_volume   2818.11275023
_cell_formula_units_Z   2
loop_
 _symmetry_equiv_pos_site_id
 _symmetry_equiv_pos_as_xyz
  1  'x, y, z'
loop_
 _atom_site_type_symbol
 _atom_site_label
 _atom_site_symmetry_multiplicity
 _atom_site_fract_x
 _atom_site_fract_y
 _atom_site_fract_z
 _atom_site_occupancy
 _atom_site_pbe_bader_charge
 _atom_site_pbe_bader_spin_density
 _atom_site_pbe_cm5_charge
 _atom_site_pbe_ddec_charge
 _atom_site_pbe_ddec_spin_density
 _atom_site_pbe_ddec_sum_bond_order
 _atom_site_pbe_magmom
Er  Er0  1  0.86388303  0.06920608  0.64627237  1  2.191189  9e-05  1.49736  2.121884  7.6e-05  2.099935  0.0
Er  Er1  1  0.63567134  0.56778414  0.85460557  1  2.192251  0.000287  1.496855  2.124572  0.000319  2.09623  0.0
Er  Er2  1  0.13832500  0.93828757  0.35110424  1  2.196037  -0.000172  1.495819  2.134136  -0.000213  2.088332  0.0
Er  Er3  1  0.36177101  0.43880551  0.14837857  1  2.195277  0.000159  1.49568  2.134153  0.000183  2.088178  0.0
Cu  Cu4  1  0.15659557  0.40209698  0.82794942  1  1.095559  0.588109  0.759739  0.804526  0.760205  2.229415  0.586
Cu  Cu5  1  0.34338550  0.90419685  0.67056319  1  1.093954  0.587252  0.758928  0.802985  0.760531  2.223395  0.585
Cu  Cu6  1  0.84195592  0.59588716  0.17706647  1  1.092561  0.585627  0.759296  0.799635  0.75964  2.254573  0.584
Cu  Cu7  1  0.65837757  0.09551387  0.32253244  1  1.091795  -0.585228  0.758672  0.798007  -0.784583  2.256139  -0.583
Cu  Cu8  1  0.00237613  0.00041585  0.00345865  1  1.077865  0.57734  0.75705  0.762551  0.754965  2.318459  0.576
Cu  Cu9  1  0.49806057  0.50023299  0.49682613  1  1.078086  -0.577031  0.757291  0.763332  -0.780537  2.317144  -0.575
H  H10  1  0.80565286  0.25604571  0.68465327  1  0.631925  -5e-06  0.314417  0.400646  -7e-06  0.908987  0.0
H  H11  1  0.69504792  0.75421300  0.81583251  1  0.629816  -2e-06  0.313693  0.399347  -7e-06  0.910682  0.0
H  H12  1  0.19101924  0.74854412  0.31538182  1  0.634262  -0.0  0.313185  0.399267  -6e-06  0.911517  0.0
H  H13  1  0.30966834  0.24877485  0.18414843  1  0.627838  0.0  0.313414  0.399203  6e-06  0.911598  0.0
H  H14  1  0.80426166  0.20769924  0.76156236  1  0.655709  -6e-05  0.2985  0.400017  -6.2e-05  0.939361  0.0
H  H15  1  0.69518332  0.70648755  0.73892905  1  0.66048  -5.5e-05  0.2986  0.40069  -5.5e-05  0.938134  0.0
H  H16  1  0.19594762  0.79400335  0.23786912  1  0.648529  -5.4e-05  0.302202  0.406243  -5.5e-05  0.926982  0.0
H  H17  1  0.30481430  0.29388913  0.26167045  1  0.653704  5.4e-05  0.302191  0.405766  5.4e-05  0.927522  0.0
H  H18  1  0.85348583  0.26163941  0.56289696  1  0.652274  -0.0  0.299385  0.416424  -1.5e-05  0.917816  0.0
H  H19  1  0.64663769  0.76065734  0.93703715  1  0.655482  3e-05  0.299512  0.416762  3.5e-05  0.917155  0.0
H  H20  1  0.14767666  0.74569745  0.43746965  1  0.652028  -5.2e-05  0.298945  0.414039  -5.9e-05  0.920323  0.0
H  H21  1  0.35243358  0.24654287  0.06188527  1  0.673037  5.5e-05  0.298813  0.413906  6.2e-05  0.920748  0.0
H  H22  1  0.98838836  0.25546699  0.59624396  1  0.672563  2.4e-05  0.29443  0.415594  4.6e-05  0.91678  0.0
H  H23  1  0.51140449  0.75387703  0.90413014  1  0.673541  2.4e-05  0.294474  0.41531  3.9e-05  0.917456  0.0
H  H24  1  0.01370895  0.75129003  0.40431151  1  0.647452  -2.7e-05  0.293628  0.413506  -4.5e-05  0.919305  0.0
H  H25  1  0.48644952  0.25220684  0.09493740  1  0.665121  2.7e-05  0.293397  0.412931  4.3e-05  0.920056  0.0
H  H26  1  0.64894743  0.91752971  0.68064841  1  0.664442  0.000582  0.301515  0.413967  0.000709  0.913329  0.0
H  H27  1  0.84985323  0.41599622  0.82020817  1  0.669919  0.000585  0.302062  0.414985  0.000706  0.912161  0.0
H  H28  1  0.35505979  0.08143556  0.31950931  1  0.672405  -0.000519  0.303061  0.411065  -0.000681  0.918349  0.0
H  H29  1  0.14529717  0.58156089  0.18053650  1  0.663652  0.000519  0.303158  0.410955  0.000658  0.918684  0.0
H  H30  1  0.74741339  0.94359863  0.74180922  1  0.616005  9e-06  0.330492  0.421438  1e-05  0.870568  0.0
H  H31  1  0.74939833  0.43988945  0.75979617  1  0.658914  1.1e-05  0.330327  0.421223  9e-06  0.871219  0.0
H  H32  1  0.24444360  0.07981373  0.26472231  1  0.628437  4e-05  0.333202  0.424698  2.6e-05  0.864187  0.0
H  H33  1  0.25593632  0.57902247  0.23537167  1  0.629857  -4.1e-05  0.333398  0.424435  -2.8e-05  0.865455  0.0
H  H34  1  0.82089088  0.03263671  0.49727577  1  0.655386  -2.2e-05  0.293677  0.390774  -4.5e-05  0.951357  0.0
H  H35  1  0.67931355  0.53423637  0.00405359  1  0.647336  1.9e-05  0.293628  0.391383  4.5e-05  0.950946  0.0
H  H36  1  0.18094915  0.98007669  0.49829936  1  0.642637  -2.3e-05  0.293496  0.397163  -1e-06  0.939682  0.0
H  H37  1  0.31843670  0.48124303  0.00135028  1  0.65727  2e-05  0.293494  0.397566  4.9e-05  0.939397  0.0
H  H38  1  0.89540098  0.93596346  0.53010712  1  0.606662  -4.5e-05  0.32668  0.413286  -3.8e-05  0.879748  0.0
H  H39  1  0.60325845  0.43755192  0.97276241  1  0.626665  4.9e-05  0.326166  0.412426  3.7e-05  0.881312  0.0
H  H40  1  0.04172978  0.01425201  0.48917669  1  0.646961  -9e-06  0.301751  0.413009  -4e-06  0.904704  0.0
H  H41  1  0.45719274  0.51704221  0.01080337  1  0.648934  1e-05  0.302401  0.413467  -0.0  0.904203  0.0
H  H42  1  0.03253643  0.90139780  0.65207201  1  0.639089  0.000464  0.299082  0.393011  0.000585  0.94481  0.0
H  H43  1  0.46733784  0.39899961  0.85062925  1  0.638326  0.000466  0.29966  0.393933  0.000583  0.943145  0.0
H  H44  1  0.96719986  0.10043579  0.33997523  1  0.629172  -0.000436  0.295637  0.38482  -0.000607  0.958487  0.0
H  H45  1  0.53275017  0.60109480  0.15958005  1  0.631288  0.000432  0.29541  0.384657  0.000586  0.958603  0.0
H  H46  1  0.91118603  0.84689891  0.67140718  1  0.617005  -1.1e-05  0.330494  0.419763  -8e-06  0.868712  0.0
H  H47  1  0.58914954  0.34174799  0.83559393  1  0.616036  -1.5e-05  0.331483  0.420636  -8e-06  0.865977  0.0
H  H48  1  0.06860898  0.14288595  0.39124864  1  0.601141  -1.4e-05  0.327566  0.417829  -1.6e-05  0.867507  0.0
H  H49  1  0.43102497  0.64443811  0.10873962  1  0.632736  1.1e-05  0.327572  0.417605  1.5e-05  0.86702  0.0
H  H50  1  0.39319591  0.34607277  0.68705364  1  0.11344  5.3e-05  0.109941  0.112736  2e-06  1.026282  0.0
H  H51  1  0.10625624  0.84391060  0.81469192  1  0.070716  4e-05  0.109358  0.111907  2.5e-05  1.028983  0.0
H  H52  1  0.60875989  0.65321845  0.31273193  1  0.100176  -6.7e-05  0.111136  0.114049  -4.3e-05  1.018289  0.0
H  H53  1  0.89126841  0.15358573  0.18680030  1  0.105798  6.7e-05  0.111248  0.113967  3.9e-05  1.018297  0.0
H  H54  1  0.57284290  0.23668781  0.70426910  1  0.152509  0.000922  0.111634  0.127592  0.000493  1.018554  0.001
H  H55  1  0.92718455  0.73454717  0.79581665  1  0.106151  0.000971  0.111544  0.126964  0.000505  1.020005  0.001
H  H56  1  0.42981888  0.76147392  0.29078795  1  0.148207  -0.000956  0.116646  0.135542  -0.000524  1.002579  -0.001
H  H57  1  0.07018467  0.26165422  0.20900765  1  0.150177  0.000952  0.116578  0.135518  0.000505  1.0016  0.001
H  H58  1  0.55061585  0.04761763  0.70041177  1  0.144123  0.002219  0.126058  0.098894  0.001029  1.027447  0.002
H  H59  1  0.95009169  0.54542651  0.79724359  1  0.113985  0.002294  0.126216  0.098624  0.001055  1.021653  0.002
H  H60  1  0.45123773  0.95106580  0.29257667  1  0.178665  -0.002203  0.128962  0.106948  -0.001076  1.017676  -0.002
H  H61  1  0.04874666  0.45126433  0.20732483  1  0.176597  0.00221  0.129015  0.106878  0.001042  1.018349  0.002
H  H62  1  0.20092997  0.96236172  0.83472934  1  0.079737  1.6e-05  0.112522  0.114114  2e-06  1.026594  0.0
H  H63  1  0.29773228  0.46435098  0.66469815  1  0.105552  3.9e-05  0.112221  0.113264  1.4e-05  1.02631  0.0
H  H64  1  0.79624989  0.03557705  0.16132678  1  0.106811  6.9e-05  0.112021  0.112795  3e-05  1.02664  0.0
H  H65  1  0.70463815  0.53513134  0.33836621  1  0.114173  -7e-05  0.112217  0.11327  -3.4e-05  1.026591  0.0
H  H66  1  0.38064308  0.06451303  0.85641535  1  0.10422  0.001195  0.125182  0.136904  0.000619  0.956045  0.001
H  H67  1  0.11843692  0.56707479  0.64239632  1  0.133032  0.001191  0.125068  0.136796  0.000628  0.955451  0.001
H  H68  1  0.61555133  0.93286948  0.14432798  1  0.127048  0.001184  0.12506  0.137092  0.000616  0.955716  0.001
H  H69  1  0.88525942  0.43211408  0.35528713  1  0.111567  -0.001192  0.125297  0.136717  -0.000638  0.955666  -0.001
H  H70  1  0.36277230  0.25772423  0.85965132  1  0.102827  0.002523  0.123331  0.093032  0.00118  0.997899  0.002
H  H71  1  0.13673880  0.76015578  0.63916695  1  0.111565  0.002553  0.123393  0.09479  0.001205  0.996955  0.002
H  H72  1  0.63248502  0.73975316  0.14729205  1  0.107685  0.002474  0.122563  0.090938  0.001159  1.004999  0.002
H  H73  1  0.86813349  0.23908757  0.35223982  1  0.106455  -0.002473  0.122673  0.090815  -0.001197  1.007908  -0.002
H  H74  1  0.07384849  0.56241020  0.98400978  1  0.127782  -4.4e-05  0.107269  0.113003  -3.1e-05  1.027315  0.0
H  H75  1  0.42651952  0.06206975  0.51548029  1  0.120816  3.4e-05  0.107262  0.112232  3.5e-05  1.027764  0.0
H  H76  1  0.92519060  0.43772048  0.01744515  1  0.121898  -4.8e-05  0.107175  0.111997  -3.3e-05  1.022689  0.0
H  H77  1  0.57504490  0.93754945  0.48224006  1  0.124688  5.1e-05  0.107207  0.112913  3.5e-05  1.02303  0.0
H  H78  1  0.25110795  0.67448981  0.99630589  1  0.105168  0.000929  0.112204  0.121068  0.000475  1.009004  0.0
H  H79  1  0.24921684  0.17429972  0.50359814  1  0.102688  -0.000919  0.112459  0.121115  -0.000483  1.00707  0.0
H  H80  1  0.74889118  0.32192688  0.00765371  1  0.125736  0.000973  0.109686  0.110835  0.000506  1.017248  0.0
H  H81  1  0.75139937  0.82176662  0.49214225  1  0.124489  -0.000977  0.109938  0.110678  -0.000524  1.017084  0.0
H  H82  1  0.22280158  0.86518273  0.00552974  1  0.16341  0.002075  0.13241  0.117422  0.000987  0.96292  0.002
H  H83  1  0.27753759  0.36508275  0.49476533  1  0.168194  -0.002061  0.132402  0.11779  -0.00102  0.962344  -0.002
H  H84  1  0.78005472  0.13319117  0.99800315  1  0.166814  0.002071  0.132028  0.1186  0.000983  0.965465  0.002
H  H85  1  0.72038867  0.63300582  0.50207149  1  0.161884  -0.002082  0.131867  0.118103  -0.001019  0.966045  -0.002
C  C86  1  0.16120551  0.04765137  0.66023668  1  1.549233  -0.000815  0.231905  0.589087  0.000378  4.148257  -0.001
C  C87  1  0.33874317  0.54526311  0.84013913  1  1.577494  -0.000828  0.232693  0.590155  0.000379  4.149898  -0.001
C  C88  1  0.83950237  0.95291815  0.33795069  1  1.551942  0.000812  0.228024  0.581027  -0.000554  4.166114  0.001
C  C89  1  0.66063362  0.45353453  0.16141875  1  1.564238  -0.000823  0.227867  0.5811  0.000435  4.16416  -0.001
C  C90  1  0.27072711  0.11045311  0.67013368  1  0.468402  -5.7e-05  0.109007  0.052526  0.000438  3.936972  0.0
C  C91  1  0.22935168  0.60817980  0.82973802  1  0.406309  5.6e-05  0.108915  0.051809  0.000442  3.933972  0.0
C  C92  1  0.73034533  0.88939339  0.32828347  1  0.464877  -5.5e-05  0.104582  0.047626  -0.000658  3.946096  0.0
C  C93  1  0.76975310  0.38986989  0.17120181  1  0.449024  7.3e-05  0.105358  0.048309  0.000533  3.943337  0.0
C  C94  1  0.27437572  0.21785675  0.67102755  1  -0.016866  0.003244  0.011399  -0.040893  0.002352  3.859205  0.002
C  C95  1  0.22558446  0.71560145  0.82942276  1  0.079387  0.00326  0.012524  -0.038199  0.002398  3.858803  0.003
C  C96  1  0.72674672  0.78199780  0.32890551  1  -0.023662  -0.003361  0.008848  -0.046926  -0.002493  3.87081  -0.002
C  C97  1  0.77333335  0.28247852  0.17057944  1  0.002951  0.003317  0.008157  -0.047835  0.002411  3.870428  0.002
C  C98  1  0.16919283  0.28838772  0.65512821  1  1.637014  0.001063  0.201398  0.588941  0.000864  4.259302  0.001
C  C99  1  0.33057359  0.78622623  0.84542274  1  1.661546  0.00108  0.20061  0.587327  0.000882  4.262146  0.001
C  C100  1  0.83188602  0.71230823  0.34663322  1  1.663659  -0.001507  0.201334  0.59153  -0.001091  4.252953  -0.001
C  C101  1  0.66819566  0.21287262  0.15284066  1  1.65502  0.001522  0.201226  0.590706  0.001051  4.253275  0.001
C  C102  1  0.38501937  0.26320575  0.68549293  1  -0.016356  -0.003508  -0.060846  -0.056086  -0.002425  3.919477  -0.002
C  C103  1  0.11486067  0.76104617  0.81519754  1  0.023077  -0.003589  -0.061252  -0.057069  -0.002482  3.922654  -0.002
C  C104  1  0.61655501  0.73613587  0.31380000  1  -0.052798  0.003508  -0.059052  -0.053292  0.002308  3.911549  0.002
C  C105  1  0.88352584  0.23652123  0.18574641  1  -0.050704  -0.003513  -0.059179  -0.053942  -0.002389  3.910704  -0.002
C  C106  1  0.48527034  0.20354028  0.69586912  1  -0.048206  0.005856  -0.071072  -0.100053  0.003949  3.933666  0.005
C  C107  1  0.01485547  0.70142355  0.80394321  1  -0.012672  0.005782  -0.071458  -0.100522  0.003992  3.938293  0.005
C  C108  1  0.51648196  0.79528662  0.30116175  1  0.072357  -0.00608  -0.063551  -0.084993  -0.004355  3.909003  -0.005
C  C109  1  0.98357184  0.29555933  0.19852290  1  0.067547  0.006065  -0.063362  -0.084079  0.00421  3.907647  0.005
C  C110  1  0.47423541  0.09724388  0.69330947  1  0.504662  -0.001647  0.058548  0.108561  -0.000408  3.912199  -0.001
C  C111  1  0.02613326  0.59512930  0.80539970  1  0.500351  -0.001624  0.059421  0.110555  -0.00044  3.909523  -0.001
C  C112  1  0.52727356  0.90167898  0.30230238  1  0.412938  0.001455  0.060897  0.107708  0.000275  3.898187  0.001
C  C113  1  0.97275530  0.40194957  0.19742442  1  0.409271  -0.001467  0.060694  0.106926  -0.000428  3.898878  -0.001
C  C114  1  0.97074079  0.26326471  0.83374980  1  1.564712  -0.001178  0.2191  0.544577  0.000123  4.192565  -0.001
C  C115  1  0.52858660  0.76468922  0.66662649  1  1.560027  -0.001206  0.219566  0.545723  0.000153  4.192777  -0.001
C  C116  1  0.02573792  0.73468211  0.16630278  1  1.558497  -0.001251  0.217656  0.539881  0.000126  4.202716  -0.001
C  C117  1  0.47487562  0.23441867  0.33337937  1  1.561081  0.001255  0.216953  0.537686  -0.000266  4.204543  0.001
C  C118  1  0.08113704  0.19990561  0.83364897  1  0.489579  0.000284  0.109915  0.061265  0.000556  3.9485  0.0
C  C119  1  0.41802672  0.70162190  0.66650812  1  0.452137  0.000369  0.10927  0.060598  0.00063  3.947887  0.0
C  C120  1  0.91515363  0.79777220  0.16664745  1  0.443369  0.000194  0.108038  0.059127  0.000436  3.958056  0.0
C  C121  1  0.58550678  0.29744147  0.33297484  1  0.432603  -0.000225  0.108056  0.059844  -0.000568  3.955477  0.0
C  C122  1  0.08303402  0.09312783  0.82852647  1  -0.013339  0.003016  0.00858  -0.063444  0.002151  3.88127  0.002
C  C123  1  0.41587213  0.59483071  0.67168404  1  -0.029788  0.003456  0.008477  -0.064061  0.002577  3.880706  0.002
C  C124  1  0.91357142  0.90458923  0.16975094  1  0.015345  0.003028  0.006908  -0.068888  0.00224  3.895772  0.002
C  C125  1  0.58718335  0.40429897  0.32988886  1  0.027044  -0.003033  0.006992  -0.068701  -0.002327  3.893315  -0.002
C  C126  1  0.97510471  0.02554331  0.81621833  1  1.651571  0.001237  0.216597  0.637734  0.000916  4.213152  0.001
C  C127  1  0.52366717  0.52691303  0.68413375  1  1.661959  0.00161  0.217334  0.639892  0.00121  4.214584  0.001
C  C128  1  0.02266286  0.97103519  0.18028001  1  1.651733  0.001133  0.219381  0.642599  0.00083  4.209575  0.001
C  C129  1  0.47816237  0.47086336  0.31911766  1  1.654829  -0.00114  0.219064  0.643543  -0.000879  4.20785  -0.001
C  C130  1  0.19359119  0.04515254  0.83688112  1  0.030894  -0.00326  -0.055051  -0.037754  -0.002292  3.901016  -0.002
C  C131  1  0.30524869  0.54715275  0.66275857  1  0.105665  -0.003187  -0.055129  -0.037173  -0.002228  3.898134  -0.002
C  C132  1  0.80318560  0.95267891  0.16113763  1  0.052242  -0.003112  -0.056727  -0.039032  -0.00215  3.905635  -0.002
C  C133  1  0.69760772  0.45224215  0.33856014  1  0.049489  0.003112  -0.056742  -0.039437  0.002076  3.902335  0.002
C  C134  1  0.29558742  0.10232408  0.84839490  1  -0.006789  0.006006  -0.062364  -0.084342  0.004112  3.917584  0.005
C  C135  1  0.20351290  0.60462297  0.65086397  1  -0.053947  0.006028  -0.061544  -0.08387  0.00414  3.914141  0.005
C  C136  1  0.70079029  0.89525480  0.15202988  1  -0.008352  0.005987  -0.062832  -0.085561  0.004138  3.918813  0.005
C  C137  1  0.79995584  0.39465987  0.34760109  1  0.00991  -0.005966  -0.06351  -0.084961  -0.004279  3.915842  -0.005
C  C138  1  0.28643920  0.20860171  0.85033806  1  0.560649  -0.000985  0.059681  0.111762  0.000169  3.935609  -0.001
C  C139  1  0.21288856  0.71088984  0.64894963  1  0.494153  -0.000916  0.059485  0.111499  0.000175  3.93386  -0.001
C  C140  1  0.70957059  0.78890547  0.15295342  1  0.494175  -0.000724  0.057814  0.110463  0.000335  3.933062  0.0
C  C141  1  0.79107981  0.28832385  0.34662577  1  0.482131  0.000674  0.057769  0.110291  -0.0005  3.934861  0.0
C  C142  1  0.82812572  0.85374618  0.99658817  1  1.631598  -0.001287  0.210349  0.549072  0.000588  4.219101  -0.001
C  C143  1  0.67219029  0.35345472  0.50306024  1  1.629517  0.001299  0.210874  0.548782  -0.000753  4.220346  0.001
C  C144  1  0.17444137  0.14866572  0.00305411  1  1.606367  -0.001218  0.209265  0.546872  0.000611  4.21449  -0.001
C  C145  1  0.32594624  0.64841306  0.49660938  1  1.602826  0.001226  0.210742  0.548639  -0.000776  4.214057  0.001
C  C146  1  0.94264868  0.79513103  0.99475469  1  0.50468  -0.000186  0.107912  0.059475  0.000232  3.94529  0.0
C  C147  1  0.55769380  0.29486065  0.50501371  1  0.515707  0.00019  0.108823  0.060703  -0.00037  3.943199  0.0
C  C148  1  0.05934211  0.20643276  0.00601289  1  0.523733  -5e-05  0.108736  0.059822  0.000297  3.942586  0.0
C  C149  1  0.44102524  0.70618596  0.49377185  1  0.532849  -2.4e-05  0.108798  0.059092  -0.000501  3.943636  0.0
C  C150  1  0.95006674  0.68882715  0.98877542  1  -0.040885  0.002473  0.004383  -0.057215  0.001792  3.902984  0.001
C  C151  1  0.55030441  0.18851063  0.51088161  1  -0.050149  -0.002489  0.004121  -0.057423  -0.001861  3.901083  -0.001
C  C152  1  0.05044949  0.31265719  0.01191836  1  -0.061652  0.002512  0.005631  -0.054382  0.001803  3.900495  0.001
C  C153  1  0.44982677  0.81244862  0.48790525  1  -0.059804  -0.002656  0.005424  -0.054023  -0.001986  3.900468  -0.002
C  C154  1  0.84222058  0.62171273  0.97890866  1  1.595486  0.001595  0.229952  0.636442  0.001186  4.183212  0.001
C  C155  1  0.65823595  0.12151047  0.52120936  1  1.603291  -0.001596  0.230555  0.636041  -0.001227  4.183525  -0.001
C  C156  1  0.15682764  0.38172429  0.02150351  1  1.627704  0.00148  0.226844  0.629058  0.001122  4.195145  0.001
C  C157  1  0.34328726  0.88139014  0.47825975  1  1.629312  -0.001704  0.227181  0.629793  -0.001236  4.195578  -0.001
C  C158  1  0.06300399  0.64475007  0.98981946  1  -0.030036  -0.00317  -0.065881  -0.056276  -0.002192  3.901968  -0.002
C  C159  1  0.43736804  0.14445797  0.50982980  1  -0.025827  0.003118  -0.065894  -0.055463  0.002074  3.90262  0.002
C  C160  1  0.93682703  0.35546035  0.01149730  1  -0.021255  -0.003082  -0.067236  -0.058677  -0.002139  3.910626  -0.002
C  C161  1  0.56342517  0.85528021  0.48828783  1  -0.019943  0.003034  -0.067279  -0.060273  0.002018  3.911625  0.002
C  C162  1  0.16253237  0.70669663  0.99650963  1  0.018621  0.005772  -0.069648  -0.092274  0.003957  3.930969  0.005
C  C163  1  0.33781010  0.20648952  0.50337139  1  0.02374  -0.005713  -0.069804  -0.093339  -0.004049  3.932474  -0.005
C  C164  1  0.83836144  0.29224946  0.00565209  1  -0.021815  0.005774  -0.073835  -0.099857  0.003947  3.958447  0.005
C  C165  1  0.66193672  0.79206733  0.49420330  1  -0.024002  -0.00576  -0.073837  -0.099518  -0.004086  3.958081  -0.005
C  C166  1  0.14834660  0.81252263  0.00148886  1  0.476336  -0.001448  0.066939  0.121973  -0.000315  3.881341  -0.001
C  C167  1  0.35198239  0.31235779  0.49857927  1  0.476423  0.001481  0.06723  0.122384  0.000198  3.880651  0.001
C  C168  1  0.85386421  0.18661265  0.00095427  1  0.474055  -0.001159  0.064101  0.118718  -9.2e-05  3.883478  -0.001
C  C169  1  0.64653377  0.68641115  0.49903412  1  0.475704  0.001264  0.064807  0.119527  2e-05  3.882436  0.001
N  N170  1  0.36936086  0.05265275  0.68108276  1  -1.206488  0.079013  -0.347238  -0.257309  0.053076  3.664095  0.068
N  N171  1  0.13093828  0.55049555  0.81787376  1  -1.208317  0.079548  -0.348439  -0.257593  0.053488  3.663308  0.068
N  N172  1  0.63182881  0.94664211  0.31521194  1  -1.209088  -0.080982  -0.348957  -0.261944  -0.056293  3.672579  -0.069
N  N173  1  0.86825469  0.44700966  0.18439605  1  -1.209963  0.080933  -0.349514  -0.261736  0.054418  3.671254  0.069
N  N174  1  0.18176691  0.25499377  0.84233640  1  -1.224169  0.085122  -0.351926  -0.250876  0.057032  3.679679  0.072
N  N175  1  0.31762719  0.75698406  0.65731506  1  -1.195375  0.086125  -0.350766  -0.249869  0.057663  3.678281  0.073
N  N176  1  0.81437634  0.74254170  0.16036297  1  -1.20614  0.085443  -0.351974  -0.251325  0.057327  3.677444  0.073
N  N177  1  0.68621776  0.24208138  0.33927195  1  -1.20647  -0.085583  -0.351896  -0.251708  -0.059315  3.676767  -0.073
N  N178  1  0.04047940  0.85411421  0.00055711  1  -1.20176  0.078719  -0.348394  -0.239594  0.05326  3.662923  0.068
N  N179  1  0.45986304  0.35390833  0.49939823  1  -1.208302  -0.078518  -0.34839  -0.240407  -0.054934  3.660771  -0.068
N  N180  1  0.96230285  0.14638400  0.00109727  1  -1.219846  0.08013  -0.348946  -0.238115  0.054136  3.660998  0.069
N  N181  1  0.53810615  0.64615143  0.49881858  1  -1.220868  -0.080092  -0.348597  -0.23675  -0.055934  3.658561  -0.069
O  O182  1  0.17294675  0.94936138  0.66573425  1  -1.099004  0.081658  -0.304559  -0.530997  0.053492  2.33863  0.075
O  O183  1  0.32729534  0.44707049  0.83388935  1  -1.128507  0.082106  -0.305074  -0.532085  0.053763  2.336478  0.075
O  O184  1  0.82694995  0.05084080  0.32992760  1  -1.106168  -0.084768  -0.307416  -0.531876  -0.057431  2.367096  -0.078
O  O185  1  0.67317644  0.55136396  0.16969832  1  -1.115241  0.084843  -0.306901  -0.531533  0.055541  2.364518  0.078
O  O186  1  0.06357793  0.09049714  0.64831644  1  -1.178591  0.01365  -0.376788  -0.613056  0.008862  2.391421  0.012
O  O187  1  0.43599471  0.58800375  0.85337061  1  -1.177796  0.01383  -0.377837  -0.61271  0.008963  2.391315  0.012
O  O188  1  0.93728429  0.91170260  0.35208774  1  -1.179958  -0.014327  -0.370732  -0.617663  -0.009645  2.403104  -0.012
O  O189  1  0.56292333  0.41247978  0.14692836  1  -1.179931  0.014391  -0.371153  -0.618311  0.009336  2.40161  0.012
O  O190  1  0.12426721  0.28315421  0.59344027  1  -1.165745  0.002653  -0.326404  -0.555774  0.001664  2.142785  0.002
O  O191  1  0.37572034  0.78081657  0.90708022  1  -1.17008  0.002578  -0.326518  -0.556367  0.001617  2.144903  0.002
O  O192  1  0.87668746  0.72049318  0.40823983  1  -1.17117  -0.001301  -0.330144  -0.562128  -0.000804  2.142231  -0.001
O  O193  1  0.62350504  0.22118763  0.09120220  1  -1.178543  0.001321  -0.330115  -0.56182  0.000784  2.143271  0.001
O  O194  1  0.14080519  0.34877287  0.70333457  1  -1.169416  0.004483  -0.338598  -0.602841  0.002792  2.198502  0.005
O  O195  1  0.35844127  0.84683842  0.79712103  1  -1.174845  0.004616  -0.338822  -0.602709  0.002843  2.188528  0.005
O  O196  1  0.86070735  0.64948123  0.29994291  1  -1.177389  -0.002104  -0.337671  -0.600024  -0.001362  2.198443  -0.001
O  O197  1  0.63928119  0.14996716  0.19961459  1  -1.173542  0.002164  -0.337476  -0.599044  0.001343  2.196893  0.001
O  O198  1  0.98575829  0.36193817  0.83184843  1  -1.102694  0.094504  -0.311242  -0.536072  0.061635  2.350398  0.087
O  O199  1  0.51378770  0.86345534  0.66786872  1  -1.104827  0.09516  -0.311263  -0.535988  0.062018  2.352672  0.087
O  O200  1  0.01064537  0.63600883  0.16867756  1  -1.109114  0.094687  -0.312563  -0.533959  0.06172  2.365709  0.087
O  O201  1  0.48990906  0.13573036  0.33111895  1  -1.113567  -0.094875  -0.312751  -0.533432  -0.064082  2.367416  -0.087
O  O202  1  0.87144809  0.22224685  0.83697438  1  -1.164137  0.023343  -0.295115  -0.500739  0.015047  2.187094  0.02
O  O203  1  0.62780862  0.72347621  0.66397155  1  -1.15998  0.023556  -0.294446  -0.499673  0.015157  2.187823  0.02
O  O204  1  0.12477942  0.77558696  0.16224071  1  -1.161605  0.023283  -0.28949  -0.496592  0.014973  2.186434  0.02
O  O205  1  0.37584655  0.27532978  0.33745227  1  -1.159224  -0.023428  -0.28916  -0.49501  -0.015578  2.185372  -0.02
O  O206  1  0.91696439  0.03595636  0.75736236  1  -1.216409  0.001607  -0.448473  -0.743691  0.001063  2.384659  0.001
O  O207  1  0.58038415  0.53521942  0.74359880  1  -1.221332  0.001819  -0.447119  -0.742749  0.00113  2.374107  0.001
O  O208  1  0.07820275  0.96482913  0.23979034  1  -1.21066  0.001624  -0.433925  -0.704813  0.001077  2.34784  0.001
O  O209  1  0.42260937  0.46437520  0.25962757  1  -1.209883  -0.001625  -0.433813  -0.705692  -0.001115  2.347469  -0.001
O  O210  1  0.95525824  0.95963486  0.86147739  1  -1.148249  0.001391  -0.309314  -0.544843  0.000767  2.133217  0.002
O  O211  1  0.54449463  0.46255135  0.63815435  1  -1.150973  0.003717  -0.31013  -0.546762  0.002388  2.135419  0.002
O  O212  1  0.04520825  0.03212854  0.13210105  1  -1.151686  0.001275  -0.312665  -0.552877  0.000796  2.163701  0.002
O  O213  1  0.45573303  0.53220556  0.36701139  1  -1.151146  -0.001239  -0.312896  -0.554345  -0.000822  2.158235  -0.002
O  O214  1  0.83732670  0.95126832  0.00260625  1  -1.116347  0.10586  -0.314504  -0.510162  0.068909  2.331573  0.096
O  O215  1  0.66304547  0.45102421  0.49733012  1  -1.11082  -0.105484  -0.314277  -0.508974  -0.071052  2.332139  -0.095
O  O216  1  0.16607322  0.05093618  0.99755774  1  -1.075291  0.107002  -0.315148  -0.5083  0.069424  2.321984  0.097
O  O217  1  0.33428760  0.55065865  0.50209447  1  -1.078732  -0.107091  -0.315237  -0.508356  -0.071907  2.321176  -0.097
O  O218  1  0.73249817  0.80533750  0.99523879  1  -1.169501  0.016721  -0.301961  -0.516843  0.010687  2.210496  0.014
O  O219  1  0.76774310  0.30489532  0.50410017  1  -1.17128  -0.016634  -0.301947  -0.516915  -0.01102  2.211659  -0.014
O  O220  1  0.26947361  0.19769751  0.00265981  1  -1.177305  0.017782  -0.299023  -0.511426  0.011355  2.209464  0.015
O  O221  1  0.23093730  0.69751202  0.49691532  1  -1.17795  -0.017928  -0.29907  -0.512157  -0.011857  2.21019  -0.015
O  O222  1  0.79895209  0.57908954  0.03198151  1  -1.157865  0.001108  -0.302742  -0.568295  0.00058  2.230693  0.002
O  O223  1  0.70159922  0.07794529  0.46864547  1  -1.162623  -0.001054  -0.302447  -0.566505  -0.000591  2.227199  -0.001
O  O224  1  0.19746822  0.42582925  0.96825642  1  -1.176901  0.001809  -0.306848  -0.578043  0.00106  2.221225  0.002
O  O225  1  0.30257552  0.92542449  0.53143564  1  -1.177998  -0.001241  -0.307063  -0.578981  -0.000878  2.225317  0.0
O  O226  1  0.80695414  0.60656881  0.91547337  1  -1.18825  0.001175  -0.410175  -0.673147  0.000725  2.287038  0.001
O  O227  1  0.69343621  0.10754196  0.58482632  1  -1.190495  -0.001155  -0.411993  -0.674323  -0.000758  2.292176  -0.001
O  O228  1  0.19214860  0.39637298  0.08485279  1  -1.183925  0.001395  -0.399438  -0.650129  0.000869  2.263296  0.001
O  O229  1  0.30777231  0.89606343  0.41492505  1  -1.182742  -0.000957  -0.399256  -0.650103  -0.000578  2.265602  -0.001
O  O230  1  0.77069703  0.20110431  0.71239400  1  -1.26532  -4.8e-05  -0.625069  -0.823977  -3.4e-05  2.050464  0.0
O  O231  1  0.72916320  0.69912904  0.78796364  1  -1.267328  -1.9e-05  -0.62491  -0.823712  -2.1e-05  2.051874  0.0
O  O232  1  0.22801473  0.80180718  0.28707949  1  -1.258579  -0.000253  -0.622  -0.821999  -0.000161  2.036836  0.0
O  O233  1  0.27253012  0.30176372  0.21250027  1  -1.256489  0.000258  -0.622176  -0.821665  0.00016  2.036716  0.0
O  O234  1  0.90453232  0.22890308  0.60087736  1  -1.303801  0.000407  -0.657946  -0.90025  0.000275  2.056706  0.0
O  O235  1  0.59542226  0.72758494  0.89938474  1  -1.30839  0.000544  -0.659087  -0.900807  0.000352  2.055767  0.0
O  O236  1  0.09690572  0.77825681  0.39956617  1  -1.279215  -0.000599  -0.65275  -0.90194  -0.000401  2.073376  0.0
O  O237  1  0.40326781  0.27914889  0.09966491  1  -1.319046  0.000611  -0.652554  -0.901528  0.000395  2.0737  0.0
O  O238  1  0.72489909  0.95417309  0.69248352  1  -1.262606  0.001533  -0.633375  -0.860665  0.000959  2.087385  0.001
O  O239  1  0.77331037  0.45196378  0.80871497  1  -1.311074  0.001478  -0.634899  -0.864002  0.000917  2.086914  0.001
O  O240  1  0.28220857  0.04305494  0.30396117  1  -1.273221  -0.001788  -0.638611  -0.85522  -0.001174  2.088586  -0.002
O  O241  1  0.21795984  0.54278110  0.19606423  1  -1.265547  0.0018  -0.638942  -0.854492  0.001137  2.090083  0.002
O  O242  1  0.89585223  0.01057028  0.52629968  1  -1.25266  -0.000158  -0.600134  -0.824912  -0.000113  2.06858  0.0
O  O243  1  0.60409259  0.51224548  0.97531374  1  -1.263822  0.000149  -0.601671  -0.826611  7.6e-05  2.073904  0.0
O  O244  1  0.11739140  0.00858883  0.46508921  1  -1.297186  -8.1e-05  -0.643135  -0.889397  -3.2e-05  2.059912  0.0
O  O245  1  0.38146633  0.51015998  0.03467768  1  -1.313591  0.000158  -0.643954  -0.890469  8.7e-05  2.064053  0.0
O  O246  1  0.94711961  0.89271466  0.63799979  1  -1.244358  0.001335  -0.609659  -0.835437  0.000833  2.040457  0.001
O  O247  1  0.55236984  0.39134665  0.86592529  1  -1.242953  0.001333  -0.608147  -0.835672  0.000828  2.039847  0.001
O  O248  1  0.05390906  0.11380521  0.34471109  1  -1.216464  -0.001428  -0.616803  -0.822291  -0.000915  2.033094  -0.001
O  O249  1  0.44600667  0.61437221  0.15502310  1  -1.249725  0.001425  -0.615739  -0.821258  0.000879  2.033254  0.001
