# generated using pymatgen
data_ZnH10C20N3(ClO2)2
_symmetry_space_group_name_H-M   'P 1'
_cell_length_a   15.90704565
_cell_length_b   17.30287646
_cell_length_c   18.10073123
_cell_angle_alpha   90.21565552
_cell_angle_beta   92.44845679
_cell_angle_gamma   95.74005491
_symmetry_Int_Tables_number   1
_chemical_formula_structural   ZnH10C20N3(ClO2)2
_chemical_formula_sum   'Zn2 H20 C40 N6 Cl4 O8'
_cell_volume   4952.33503134
_cell_formula_units_Z   2
loop_
 _symmetry_equiv_pos_site_id
 _symmetry_equiv_pos_as_xyz
  1  'x, y, z'
loop_
 _atom_site_type_symbol
 _atom_site_label
 _atom_site_symmetry_multiplicity
 _atom_site_fract_x
 _atom_site_fract_y
 _atom_site_fract_z
 _atom_site_occupancy
 _atom_site_pbe_bader_charge
 _atom_site_pbe_bader_spin_density
 _atom_site_pbe_cm5_charge
 _atom_site_pbe_ddec_charge
 _atom_site_pbe_ddec_spin_density
 _atom_site_pbe_ddec_sum_bond_order
 _atom_site_pbe_magmom
Zn  Zn0  1  0.41178352  0.49601744  0.49668652  1  1.280101  0  0.667482  0.81971  0  2.427271  0
Zn  Zn1  1  0.58821280  0.50399262  0.50329188  1  1.275487  0  0.667776  0.819945  0  2.426673  0
H  H2  1  0.71621328  0.42562506  0.42518475  1  0.134909  0  0.12869  0.106194  0  0.975311  0
H  H3  1  0.87539123  0.42682529  0.42704319  1  0.12394  0  0.118983  0.127202  0  0.999467  0
H  H4  1  0.88865697  0.60037806  0.60012421  1  0.131324  0  0.122784  0.133639  0  0.974493  0
H  H5  1  0.72835320  0.59150700  0.59144322  1  0.13514  0  0.129566  0.106055  0  0.972841  0
H  H6  1  0.11133483  0.39965465  0.39986513  1  0.131206  0  0.122806  0.13373  0  0.974651  0
H  H7  1  0.12460144  0.57320974  0.57294178  1  0.12373  0  0.119051  0.127374  0  0.999267  0
H  H8  1  0.28377673  0.57441460  0.57479737  1  0.134758  0  0.12868  0.105984  0  0.975368  0
H  H9  1  0.27163732  0.40850771  0.40855763  1  0.135488  0  0.129533  0.106188  0  0.97264  0
H  H10  1  0.62133202  0.25904734  0.50472865  1  0.111402  0  0.103661  0.107915  0  0.999594  0
H  H11  1  0.61429055  0.11308421  0.50475592  1  0.104764  0  0.103965  0.104026  0  1.018631  0
H  H12  1  0.34295925  0.09985500  0.49389830  1  0.081976  0  0.105551  0.106565  0  0.997414  0
H  H13  1  0.35047096  0.24634898  0.49381999  1  0.110162  0  0.103787  0.109111  0  0.999938  0
H  H14  1  0.65701965  0.90015684  0.50618773  1  0.083027  0  0.105586  0.106694  0  0.997093  0
H  H15  1  0.38568980  0.88692938  0.49533018  1  0.105197  0  0.103787  0.10421  0  1.018797  0
H  H16  1  0.37864342  0.74096739  0.49535616  1  0.111973  0  0.103735  0.108021  0  0.999963  0
H  H17  1  0.64950479  0.75366281  0.50621344  1  0.110636  0  0.103816  0.109248  0  1.000156  0
H  H18  1  0.36399922  0.49445753  0.87280573  1  0.095147  0  0.109026  0.127399  0  0.991255  0
H  H19  1  0.63600589  0.50505806  0.88296447  1  0.10424  0  0.109052  0.127818  0  0.989984  0
H  H20  1  0.36397936  0.49469300  0.11702768  1  0.107572  0  0.10905  0.127651  0  0.990487  0
H  H21  1  0.63599587  0.50530340  0.12716251  1  0.093976  0  0.108987  0.127204  0  0.990894  0
C  C22  1  0.49104673  0.34786037  0.49855625  1  1.519183  0  0.214655  0.589916  0  4.169473  0
C  C23  1  0.50010506  0.49946531  0.35443919  1  1.597529  0  0.211267  0.609749  0  4.166646  0
C  C24  1  0.50892480  0.65214731  0.50143503  1  1.519914  0  0.214037  0.589019  0  4.169764  0
C  C25  1  0.49994351  0.50046185  0.64553651  1  1.596416  0  0.211021  0.609457  0  4.166616  0
C  C26  1  0.75737892  0.46307374  0.46290008  1  0.493441  0  0.062992  0.112383  0  3.902223  0
C  C27  1  0.84466972  0.46391832  0.46393131  1  0.005194  0  -0.068664  -0.179511  0  3.906944  0
C  C28  1  0.89299360  0.51419104  0.51406250  1  0.347181  0  0.106129  0.20092  0  4.029106  0
C  C29  1  0.85188252  0.56123124  0.56093181  1  0.031664  0  -0.065113  -0.179408  0  3.903706  0
C  C30  1  0.76396913  0.55664174  0.55621745  1  0.435496  0  0.066055  0.114672  0  3.898492  0
C  C31  1  0.14811134  0.43880321  0.43905541  1  0.035293  0  -0.064921  -0.179393  0  3.90423  0
C  C32  1  0.10700291  0.48584458  0.48592537  1  0.343694  0  0.105921  0.200968  0  4.029134  0
C  C33  1  0.15532528  0.53611497  0.53605484  1  0.005098  0  -0.068706  -0.179852  0  3.906905  0
C  C34  1  0.24261728  0.53695897  0.53708557  1  0.493242  0  0.063316  0.113071  0  3.90185  0
C  C35  1  0.23602412  0.44338690  0.44377360  1  0.435568  0  0.066083  0.114646  0  3.898277  0
C  C36  1  0.48630624  0.26088434  0.49876036  1  -0.045622  0  -0.012717  -0.022103  0  3.942969  0
C  C37  1  0.56083982  0.22335477  0.50205052  1  0.00588  0  -0.083003  -0.082015  0  3.977739  0
C  C38  1  0.55716450  0.14297832  0.50220524  1  -0.068043  0  -0.084917  -0.141212  0  3.953224  0
C  C39  1  0.47790279  0.09848459  0.49905606  1  0.360133  0  0.087497  0.172742  0  4.041933  0
C  C40  1  0.40337706  0.13579664  0.49604015  1  -0.067139  0  -0.081734  -0.141285  0  3.965857  0
C  C41  1  0.40758755  0.21643762  0.49589515  1  -0.004871  0  -0.084378  -0.08748  0  3.985476  0
C  C42  1  0.59659978  0.86421346  0.50404636  1  -0.070157  0  -0.08164  -0.141358  0  3.96569  0
C  C43  1  0.52207323  0.90152376  0.50103152  1  0.363163  0  0.08739  0.172791  0  4.042379  0
C  C44  1  0.44281069  0.85703410  0.49788453  1  -0.069721  0  -0.084911  -0.141991  0  3.954573  0
C  C45  1  0.43913430  0.77665938  0.49803369  1  0.005263  0  -0.083051  -0.082086  0  3.978354  0
C  C46  1  0.51366655  0.73912920  0.50129065  1  -0.045545  0  -0.012674  -0.021417  0  3.941894  0
C  C47  1  0.59239123  0.78357304  0.50416381  1  -0.004982  0  -0.0844  -0.087872  0  3.985161  0
C  C48  1  0.49994763  0.50020266  0.72929775  1  0.051316  0  -0.015204  -0.14609  0  3.822914  0
C  C49  1  0.42412433  0.49706262  0.76876837  1  0.04501  0  0.026967  0.162949  0  3.992907  0
C  C50  1  0.42390688  0.49696923  0.84569997  1  0.039957  0  -0.091931  -0.207512  0  3.936051  0
C  C51  1  0.50002426  0.49998299  0.88817538  1  0.127248  0  0.006098  0.179378  0  4.138033  0
C  C52  1  0.57608327  0.50291387  0.85138082  1  0.083421  0  -0.092098  -0.207927  0  3.935799  0
C  C53  1  0.57577828  0.50294018  0.77441732  1  0.044523  0  0.027229  0.163191  0  3.991917  0
C  C54  1  0.50003337  0.49990569  0.96629060  1  -0.326798  0  -0.03547  -0.091272  0  4.083263  0
C  C55  1  0.49995254  0.49982792  0.03367723  1  -0.098766  0  -0.035402  -0.091164  0  4.082541  0
C  C56  1  0.49996892  0.49978955  0.11179725  1  0.127669  0  0.005871  0.179335  0  4.137496  0
C  C57  1  0.42390897  0.49685577  0.14860060  1  0.079838  0  -0.091845  -0.207247  0  3.935348  0
C  C58  1  0.42422992  0.49686725  0.22556480  1  0.044484  0  0.02717  0.162514  0  3.992244  0
C  C59  1  0.50006474  0.49965007  0.27067748  1  0.050257  0  -0.015425  -0.146288  0  3.822961  0
C  C60  1  0.57588214  0.50275816  0.23120268  1  0.046072  0  0.027453  0.163166  0  3.992303  0
C  C61  1  0.57609099  0.50279403  0.15427169  1  0.041008  0  -0.092186  -0.207379  0  3.935305  0
N  N62  1  0.71798146  0.50856860  0.50811416  1  -1.220335  0  -0.308444  -0.180334  0  3.485907  0
N  N63  1  0.98261154  0.52171011  0.52159151  1  -0.449535  0  -0.129442  -0.115614  0  3.229882  0
N  N64  1  0.01738095  0.47832317  0.47839511  1  -0.501094  0  -0.129275  -0.115314  0  3.229446  0
N  N65  1  0.28201443  0.49146122  0.49187533  1  -1.21968  0  -0.308723  -0.180813  0  3.485686  0
N  N66  1  0.46607974  0.01644040  0.49884048  1  -0.452379  0  -0.152578  -0.142775  0  3.286169  0
N  N67  1  0.53389904  0.98357029  0.50124721  1  -0.507628  0  -0.152178  -0.141561  0  3.285505  0
Cl  Cl68  1  0.32344214  0.49266456  0.72707572  1  -0.187374  0  -0.017201  -0.08589  0  1.526951  0
Cl  Cl69  1  0.67633538  0.50598967  0.74024202  1  -0.188355  0  -0.017731  -0.086543  0  1.526679  0
Cl  Cl70  1  0.32366737  0.49370684  0.25974677  1  -0.188204  0  -0.017877  -0.086549  0  1.527112  0
Cl  Cl71  1  0.67656629  0.50722821  0.27287904  1  -0.187161  0  -0.017148  -0.08582  0  1.527497  0
O  O72  1  0.42124636  0.37829726  0.49565687  1  -1.16545  0  -0.319029  -0.547371  0  2.323716  0
O  O73  1  0.56459028  0.38483557  0.50136213  1  -1.166806  0  -0.319162  -0.548445  0  2.324702  0
O  O74  1  0.57122181  0.50267480  0.38942788  1  -1.158839  0  -0.316784  -0.544859  0  2.407014  0
O  O75  1  0.42900755  0.49618521  0.38414566  1  -1.157915  0  -0.316403  -0.544746  0  2.406645  0
O  O76  1  0.57871039  0.62170828  0.50389188  1  -1.164572  0  -0.31874  -0.546957  0  2.324265  0
O  O77  1  0.43536398  0.61517471  0.49903513  1  -1.166584  0  -0.318488  -0.547897  0  2.32413  0
O  O78  1  0.42877950  0.49673483  0.61054235  1  -1.157866  0  -0.316765  -0.544832  0  2.405906  0
O  O79  1  0.57106145  0.50434478  0.61584470  1  -1.158888  0  -0.316144  -0.544569  0  2.407604  0
