# generated using pymatgen
data_ZnH16C31N2Cl4O9
_symmetry_space_group_name_H-M   'P 1'
_cell_length_a   16.50797466
_cell_length_b   17.60901974
_cell_length_c   23.47719240
_cell_angle_alpha   90.36536567
_cell_angle_beta   89.51790111
_cell_angle_gamma   89.22945827
_symmetry_Int_Tables_number   1
_chemical_formula_structural   ZnH16C31N2Cl4O9
_chemical_formula_sum   'Zn2 H32 C62 N4 Cl8 O18'
_cell_volume   6823.56504286
_cell_formula_units_Z   2
loop_
 _symmetry_equiv_pos_site_id
 _symmetry_equiv_pos_as_xyz
  1  'x, y, z'
loop_
 _atom_site_type_symbol
 _atom_site_label
 _atom_site_symmetry_multiplicity
 _atom_site_fract_x
 _atom_site_fract_y
 _atom_site_fract_z
 _atom_site_occupancy
 _atom_site_pbe_bader_charge
 _atom_site_pbe_bader_spin_density
 _atom_site_pbe_cm5_charge
 _atom_site_pbe_ddec_charge
 _atom_site_pbe_ddec_spin_density
 _atom_site_pbe_ddec_sum_bond_order
 _atom_site_pbe_magmom
Zn  Zn0  1  0.41145562  0.49177180  0.50627938  1  1.258328  0  0.668332  0.816105  0  2.415241  0
Zn  Zn1  1  0.58204120  0.48813687  0.50370892  1  1.291669  0  0.671185  0.82184  0  2.436938  0
H  H2  1  0.28567820  0.42803386  0.43199258  1  0.138461  0  0.134235  0.112667  0  0.963309  0
H  H3  1  0.63023521  0.72654314  0.48492099  1  0.10507  0  0.107994  0.133222  0  0.996766  0
H  H4  1  0.13346122  0.42857533  0.42648306  1  0.079193  0  0.121342  0.130527  0  0.973664  0
H  H5  1  0.85745544  0.57785891  0.57200893  1  0.098807  0  0.120666  0.130187  0  0.973557  0
H  H6  1  0.12907980  0.56860363  0.57878840  1  0.10646  0  0.12074  0.129874  0  0.974543  0
H  H7  1  0.86629441  0.41767235  0.43131665  1  0.086494  0  0.120566  0.129886  0  0.974694  0
H  H8  1  0.52050066  0.36344084  0.36363427  1  0.059556  0  0.095398  0.101693  0  1.013904  0
H  H9  1  0.51514137  0.31984019  0.29435730  1  0.046248  0  0.095793  0.09195  0  0.985666  0
H  H10  1  0.44133181  0.29793061  0.34839216  1  0.072282  0  0.105376  0.115921  0  0.981484  0
H  H11  1  0.55004376  0.72836967  0.69069221  1  0.033833  0  0.095247  0.08751  0  1.002707  0
H  H12  1  0.47555195  0.69854435  0.64000287  1  0.067423  0  0.100351  0.103073  0  0.978967  0
H  H13  1  0.70530772  0.56800092  0.57031096  1  0.132215  0  0.133573  0.112555  0  0.968976  0
H  H14  1  0.57470007  0.72464598  0.61611612  1  0.058458  0  0.107613  0.11808  0  0.981548  0
H  H15  1  0.32638663  0.85509135  0.38144868  1  0.04177  0  0.097102  0.095121  0  0.983514  0
H  H16  1  0.36982045  0.94584298  0.39858449  1  0.065829  0  0.093756  0.096399  0  1.030301  0
H  H17  1  0.26745961  0.92625959  0.41879170  1  0.024844  0  0.105412  0.109704  0  0.977429  0
H  H18  1  0.63385673  0.03077276  0.52348413  1  0.054978  0  0.095773  0.096089  0  1.002632  0
H  H19  1  0.68840858  0.11732253  0.53597084  1  0.045259  0  0.093255  0.087591  0  0.992921  0
H  H20  1  0.73325636  0.04196830  0.49376445  1  0.06036  0  0.106558  0.112881  0  0.972891  0
H  H21  1  0.30253223  0.12748952  0.52600955  1  0.0442  0  0.094124  0.088824  0  0.992518  0
H  H22  1  0.34963688  0.03557897  0.51444120  1  0.058544  0  0.096208  0.097219  0  1.001917  0
H  H23  1  0.25559412  0.05874771  0.48056208  1  0.068748  0  0.105779  0.109738  0  0.976791  0
H  H24  1  0.28144285  0.55969164  0.57858924  1  0.147574  0  0.133404  0.1116  0  0.961947  0
H  H25  1  0.61450826  0.92795626  0.38224225  1  0.078735  0  0.094633  0.095242  0  1.018998  0
H  H26  1  0.66903920  0.83952752  0.37144889  1  0.031434  0  0.092571  0.089908  0  0.994114  0
H  H27  1  0.71956706  0.92116437  0.39985739  1  0.027092  0  0.107162  0.114008  0  0.971539  0
H  H28  1  0.71395513  0.41505467  0.43585163  1  0.126246  0  0.133022  0.109683  0  0.960616  0
H  H29  1  0.44199331  0.43564140  0.20465946  1  0.090279  0  0.11991  0.146376  0  0.964951  0
H  H30  1  0.57408444  0.64740325  0.76533185  1  0.054746  0  0.118143  0.143309  0  0.973309  0
H  H31  1  0.36928504  0.73067785  0.49415766  1  0.107096  0  0.110378  0.13693  0  0.992969  0
H  H32  1  0.63030807  0.24897009  0.47526195  1  0.093406  0  0.110091  0.13374  0  0.996616  0
H  H33  1  0.36954165  0.25529324  0.46887612  1  0.118983  0  0.109946  0.132469  0  0.995754  0
C  C34  1  0.50110733  0.34353801  0.48807649  1  1.568715  0  0.214398  0.587698  0  4.170099  0
C  C35  1  0.53780811  0.57605547  0.69479207  1  0.474672  0  0.090806  0.254295  0  4.034697  0
C  C36  1  0.46542098  0.47837724  0.23366581  1  0.03294  0  -0.089424  -0.247705  0  3.953094  0
C  C37  1  0.54403187  0.59552776  0.75230981  1  0.133003  0  -0.09365  -0.260164  0  3.964434  0
C  C38  1  0.49995177  0.54414822  0.21266720  1  0.32667  0  0.084185  0.161878  0  4.045716  0
C  C39  1  0.51320826  0.54737255  0.79347331  1  0.385936  0  0.084488  0.166318  0  4.046349  0
C  C40  1  0.42476262  0.83561006  0.47033117  1  0.479103  0  0.088165  0.227071  0  4.037115  0
C  C41  1  0.57317796  0.14194026  0.45918977  1  0.505121  0  0.085697  0.223774  0  4.039093  0
C  C42  1  0.42575797  0.14556591  0.45537154  1  0.482951  0  0.086123  0.221909  0  4.039891  0
C  C43  1  0.57256829  0.83312109  0.46500888  1  0.495039  0  0.085929  0.225153  0  4.035614  0
C  C44  1  0.42604359  0.75991082  0.48680017  1  0.012939  0  -0.099899  -0.226911  0  3.984974  0
C  C45  1  0.49972821  0.63779366  0.50601880  1  1.567672  0  0.211774  0.582794  0  4.177335  0
C  C46  1  0.57322203  0.21956956  0.46998511  1  -0.017797  0  -0.096636  -0.224817  0  3.980163  0
C  C47  1  0.42633174  0.22319448  0.46645258  1  -0.006738  0  -0.097393  -0.229248  0  3.990699  0
C  C48  1  0.57297391  0.75751926  0.48161555  1  -0.070872  0  -0.104596  -0.234629  0  4.001486  0
C  C49  1  0.49977191  0.72084466  0.49272888  1  0.040105  0  -0.018795  0.001458  0  4.024701  0
C  C50  1  0.49991478  0.26028871  0.47461273  1  0.029098  0  -0.016312  0.005581  0  4.0025  0
C  C51  1  0.49835735  0.87465232  0.46021069  1  0.159768  0  -0.017134  -0.076068  0  4.093318  0
C  C52  1  0.49914694  0.10270207  0.45330706  1  0.084646  0  -0.010682  -0.058081  0  4.091433  0
C  C53  1  0.49094893  0.50664493  0.39366596  1  1.639541  0  0.212081  0.61215  0  4.204864  0
C  C54  1  0.49553915  0.48980429  0.61565418  1  1.638957  0  0.214618  0.621597  0  4.191457  0
C  C55  1  0.49850573  0.95365261  0.45152133  1  -0.159157  0  -0.034894  -0.071217  0  4.154346  0
C  C56  1  0.53041476  0.59940793  0.24957256  1  0.170898  0  0.008182  0.011145  0  4.021175  0
C  C57  1  0.49865251  0.02292624  0.44902949  1  -0.209551  0  -0.034369  -0.068986  0  4.126645  0
C  C58  1  0.16404697  0.45841455  0.46070615  1  0.023104  0  -0.067288  -0.166574  0  3.902979  0
C  C59  1  0.82783146  0.54126411  0.54122397  1  0.016591  0  -0.067301  -0.16735  0  3.90134  0
C  C60  1  0.16159900  0.53662265  0.54578820  1  -0.035837  0  -0.06786  -0.167405  0  3.906647  0
C  C61  1  0.83280876  0.45175869  0.46262802  1  0.047704  0  -0.067765  -0.168136  0  3.906648  0
C  C62  1  0.24793970  0.45748714  0.46370315  1  0.479443  0  0.066878  0.110054  0  3.91134  0
C  C63  1  0.74404140  0.53613934  0.54051421  1  0.473599  0  0.067897  0.112219  0  3.904344  0
C  C64  1  0.24555625  0.53214098  0.54581020  1  0.528858  0  0.065891  0.107819  0  3.917463  0
C  C65  1  0.74888783  0.45004685  0.46494265  1  0.488079  0  0.065621  0.107529  0  3.922918  0
C  C66  1  0.11902548  0.49868123  0.50257200  1  0.154226  0  0.023516  0.175564  0  4.108871  0
C  C67  1  0.47469350  0.47978859  0.77831293  1  0.139632  0  0.006698  0.00646  0  4.016564  0
C  C68  1  0.87405755  0.49811209  0.50166020  1  0.030655  0  0.023808  0.177241  0  4.1074  0
C  C69  1  0.03344191  0.50022829  0.50161228  1  -0.376693  0  -0.025499  -0.087924  0  4.078258  0
C  C70  1  0.95960090  0.50023063  0.50144034  1  0.017461  0  -0.025979  -0.088304  0  4.078335  0
C  C71  1  0.46253276  0.61166552  0.87834566  1  1.382601  0  0.24154  0.455008  0  4.081803  0
C  C72  1  0.57457493  0.51978243  0.12566762  1  1.393069  0  0.241104  0.453517  0  4.089423  0
C  C73  1  0.58725605  0.52852701  0.88032632  1  1.36188  0  0.237509  0.448167  0  4.102925  0
C  C74  1  0.44719434  0.59950492  0.12625391  1  1.404711  0  0.240068  0.450913  0  4.088004  0
C  C75  1  0.59117233  0.54000941  0.94302577  1  0.081985  0  -0.008253  -0.107567  0  3.931421  0
C  C76  1  0.45444370  0.60756698  0.06324753  1  0.022711  0  -0.007277  -0.10713  0  3.920621  0
C  C77  1  0.52448231  0.57512226  0.97255102  1  -0.043448  0  0.003157  0.046309  0  3.97131  0
C  C78  1  0.52594898  0.58724156  0.30859665  1  0.087306  0  0.015037  0.087852  0  4.022518  0
C  C79  1  0.52078127  0.57210990  0.03337248  1  0.040151  0  0.004231  0.047314  0  3.967144  0
C  C80  1  0.46255011  0.61440471  0.94185406  1  0.011411  0  -0.008185  -0.110391  0  3.925239  0
C  C81  1  0.58414571  0.53437630  0.06366542  1  0.048294  0  -0.007776  -0.108491  0  3.926162  0
C  C82  1  0.65786069  0.51330521  0.97376211  1  0.097839  0  0.029434  0.087433  0  3.997687  0
C  C83  1  0.39721242  0.65004912  0.03285093  1  0.167485  0  0.029361  0.087117  0  3.990281  0
C  C84  1  0.65429593  0.51027042  0.03446241  1  0.101878  0  0.02975  0.08743  0  3.995683  0
C  C85  1  0.40170294  0.65403503  0.97199497  1  0.088009  0  0.030021  0.087476  0  3.9908  0
C  C86  1  0.47931265  0.34261622  0.33059429  1  0.378706  0  -0.137686  -0.164116  0  3.89745  0
C  C87  1  0.54049310  0.69754190  0.65042175  1  0.398707  0  -0.134092  -0.163894  0  3.906585  0
C  C88  1  0.32827756  0.90156456  0.41301716  1  0.41521  0  -0.13867  -0.168895  0  3.913124  0
C  C89  1  0.46912033  0.46018824  0.72037302  1  0.072557  0  0.015588  0.095102  0  4.028641  0
C  C90  1  0.67647105  0.07157369  0.50499641  1  0.38402  0  -0.136517  -0.164672  0  3.927718  0
C  C91  1  0.31360010  0.08136531  0.49483197  1  0.374495  0  -0.13678  -0.163133  0  3.923658  0
C  C92  1  0.66236130  0.89034740  0.39884010  1  0.413393  0  -0.138392  -0.1669  0  3.915856  0
C  C93  1  0.49262908  0.52036520  0.33025779  1  0.087187  0  -0.016347  -0.161605  0  3.915609  0
C  C94  1  0.50071100  0.50795626  0.67842255  1  0.056484  0  -0.016988  -0.162413  0  3.91366  0
C  C95  1  0.46161179  0.46626553  0.29224296  1  0.526731  0  0.088508  0.253547  0  4.041473  0
N  N96  1  0.52263987  0.56519108  0.85294437  1  -1.18788  0  -0.239833  -0.225984  0  3.640928  0
N  N97  1  0.50709262  0.55451910  0.15209367  1  -1.19775  0  -0.238753  -0.222401  0  3.639566  0
N  N98  1  0.28774564  0.49330446  0.50561763  1  -1.229705  0  -0.315951  -0.190742  0  3.510116  0
N  N99  1  0.70556504  0.49126312  0.50312992  1  -1.222836  0  -0.316335  -0.19096  0  3.512058  0
Cl  Cl100  1  0.74557298  0.48394555  0.94107223  1  -0.111785  0  0.031188  -0.010957  0  1.618716  0
Cl  Cl101  1  0.32004183  0.69919157  0.06559142  1  -0.114776  0  0.033444  -0.007254  0  1.635826  0
Cl  Cl102  1  0.73804649  0.47700503  0.06883523  1  -0.113107  0  0.031697  -0.010565  0  1.621995  0
Cl  Cl103  1  0.33028251  0.70853542  0.93890181  1  -0.105764  0  0.031838  -0.009856  0  1.635321  0
Cl  Cl104  1  0.57296942  0.68018342  0.22242538  1  -0.185892  0  -0.013906  -0.066453  0  1.532079  0
Cl  Cl105  1  0.43580892  0.42218201  0.83040034  1  -0.189056  0  -0.012795  -0.063027  0  1.533662  0
Cl  Cl106  1  0.55951937  0.65605379  0.35486980  1  -0.183234  0  0.005632  -0.045446  0  1.608585  0
Cl  Cl107  1  0.42419100  0.37645478  0.70083482  1  -0.174898  0  -0.008852  -0.056845  0  1.505183  0
O  O108  1  0.43294675  0.37796202  0.49369458  1  -1.167138  0  -0.31799  -0.54814  0  2.320442  0
O  O109  1  0.61970900  0.47892408  0.15363910  1  -1.080258  0  -0.269678  -0.419814  0  2.131691  0
O  O110  1  0.63390878  0.48782043  0.85256815  1  -1.070624  0  -0.26787  -0.416298  0  2.133974  0
O  O111  1  0.39272301  0.62710213  0.15588301  1  -1.079417  0  -0.267752  -0.416865  0  2.144862  0
O  O112  1  0.42468053  0.40163220  0.31174759  1  -1.080933  0  -0.215027  -0.205125  0  2.506175  0
O  O113  1  0.57010788  0.62051942  0.65267609  1  -1.082512  0  -0.200487  -0.182122  0  2.539478  0
O  O114  1  0.35069393  0.87202322  0.46785271  1  -1.074341  0  -0.211232  -0.200286  0  2.526608  0
O  O115  1  0.64549346  0.10251265  0.45283805  1  -1.077772  0  -0.217532  -0.208403  0  2.514518  0
O  O116  1  0.35350766  0.10976268  0.44476183  1  -1.084023  0  -0.218143  -0.211081  0  2.520249  0
O  O117  1  0.64574161  0.86814166  0.45667148  1  -1.078259  0  -0.213268  -0.202089  0  2.520625  0
O  O118  1  0.56833806  0.60395967  0.50839087  1  -1.163852  0  -0.316875  -0.549014  0  2.349197  0
O  O119  1  0.43102214  0.60680816  0.51243929  1  -1.164402  0  -0.319023  -0.543508  0  2.327092  0
O  O120  1  0.57048539  0.37354705  0.49276324  1  -1.159641  0  -0.318062  -0.542746  0  2.3348  0
O  O121  1  0.42220836  0.50693238  0.41788411  1  -1.158784  0  -0.30733  -0.530514  0  2.292853  0
O  O122  1  0.56255289  0.47852873  0.59012851  1  -1.151932  0  -0.310939  -0.536143  0  2.312483  0
O  O123  1  0.42535586  0.48971557  0.59404124  1  -1.149155  0  -0.314725  -0.546979  0  2.31414  0
O  O124  1  0.55956548  0.49586557  0.41649299  1  -1.157497  0  -0.316374  -0.556943  0  2.329317  0
O  O125  1  0.41297265  0.64382631  0.84792056  1  -1.081253  0  -0.270326  -0.419529  0  2.136631  0
