# generated using pymatgen
data_Zn4H27C40N17O2
_symmetry_space_group_name_H-M   'P 1'
_cell_length_a   12.61002233
_cell_length_b   12.66975375
_cell_length_c   14.65428503
_cell_angle_alpha   124.91450264
_cell_angle_beta   82.35559805
_cell_angle_gamma   119.05057823
_symmetry_Int_Tables_number   1
_chemical_formula_structural   Zn4H27C40N17O2
_chemical_formula_sum   'Zn4 H27 C40 N17 O2'
_cell_volume   1643.66765817
_cell_formula_units_Z   1
loop_
 _symmetry_equiv_pos_site_id
 _symmetry_equiv_pos_as_xyz
  1  'x, y, z'
loop_
 _atom_site_type_symbol
 _atom_site_label
 _atom_site_symmetry_multiplicity
 _atom_site_fract_x
 _atom_site_fract_y
 _atom_site_fract_z
 _atom_site_occupancy
 _atom_site_pbe_bader_charge
 _atom_site_pbe_bader_spin_density
 _atom_site_pbe_cm5_charge
 _atom_site_pbe_ddec_charge
 _atom_site_pbe_ddec_spin_density
 _atom_site_pbe_ddec_sum_bond_order
 _atom_site_pbe_magmom
Zn  Zn0  1  0.81456452  0.32379824  0.00541237  1  1.190266  0  0.748889  0.617983  0  2.456617  0
Zn  Zn1  1  0.20679470  0.70624705  0.99597723  1  1.224743  0  0.735534  0.648176  0  2.36289  0
Zn  Zn2  1  0.01688052  0.33471048  0.84016068  1  1.184036  0  0.734867  0.595415  0  2.492657  0
Zn  Zn3  1  0.98962998  0.68586363  0.15959121  1  1.190293  0  0.741719  0.610686  0  2.440011  0
H  H4  1  0.93096683  0.27058443  0.15171868  1  0.067852  0  0.115314  0.102093  0  1.01309  0
H  H5  1  0.21793648  0.22488519  0.72974697  1  0.059045  0  0.113208  0.101  0  0.998757  0
H  H6  1  0.95789514  0.75840666  0.41057498  1  0.07992  0  0.115029  0.101343  0  1.003885  0
H  H7  1  0.46454175  0.70218033  0.93624325  1  0.139697  0  0.114999  0.108301  0  1.027369  0
H  H8  1  0.70871217  0.28134178  0.20845055  1  0.064033  0  0.120094  0.109626  0  0.993855  0
H  H9  1  0.11632204  0.64750427  0.31886645  1  0.106084  0  0.122239  0.116202  0  1.007609  0
H  H10  1  0.21421109  0.32337692  0.95311018  1  0.110453  0  0.113226  0.104461  0  1.025542  0
H  H11  1  0.61581529  0.28176587  0.84896481  1  0.08746  0  0.110075  0.091741  0  1.035095  0
H  H12  1  0.08800026  0.77148763  0.85868831  1  0.089828  0  0.111749  0.09585  0  1.022671  0
H  H13  1  0.83384000  0.05029361  0.59731638  1  0.075121  0  0.118209  0.104684  0  0.996552  0
H  H14  1  0.99584625  0.98944786  0.25948099  1  0.095151  0  0.117781  0.107063  0  0.991634  0
H  H15  1  0.26457794  0.02160267  0.04632159  1  0.069322  0  0.116438  0.101625  0  0.994655  0
H  H16  1  0.56269411  0.02229023  0.80898906  1  0.076814  0  0.118953  0.106338  0  0.990474  0
H  H17  1  0.85398176  0.76152338  0.04621075  1  0.106922  0  0.115076  0.104676  0  1.017607  0
H  H18  1  0.83282617  0.29697750  0.67713969  1  0.104254  0  0.113007  0.09798  0  1.02995  0
H  H19  1  0.76485788  0.28585167  0.35776809  1  0.077344  0  0.097551  0.096751  0  1.010793  0
H  H20  1  0.81027541  0.29167621  0.51797447  1  0.028185  0  0.098492  0.099257  0  1.004303  0
H  H21  1  0.95946684  0.76697976  0.74008430  1  0.066105  0  0.098335  0.099728  0  1.001361  0
H  H22  1  0.91386584  0.76122330  0.57892806  1  0.041552  0  0.094212  0.092314  0  1.012397  0
H  H23  1  0.29110814  0.87902335  0.49670451  1  0.068813  0  0.098563  0.096211  0  1.004552  0
H  H24  1  0.43904684  0.98929222  0.66157824  1  0.048942  0  0.096018  0.093018  0  1.011987  0
H  H25  1  0.65160577  0.80235308  0.43613666  1  0.047979  0  0.100866  0.101255  0  0.999939  0
H  H26  1  0.50578416  0.69627819  0.27131089  1  0.111697  0  0.104544  0.1102  0  0.996681  0
H  H27  1  0.62648988  0.65799995  0.94003950  1  0.048199  0  0.099038  0.101887  0  0.995493  0
H  H28  1  0.46542872  0.31589513  0.78712379  1  0.041024  0  0.092998  0.093574  0  1.00666  0
H  H29  1  0.22362085  0.20075754  0.05633400  1  0.026906  0  0.095507  0.095561  0  0.998212  0
H  H30  1  0.02114255  0.16637914  0.19644336  1  0.038242  0  0.098334  0.101237  0  0.993654  0
C  C31  1  0.99102641  0.28946480  0.09608587  1  0.408352  0  0.007111  -0.05053  0  3.944461  0
C  C32  1  0.32948207  0.74679222  0.18702117  1  0.80788  0  0.183596  0.089445  0  3.947543  0
C  C33  1  0.26185104  0.34559807  0.78163539  1  0.398657  0  -0.001725  -0.074415  0  4.013095  0
C  C34  1  0.89648671  0.64079054  0.34518644  1  0.369606  0  0.000349  -0.066603  0  4.010796  0
C  C35  1  0.38754835  0.58863139  0.88701493  1  0.342503  0  0.001718  -0.050638  0  3.963769  0
C  C36  1  0.77088267  0.39776908  0.24212910  1  0.424388  0  0.006056  -0.056459  0  3.99173  0
C  C37  1  0.17690676  0.67653173  0.26744836  1  0.418134  0  0.015478  -0.054525  0  3.923956  0
C  C38  1  0.13565584  0.31702610  0.99488593  1  0.374097  0  0.003529  -0.060072  0  3.950016  0
C  C39  1  0.09788088  0.27671473  0.07043116  1  0.038749  0  -0.039906  0.013848  0  4.122188  0
C  C40  1  0.30526644  0.73301882  0.27825913  1  0.028879  0  -0.005665  -0.040216  0  3.99506  0
C  C41  1  0.38814986  0.45387762  0.82741116  1  0.035466  0  -0.044494  0.008054  0  4.140053  0
C  C42  1  0.83160101  0.52184538  0.35481666  1  0.01165  0  -0.036714  -0.03781  0  4.093064  0
C  C43  1  0.68715125  0.39788367  0.90531433  1  0.377016  0  0.007191  -0.045608  0  3.951771  0
C  C44  1  0.03495974  0.65479561  0.82612216  1  0.376469  0  0.006482  -0.048097  0  3.974386  0
C  C45  1  0.78332191  0.05836623  0.66506762  1  0.397501  0  0.006139  -0.058188  0  4.002899  0
C  C46  1  0.06411499  0.97943512  0.20611133  1  0.345367  0  0.001817  -0.069425  0  3.998902  0
C  C47  1  0.20063568  0.99594778  0.09742865  1  0.423376  0  0.007387  -0.051733  0  3.978464  0
C  C48  1  0.64508536  0.04622857  0.77302036  1  0.381498  0  0.007125  -0.05428  0  4.001141  0
C  C49  1  0.80917875  0.64275727  0.00605548  1  0.370031  0  0.009678  -0.047685  0  3.939472  0
C  C50  1  0.90556979  0.41251414  0.73273156  1  0.376445  0  0.007864  -0.045024  0  3.959432  0
C  C51  1  0.69583851  0.52629462  0.92803748  1  0.063529  0  -0.038181  0.013333  0  4.117054  0
C  C52  1  0.93770476  0.53407742  0.73080004  1  0.048661  0  -0.036246  -0.04024  0  4.07242  0
C  C53  1  0.65478598  0.99180407  0.65942883  1  0.064292  0  -0.036709  -0.046229  0  4.094757  0
C  C54  1  0.12466537  0.05624030  0.15720368  1  0.027827  0  -0.040842  0.009338  0  4.143181  0
C  C55  1  0.80668118  0.39221192  0.44161985  1  -0.070762  0  -0.097575  -0.133787  0  4.008726  0
C  C56  1  0.83243157  0.39551187  0.53272241  1  -0.008468  0  -0.093622  -0.127597  0  3.99506  0
C  C57  1  0.89307921  0.53060182  0.64145099  1  -0.002534  0  -0.010591  0.085057  0  4.041579  0
C  C58  1  0.91780392  0.66091635  0.65604379  1  -0.064452  0  -0.097298  -0.133819  0  3.999101  0
C  C59  1  0.89196717  0.65765042  0.56470866  1  -0.041649  0  -0.100599  -0.139388  0  4.015801  0
C  C60  1  0.84001221  0.52400536  0.45445259  1  0.003662  0  -0.017868  0.073169  0  4.065703  0
C  C61  1  0.36937968  0.86037662  0.48309168  1  -0.039366  0  -0.090615  -0.121154  0  3.995582  0
C  C62  1  0.45251226  0.92195126  0.57591565  1  -0.089755  0  -0.096953  -0.137774  0  4.005217  0
C  C63  1  0.55830379  0.90721639  0.56132497  1  0.012829  0  -0.006169  0.094256  0  4.044663  0
C  C64  1  0.57318869  0.82080706  0.44968458  1  -0.051603  0  -0.092587  -0.131974  0  3.983059  0
C  C65  1  0.49074440  0.76028475  0.35665319  1  -0.042441  0  -0.085856  -0.109881  0  3.986502  0
C  C66  1  0.38900754  0.78254768  0.37174517  1  0.039948  0  -0.011709  0.079207  0  4.03525  0
C  C67  1  0.60384225  0.54281207  0.89660086  1  -0.027616  0  -0.101542  -0.125123  0  4.053118  0
C  C68  1  0.48937344  0.43169945  0.83124154  1  -0.040524  0  -0.107632  -0.139307  0  4.067489  0
C  C69  1  0.14694699  0.21290167  0.09685316  1  -0.038501  0  -0.104693  -0.133134  0  4.069362  0
C  C70  1  0.09718325  0.15329764  0.15523465  1  -0.011426  0  -0.104112  -0.134612  0  4.068453  0
N  N71  1  0.96725217  0.33046575  0.03806646  1  -0.789806  0  -0.283549  -0.186175  0  3.65863  0
N  N72  1  0.22379501  0.70025746  0.12845171  1  -0.713734  0  -0.254179  -0.204322  0  3.609998  0
N  N73  1  0.19220790  0.41068922  0.81364990  1  -0.791373  0  -0.284912  -0.18666  0  3.554238  0
N  N74  1  0.87730733  0.59125445  0.23594701  1  -0.795273  0  -0.277532  -0.183987  0  3.544363  0
N  N75  1  0.27107413  0.56286831  0.88033280  1  -0.787376  0  -0.270563  -0.189566  0  3.515219  0
N  N76  1  0.79848637  0.43939397  0.17167840  1  -0.777606  0  -0.276089  -0.182584  0  3.536015  0
N  N77  1  0.13108201  0.65845594  0.17773382  1  -0.744973  0  -0.244525  -0.126391  0  3.573975  0
N  N78  1  0.05566164  0.34732730  0.97558418  1  -0.793879  0  -0.284885  -0.18421  0  3.626938  0
N  N79  1  0.78613796  0.43686655  0.96691011  1  -0.799541  0  -0.284957  -0.189412  0  3.657612  0
N  N80  1  0.05961766  0.60698024  0.87802671  1  -0.798981  0  -0.277722  -0.189758  0  3.614516  0
N  N81  1  0.84485083  0.14730133  0.77315362  1  -0.783576  0  -0.27325  -0.175188  0  3.518422  0
N  N82  1  0.09949057  0.88052340  0.17643169  1  -0.798665  0  -0.281946  -0.191367  0  3.542186  0
N  N83  1  0.18469683  0.89116495  0.10827802  1  -0.769283  0  -0.267096  -0.178126  0  3.523304  0
N  N84  1  0.75828755  0.13855966  0.84046740  1  -0.798988  0  -0.272871  -0.179776  0  3.523894  0
N  N85  1  0.86136424  0.58720242  0.02886366  1  -0.789579  0  -0.283999  -0.180298  0  3.633317  0
N  N86  1  0.97966833  0.45781221  0.82060562  1  -0.783994  0  -0.281642  -0.175071  0  3.628679  0
N  N87  1  0.44282217  0.82493194  0.16362126  1  0.299881  0  0.051084  0.511874  0  4.220751  0
O  O88  1  0.43754920  0.86640399  0.10471729  1  -0.513981  0  -0.157396  -0.377829  0  1.955173  0
O  O89  1  0.54119275  0.85276107  0.20379632  1  -0.473271  0  -0.136449  -0.337769  0  1.895264  0
