# generated using pymatgen
data_Zn2H9C29N8(O2F)2
_symmetry_space_group_name_H-M   'P 1'
_cell_length_a   19.15047583
_cell_length_b   18.59380024
_cell_length_c   19.52140480
_cell_angle_alpha   103.40513844
_cell_angle_beta   111.08193014
_cell_angle_gamma   109.12672371
_symmetry_Int_Tables_number   1
_chemical_formula_structural   Zn2H9C29N8(O2F)2
_chemical_formula_sum   'Zn4 H18 C58 N16 O8 F4'
_cell_volume   5625.12900399
_cell_formula_units_Z   2
loop_
 _symmetry_equiv_pos_site_id
 _symmetry_equiv_pos_as_xyz
  1  'x, y, z'
loop_
 _atom_site_type_symbol
 _atom_site_label
 _atom_site_symmetry_multiplicity
 _atom_site_fract_x
 _atom_site_fract_y
 _atom_site_fract_z
 _atom_site_occupancy
 _atom_site_pbe_bader_charge
 _atom_site_pbe_bader_spin_density
 _atom_site_pbe_cm5_charge
 _atom_site_pbe_ddec_charge
 _atom_site_pbe_ddec_spin_density
 _atom_site_pbe_ddec_sum_bond_order
 _atom_site_pbe_magmom
Zn  Zn0  1  0.89934409  0.00631686  0.39659783  1  1.224736  0  0.741675  0.660625  0  2.349009  0
Zn  Zn1  1  0.12407662  0.01338108  0.62895705  1  1.231954  0  0.753815  0.706665  0  2.242911  0
Zn  Zn2  1  0.13079971  0.12303068  0.50039450  1  1.247946  0  0.734667  0.677889  0  2.40458  0
Zn  Zn3  1  0.88797542  0.89771154  0.51928117  1  1.245551  0  0.726462  0.668012  0  2.372686  0
H  H4  1  0.88100908  0.95395270  0.20242352  1  0.121114  0  0.128908  0.120709  0  0.988632  0
H  H5  1  0.28727455  0.30166498  0.65454438  1  0.072741  0  0.127065  0.119093  0  0.973108  0
H  H6  1  0.80214985  0.86399319  0.23356603  1  0.099238  0  0.11669  0.104382  0  1.015797  0
H  H7  1  0.16350496  0.17576770  0.76945168  1  0.117118  0  0.121691  0.113667  0  1.005479  0
H  H8  1  0.88387377  0.72911537  0.45124188  1  0.116978  0  0.12421  0.118393  0  0.988851  0
H  H9  1  0.13801312  0.29811432  0.58742548  1  0.093052  0  0.123059  0.111882  0  1.003489  0
H  H10  1  0.28681729  0.97730431  0.72574598  1  0.616017  0  0.352275  0.393946  0  0.841071  0
H  H11  1  0.74442554  0.03606575  0.26013218  1  0.622236  0  0.35123  0.393797  0  0.841299  0
H  H12  1  0.26781263  0.18600136  0.36505763  1  0.62834  0  0.36685  0.402815  0  0.816093  0
H  H13  1  0.77108795  0.76034468  0.63931786  1  0.60973  0  0.364757  0.399361  0  0.820904  0
H  H14  1  0.13140745  0.05459765  0.81479749  1  0.115553  0  0.126427  0.117904  0  0.981848  0
H  H15  1  0.47354457  0.44201552  0.97341004  1  0.129804  0  0.125778  0.156004  0  0.948888  0
H  H16  1  0.39745219  0.66914233  0.02803239  1  0.113848  0  0.126253  0.157676  0  0.949836  0
H  H17  1  0.13578570  0.84304958  0.64887268  1  0.081454  0  0.119638  0.108464  0  1.005592  0
H  H18  1  0.86839414  0.15016713  0.47013282  1  0.119117  0  0.120311  0.112837  0  1.009156  0
H  H19  1  0.16309826  0.99305299  0.37893557  1  0.120007  0  0.122048  0.112401  0  1.00606  0
H  H20  1  0.74504850  0.93444062  0.55423554  1  0.125844  0  0.125721  0.12179  0  0.982904  0
H  H21  1  0.70942139  0.73961802  0.36704613  1  0.079218  0  0.127728  0.120912  0  0.974046  0
C  C22  1  0.94353467  0.99664703  0.25116175  1  0.418873  0  0.027496  -0.043998  0  3.893842  0
C  C23  1  0.41489804  0.61901452  0.01620215  1  -0.047202  0  -0.077386  -0.221172  0  3.62672  0
C  C24  1  0.50515090  0.58160198  0.99086581  1  0.613257  0  0.106959  0.209066  0  3.74074  0
C  C25  1  0.36753236  0.53020870  0.01143227  1  0.610738  0  0.107298  0.205504  0  3.734293  0
C  C26  1  0.64348641  0.72944764  0.20002860  1  -0.090508  0  -0.047252  -0.079835  0  4.179207  0
C  C27  1  0.27630578  0.34909431  0.80506652  1  -0.344975  0  -0.046794  -0.0842  0  4.172684  0
C  C28  1  0.45362477  0.53283864  0.06359524  1  0.613328  0  0.106672  0.208533  0  3.743981  0
C  C29  1  0.41918776  0.57914826  0.93903311  1  0.609272  0  0.107937  0.206894  0  3.740204  0
C  C30  1  0.50292057  0.62355892  0.07029101  1  0.120892  0  -0.001751  0.032948  0  3.839987  0
C  C31  1  0.37060172  0.48818354  0.93235002  1  0.061238  0  -0.001249  0.029089  0  3.820917  0
C  C32  1  0.57503557  0.68657577  0.14066886  1  -0.258415  0  -0.068858  -0.127253  0  4.14402  0
C  C33  1  0.06863598  0.01372386  0.76542540  1  0.40505  0  0.020149  -0.054877  0  3.930943  0
C  C34  1  0.31216704  0.41528484  0.86230579  1  0.043922  0  -0.064672  -0.117821  0  4.129142  0
C  C35  1  0.99865212  0.67348006  0.54888371  1  -0.320269  0  -0.02987  -0.062737  0  4.08839  0
C  C36  1  0.99062599  0.32974115  0.55181730  1  -0.353591  0  -0.027603  -0.058315  0  4.072915  0
C  C37  1  0.07545368  0.82923514  0.60198943  1  0.441393  0  0.018288  -0.036272  0  3.939546  0
C  C38  1  0.93574765  0.17360911  0.49443603  1  0.436757  0  0.017323  -0.031366  0  3.921898  0
C  C39  1  0.99329345  0.60683210  0.55262915  1  0.118806  0  -0.051105  -0.063863  0  4.348039  0
C  C40  1  0.98799938  0.39604807  0.55756535  1  0.161319  0  -0.04858  -0.063233  0  4.338737  0
C  C41  1  0.98907289  0.53453466  0.55619140  1  -0.001584  0  -0.031986  -0.023056  0  4.262639  0
C  C42  1  0.98708950  0.46807375  0.55873458  1  -0.09641  0  -0.029927  -0.02066  0  4.257651  0
C  C43  1  0.61189740  0.95077126  0.43500373  1  -0.299416  0  -0.015754  -0.039556  0  4.059271  0
C  C44  1  0.00631913  0.75090609  0.54897773  1  0.1425  0  -0.029553  0.028298  0  4.212458  0
C  C45  1  0.28577365  0.93751724  0.45603335  1  -0.182731  0  -0.019645  -0.050344  0  4.056802  0
C  C46  1  0.54280073  0.93906084  0.42996997  1  0.096278  0  -0.034927  -0.045268  0  4.301367  0
C  C47  1  0.34075655  0.92842114  0.44198042  1  0.015687  0  -0.032408  -0.037361  0  4.300502  0
C  C48  1  0.47002173  0.93007001  0.42855799  1  -0.094353  0  -0.017942  -0.009096  0  4.23414  0
C  C49  1  0.40566930  0.92575105  0.43223319  1  0.103837  0  -0.01979  -0.015498  0  4.231745  0
C  C50  1  0.02665007  0.01146016  0.17718541  1  0.006483  0  -0.020809  -0.054224  0  4.063763  0
C  C51  1  0.00079566  0.94174409  0.83398962  1  -0.207043  0  -0.017321  -0.043996  0  4.054854  0
C  C52  1  0.02604873  0.98981268  0.11229599  1  -0.114095  0  -0.031136  -0.035937  0  4.299465  0
C  C53  1  0.00816508  0.94315004  0.89969067  1  0.092235  0  -0.03261  -0.043387  0  4.29515  0
C  C54  1  0.02238457  0.96877504  0.04032386  1  -0.116559  0  -0.01757  -0.013207  0  4.227864  0
C  C55  1  0.99882730  0.25637277  0.53762831  1  0.111327  0  -0.02759  0.029135  0  4.204061  0
C  C56  1  0.01553610  0.95260764  0.97235712  1  -0.000721  0  -0.014851  -0.00555  0  4.225472  0
C  C57  1  0.17701039  0.98900391  0.43649623  1  0.450753  0  0.021087  -0.037012  0  3.906697  0
C  C58  1  0.75106394  0.95313280  0.50715764  1  0.42148  0  0.023191  -0.037804  0  3.914213  0
C  C59  1  0.74544468  0.77936306  0.34668281  1  0.437408  0  0.026042  -0.030667  0  3.916531  0
C  C60  1  0.25202897  0.25739459  0.67198423  1  0.516886  0  0.022097  -0.036462  0  3.952436  0
C  C61  1  0.22421448  0.96888407  0.54863132  1  0.475091  0  0.092055  0.00023  0  3.970702  0
C  C62  1  0.73334658  0.98616260  0.40194598  1  0.471725  0  0.090275  -0.00787  0  3.982947  0
C  C63  1  0.79315532  0.84298262  0.27852326  1  0.380129  0  0.008365  -0.049555  0  3.963889  0
C  C64  1  0.18871477  0.19337496  0.73096068  1  0.438456  0  0.019407  -0.035142  0  3.946051  0
C  C65  1  0.94661623  0.77048279  0.50034756  1  0.443214  0  0.016772  -0.037035  0  3.933825  0
C  C66  1  0.23088129  0.95930147  0.47697669  1  0.12293  0  -0.00598  0.037257  0  4.144687  0
C  C67  1  0.07389499  0.24931241  0.55439833  1  0.463349  0  0.024066  -0.028747  0  3.923858  0
C  C68  1  0.07927072  0.08244001  0.32789146  1  0.440704  0  0.078559  -0.041026  0  4.014363  0
C  C69  1  0.93614925  0.91978687  0.68576054  1  0.458925  0  0.079115  -0.03293  0  3.993321  0
C  C70  1  0.01857911  0.03006351  0.24653004  1  0.148251  0  -0.008208  0.039876  0  4.157005  0
C  C71  1  0.00069394  0.95456900  0.76641243  1  0.150743  0  -0.00871  0.039737  0  4.157273  0
C  C72  1  0.26961329  0.95609014  0.61879672  1  1.434374  0  0.231476  0.553402  0  4.136073  0
C  C73  1  0.70537783  0.00431431  0.33090123  1  1.467249  0  0.226195  0.550834  0  4.153846  0
C  C74  1  0.16857989  0.13803038  0.37184356  1  1.442013  0  0.241129  0.564324  0  4.140746  0
C  C75  1  0.85431930  0.84860024  0.63854411  1  1.463877  0  0.23968  0.564014  0  4.140615  0
C  C76  1  0.69180647  0.96301589  0.44658471  1  0.130959  0  -0.009996  0.028532  0  4.159912  0
C  C77  1  0.72128262  0.77965683  0.26931679  1  0.148076  0  -0.028938  0.039309  0  4.19712  0
C  C78  1  0.24017397  0.27286247  0.74037247  1  0.062573  0  -0.029204  0.03522  0  4.192796  0
C  C79  1  0.45910361  0.49391567  0.98749039  1  -0.076448  0  -0.07892  -0.218892  0  3.646767  0
N  N80  1  0.95939137  0.02615686  0.32815987  1  -0.729999  0  -0.233735  -0.125545  0  3.535717  0
N  N81  1  0.80980746  0.98895038  0.43495194  1  -0.726697  0  -0.251429  -0.179446  0  3.576486  0
N  N82  1  0.85467343  0.87856267  0.35537972  1  -0.773097  0  -0.284772  -0.228451  0  3.509014  0
N  N83  1  0.17258795  0.13631935  0.66318514  1  -0.812894  0  -0.28228  -0.210852  0  3.648299  0
N  N84  1  0.97738519  0.85334510  0.52374639  1  -0.799398  0  -0.273532  -0.210513  0  3.518382  0
N  N85  1  0.05585728  0.16944038  0.52203571  1  -0.785838  0  -0.274875  -0.18084  0  3.625699  0
N  N86  1  0.04144483  0.07739121  0.37429376  1  -0.679639  0  -0.237733  -0.187612  0  3.506949  0
N  N87  1  0.96531886  0.95851683  0.64387167  1  -0.712341  0  -0.240207  -0.172992  0  3.538596  0
N  N88  1  0.04597309  0.01446127  0.69158920  1  -0.708537  0  -0.232792  -0.167853  0  3.466577  0
N  N89  1  0.05674135  0.88907396  0.58641782  1  -0.788314  0  -0.274629  -0.182059  0  3.624536  0
N  N90  1  0.97087128  0.12244335  0.48478019  1  -0.786937  0  -0.27494  -0.196714  0  3.584062  0
N  N91  1  0.14322126  0.01531345  0.48119918  1  -0.759302  0  -0.25811  -0.173467  0  3.553054  0
N  N92  1  0.82083949  0.96864937  0.49870968  1  -0.745656  0  -0.248561  -0.174585  0  3.509804  0
N  N93  1  0.82437764  0.83820415  0.39671182  1  -0.774285  0  -0.267825  -0.170723  0  3.573831  0
N  N94  1  0.21158556  0.17577301  0.62617133  1  -0.786181  0  -0.2693  -0.199292  0  3.488821  0
N  N95  1  0.17150285  0.00219635  0.54859174  1  -0.723255  0  -0.249845  -0.18053  0  3.571247  0
O  O96  1  0.31789332  0.92568587  0.62745058  1  -1.089962  0  -0.276  -0.446261  0  2.047822  0
O  O97  1  0.25275613  0.98644849  0.68064128  1  -1.110507  0  -0.341057  -0.51277  0  2.261298  0
O  O98  1  0.63829689  0.00373910  0.29503537  1  -1.104845  0  -0.281824  -0.453634  0  2.046324  0
O  O99  1  0.76707238  0.02355511  0.30698500  1  -1.126989  0  -0.341299  -0.514277  0  2.266444  0
O  O100  1  0.20661974  0.17389428  0.44653195  1  -1.12073  0  -0.287697  -0.479678  0  2.201718  0
O  O101  1  0.20822395  0.14845009  0.32806620  1  -1.106557  0  -0.305383  -0.436548  0  2.213649  0
O  O102  1  0.81467962  0.82373924  0.56403907  1  -1.174308  0  -0.287012  -0.487042  0  2.22318  0
O  O103  1  0.82440323  0.80917853  0.67866210  1  -1.092282  0  -0.305498  -0.435284  0  2.218477  0
F  F104  1  0.40175045  0.60296133  0.87650469  1  -0.623776  0  -0.11784  -0.154208  0  1.294178  0
F  F105  1  0.47107060  0.50997256  0.12673294  1  -0.627349  0  -0.117487  -0.155115  0  1.294926  0
F  F106  1  0.57432484  0.60786830  0.98041010  1  -0.62496  0  -0.118415  -0.156556  0  1.294625  0
F  F107  1  0.29882745  0.50552124  0.02277887  1  -0.624995  0  -0.115923  -0.153352  0  1.295043  0
