# generated using pymatgen
data_CdH9C15N3O4
_symmetry_space_group_name_H-M   'P 1'
_cell_length_a   8.46317675
_cell_length_b   11.36951170
_cell_length_c   15.11619999
_cell_angle_alpha   89.99996235
_cell_angle_beta   90.43307533
_cell_angle_gamma   89.99997457
_symmetry_Int_Tables_number   1
_chemical_formula_structural   CdH9C15N3O4
_chemical_formula_sum   'Cd4 H36 C60 N12 O16'
_cell_volume   1454.47227408
_cell_formula_units_Z   4
loop_
 _symmetry_equiv_pos_site_id
 _symmetry_equiv_pos_as_xyz
  1  'x, y, z'
loop_
 _atom_site_type_symbol
 _atom_site_label
 _atom_site_symmetry_multiplicity
 _atom_site_fract_x
 _atom_site_fract_y
 _atom_site_fract_z
 _atom_site_occupancy
 _atom_site_hle17_bader_spin_density
 _atom_site_hle17_ddec_charge
 _atom_site_hle17_ddec_spin_density
 _atom_site_hle17_ddec_sum_bond_order
 _atom_site_hle17_magmom
 _atom_site_hse06_10hf_bader_spin_density
 _atom_site_hse06_10hf_ddec_charge
 _atom_site_hse06_10hf_ddec_spin_density
 _atom_site_hse06_10hf_ddec_sum_bond_order
 _atom_site_hse06_10hf_magmom
 _atom_site_hse06_bader_spin_density
 _atom_site_hse06_ddec_charge
 _atom_site_hse06_ddec_spin_density
 _atom_site_hse06_ddec_sum_bond_order
 _atom_site_hse06_magmom
 _atom_site_pbe_bader_spin_density
 _atom_site_pbe_cm5_charge
 _atom_site_pbe_ddec_charge
 _atom_site_pbe_ddec_spin_density
 _atom_site_pbe_ddec_sum_bond_order
 _atom_site_pbe_magmom
Cd  Cd0  1  0.90560705  0.85100101  0.48222388  1  0  1.145709  0  1.649454  0  0  0.96043  0  2.100948  0  0  1.018752  0  2.04445  0  0  0.786683  0.918825  0  2.139867  0
Cd  Cd1  1  0.59439275  0.35100178  0.01777592  1  0  1.145681  0  1.649435  0  0  0.960402  0  2.100924  0  0  1.018724  0  2.044431  0  0  0.786675  0.918801  0  2.139842  0
Cd  Cd2  1  0.09439212  0.14899912  0.51777519  1  0  1.145752  0  1.649411  0  0  0.960488  0  2.100896  0  0  1.018808  0  2.044399  0  0  0.786717  0.918885  0  2.139816  0
Cd  Cd3  1  0.40560761  0.64899835  0.98222448  1  0  1.145694  0  1.64943  0  0  0.960411  0  2.100914  0  0  1.018733  0  2.044421  0  0  0.786683  0.918808  0  2.139831  0
H  H4  1  0.18430618  0.58456920  0.67410018  1  0  0.104867  0  0.9445  0  0  0.113455  0  1.010526  0  0  0.117347  0  1.007257  0  0  0.106575  0.11069  0  1.012768  0
H  H5  1  0.31569359  0.08456874  0.82590017  1  0  0.104859  0  0.94451  0  0  0.113441  0  1.010541  0  0  0.117333  0  1.007271  0  0  0.106568  0.11068  0  1.012782  0
H  H6  1  0.81569300  0.41543093  0.32589954  1  0  0.104861  0  0.944514  0  0  0.113444  0  1.010545  0  0  0.117335  0  1.007276  0  0  0.106569  0.110683  0  1.012786  0
H  H7  1  0.68430559  0.91543139  0.17410022  1  0  0.10485  0  0.944519  0  0  0.113439  0  1.010544  0  0  0.11733  0  1.007276  0  0  0.106571  0.110675  0  1.012785  0
H  H8  1  0.72887126  0.69608485  0.76417374  1  0  0.119086  0  0.935406  0  0  0.126615  0  0.998755  0  0  0.131005  0  0.994667  0  0  0.112158  0.12341  0  1.001747  0
H  H9  1  0.77112887  0.19608449  0.73582600  1  0  0.119065  0  0.935411  0  0  0.126602  0  0.998755  0  0  0.130992  0  0.994667  0  0  0.112159  0.123396  0  1.001749  0
H  H10  1  0.27113028  0.30391528  0.23582599  1  0  0.119067  0  0.935423  0  0  0.126595  0  0.998766  0  0  0.130993  0  0.994667  0  0  0.112151  0.12339  0  1.001761  0
H  H11  1  0.22887148  0.80391476  0.26417373  1  0  0.119069  0  0.935412  0  0  0.126598  0  0.998765  0  0  0.130988  0  0.994676  0  0  0.112155  0.123393  0  1.001757  0
H  H12  1  0.99515807  0.44357961  0.91649781  1  0  0.110534  0  0.947144  0  0  0.118941  0  1.012856  0  0  0.122443  0  1.00986  0  0  0.108063  0.116334  0  1.015239  0
H  H13  1  0.50483955  0.94357844  0.58350181  1  0  0.110504  0  0.947085  0  0  0.118926  0  1.012805  0  0  0.122427  0  1.00981  0  0  0.10806  0.116322  0  1.015181  0
H  H14  1  0.00484111  0.55642228  0.08350192  1  0  0.110515  0  0.947094  0  0  0.118927  0  1.012812  0  0  0.122429  0  1.009817  0  0  0.108058  0.116323  0  1.015193  0
H  H15  1  0.49515962  0.05642081  0.41649792  1  0  0.110526  0  0.947103  0  0  0.118942  0  1.012816  0  0  0.122444  0  1.00982  0  0  0.108064  0.116338  0  1.015195  0
H  H16  1  0.35654433  0.47995775  0.82477254  1  0  0.100456  0  0.929934  0  0  0.115955  0  0.994523  0  0  0.116809  0  0.992584  0  0  0.119326  0.115206  0  0.995274  0
H  H17  1  0.14345521  0.97995821  0.67522828  1  0  0.100441  0  0.929951  0  0  0.115948  0  0.994524  0  0  0.116802  0  0.992589  0  0  0.119329  0.115198  0  0.995276  0
H  H18  1  0.64345486  0.52004238  0.17522851  1  0  0.100431  0  0.929963  0  0  0.115935  0  0.994539  0  0  0.116791  0  0.992604  0  0  0.11932  0.115185  0  0.995292  0
H  H19  1  0.85654397  0.02004191  0.32477211  1  0  0.100434  0  0.929961  0  0  0.115921  0  0.994566  0  0  0.116776  0  0.992628  0  0  0.119313  0.115171  0  0.995318  0
H  H20  1  0.23648864  0.36066591  0.85722021  1  0  0.111924  0  0.914599  0  0  0.124696  0  0.976088  0  0  0.12618  0  0.973974  0  0  0.120962  0.123484  0  0.977014  0
H  H21  1  0.26350978  0.86066549  0.64278000  1  0  0.111921  0  0.914601  0  0  0.124695  0  0.976089  0  0  0.126179  0  0.973974  0  0  0.120967  0.123484  0  0.977015  0
H  H22  1  0.76351054  0.63933334  0.14277951  1  0  0.111915  0  0.914615  0  0  0.124681  0  0.976106  0  0  0.126165  0  0.973994  0  0  0.120963  0.12347  0  0.977032  0
H  H23  1  0.73648940  0.13933376  0.35722105  1  0  0.111927  0  0.914596  0  0  0.124692  0  0.976083  0  0  0.126175  0  0.973971  0  0  0.120965  0.123481  0  0.97701  0
H  H24  1  0.58264121  0.50666162  0.73543718  1  0  0.120265  0  0.9768  0  0  0.126229  0  1.043122  0  0  0.129268  0  1.042063  0  0  0.106461  0.123997  0  1.044103  0
H  H25  1  0.91735784  0.00666207  0.76456199  1  0  0.12027  0  0.976787  0  0  0.126243  0  1.043104  0  0  0.129282  0  1.042045  0  0  0.106463  0.124011  0  1.044082  0
H  H26  1  0.41736033  0.49333763  0.26456255  1  0  0.120255  0  0.976802  0  0  0.126225  0  1.043129  0  0  0.129263  0  1.04207  0  0  0.106466  0.124012  0  1.044089  0
H  H27  1  0.08264133  0.99333806  0.23543773  1  0  0.120271  0  0.976787  0  0  0.12624  0  1.043108  0  0  0.129279  0  1.042049  0  0  0.106464  0.124011  0  1.044085  0
H  H28  1  0.77676523  0.48744358  0.61302899  1  0  0.091742  0  0.950636  0  0  0.104016  0  1.00573  0  0  0.105999  0  1.005883  0  0  0.1023  0.102532  0  1.005776  0
H  H29  1  0.72323353  0.98744296  0.88696994  1  0  0.09179  0  0.9506  0  0  0.104053  0  1.005699  0  0  0.106038  0  1.00585  0  0  0.102299  0.102555  0  1.005757  0
H  H30  1  0.22323512  0.51255743  0.38697008  1  0  0.091772  0  0.950639  0  0  0.104038  0  1.005731  0  0  0.106021  0  1.005884  0  0  0.1023  0.102534  0  1.005798  0
H  H31  1  0.27676682  0.01255717  0.11302912  1  0  0.091801  0  0.950549  0  0  0.104049  0  1.005671  0  0  0.106039  0  1.005814  0  0  0.102297  0.102537  0  1.005746  0
H  H32  1  0.72350902  0.36266080  0.48260691  1  0  0.107239  0  0.963009  0  0  0.116539  0  1.023392  0  0  0.120381  0  1.020768  0  0  0.100786  0.113725  0  1.025439  0
H  H33  1  0.77649197  0.86266224  0.01739355  1  0  0.107262  0  0.962978  0  0  0.116553  0  1.023371  0  0  0.120396  0  1.020747  0  0  0.100793  0.11374  0  1.025417  0
H  H34  1  0.27649253  0.63733845  0.51739349  1  0  0.107268  0  0.962971  0  0  0.116556  0  1.023368  0  0  0.120398  0  1.020745  0  0  0.100804  0.113743  0  1.025415  0
H  H35  1  0.22350958  0.13733877  0.98260685  1  0  0.107176  0  0.963058  0  0  0.116513  0  1.023406  0  0  0.120355  0  1.020783  0  0  0.100778  0.113702  0  1.025452  0
H  H36  1  0.46758208  0.25300003  0.46668864  1  0  0.118148  0  0.942091  0  0  0.130864  0  0.997238  0  0  0.133863  0  0.995604  0  0  0.111504  0.128651  0  0.998573  0
H  H37  1  0.03241618  0.75300154  0.03331176  1  0  0.118162  0  0.942122  0  0  0.130885  0  0.997249  0  0  0.133888  0  0.995605  0  0  0.111517  0.128672  0  0.998583  0
H  H38  1  0.53241829  0.74699834  0.53331175  1  0  0.118156  0  0.94213  0  0  0.13088  0  0.997258  0  0  0.133881  0  0.995616  0  0  0.111511  0.128667  0  0.998592  0
H  H39  1  0.96758418  0.24700035  0.96668930  1  0  0.118162  0  0.942125  0  0  0.130883  0  0.997256  0  0  0.133883  0  0.995616  0  0  0.111517  0.12867  0  0.998589  0
C  C40  1  0.10675343  0.50504419  0.79678737  1  0  0.063722  0  3.74757  0  0  0.084583  0  4.001062  0  0  0.080644  0  4.024197  0  0  -0.010189  0.087073  0  3.983994  0
C  C41  1  0.39324639  0.00504294  0.70321236  1  0  0.063721  0  3.747495  0  0  0.084565  0  4.001035  0  0  0.080626  0  4.024167  0  0  -0.010189  0.087057  0  3.983969  0
C  C42  1  0.89324575  0.49495682  0.20321236  1  0  0.063713  0  3.747552  0  0  0.084562  0  4.001068  0  0  0.080622  0  4.024208  0  0  -0.010192  0.087053  0  3.984002  0
C  C43  1  0.60675161  0.99495543  0.29678736  1  0  0.063727  0  3.747574  0  0  0.08457  0  4.001102  0  0  0.080631  0  4.024237  0  0  -0.010185  0.087062  0  3.984036  0
C  C44  1  0.09176089  0.57978974  0.72376522  1  0  -0.094225  0  3.684333  0  0  -0.139401  0  3.946666  0  0  -0.136409  0  3.963797  0  0  -0.079949  -0.140828  0  3.934596  0
C  C45  1  0.40823888  0.07979018  0.77623580  1  0  -0.094214  0  3.684354  0  0  -0.139358  0  3.946676  0  0  -0.136367  0  3.963805  0  0  -0.079917  -0.14079  0  3.93461  0
C  C46  1  0.90823829  0.42020951  0.27623583  1  0  -0.094136  0  3.684259  0  0  -0.139296  0  3.94658  0  0  -0.136304  0  3.963711  0  0  -0.079894  -0.140727  0  3.934516  0
C  C47  1  0.59176148  0.92020995  0.22376459  1  0  -0.094203  0  3.684361  0  0  -0.139373  0  3.946697  0  0  -0.136381  0  3.963827  0  0  -0.079937  -0.1408  0  3.934628  0
C  C48  1  0.95650183  0.64872572  0.71192531  1  0  -0.064738  0  3.78317  0  0  -0.038089  0  4.02405  0  0  -0.047904  0  4.047023  0  0  -0.019758  -0.031928  0  4.008721  0
C  C49  1  0.54349833  0.14872539  0.78807446  1  0  -0.064701  0  3.783105  0  0  -0.038069  0  4.024001  0  0  -0.047884  0  4.046974  0  0  -0.01977  -0.031905  0  4.008669  0
C  C50  1  0.04349853  0.35127353  0.28807508  1  0  -0.064844  0  3.783253  0  0  -0.038215  0  4.024147  0  0  -0.048032  0  4.047122  0  0  -0.019802  -0.03205  0  4.008816  0
C  C51  1  0.45650085  0.85127474  0.21192527  1  0  -0.064744  0  3.783204  0  0  -0.038082  0  4.024068  0  0  -0.047897  0  4.047042  0  0  -0.019774  -0.03192  0  4.008735  0
C  C52  1  0.83469463  0.64306320  0.77371679  1  0  -0.058556  0  3.682261  0  0  -0.098759  0  3.932401  0  0  -0.094868  0  3.950635  0  0  -0.06995  -0.100986  0  3.920144  0
C  C53  1  0.66530672  0.14306289  0.72628365  1  0  -0.058518  0  3.68209  0  0  -0.09872  0  3.932245  0  0  -0.094829  0  3.950479  0  0  -0.069915  -0.100949  0  3.919994  0
C  C54  1  0.16530574  0.35693605  0.22628426  1  0  -0.058494  0  3.682149  0  0  -0.09867  0  3.932265  0  0  -0.094784  0  3.950497  0  0  -0.069932  -0.1009  0  3.920017  0
C  C55  1  0.33469364  0.85693724  0.27371608  1  0  -0.058504  0  3.682207  0  0  -0.098705  0  3.932337  0  0  -0.094813  0  3.950571  0  0  -0.069937  -0.100934  0  3.920085  0
C  C56  1  0.84922282  0.56902833  0.84709321  1  0  -0.068729  0  3.759599  0  0  -0.039047  0  3.991235  0  0  -0.050436  0  4.016407  0  0  -0.016339  -0.031781  0  3.974419  0
C  C57  1  0.65077620  0.06902720  0.65290659  1  0  -0.068823  0  3.759486  0  0  -0.039131  0  3.991155  0  0  -0.050521  0  4.016326  0  0  -0.016415  -0.031863  0  3.974336  0
C  C58  1  0.15077872  0.43097268  0.15290652  1  0  -0.068728  0  3.759437  0  0  -0.039052  0  3.991081  0  0  -0.050441  0  4.016255  0  0  -0.016302  -0.031786  0  3.974264  0
C  C59  1  0.34922298  0.93097117  0.34709313  1  0  -0.068768  0  3.759514  0  0  -0.039083  0  3.991171  0  0  -0.050472  0  4.016341  0  0  -0.016337  -0.031818  0  3.974355  0
C  C60  1  0.98568608  0.50071578  0.85889079  1  0  -0.070816  0  3.647424  0  0  -0.106676  0  3.892047  0  0  -0.103869  0  3.910327  0  0  -0.068101  -0.108293  0  3.87992  0
C  C61  1  0.51431299  0.00071559  0.64110972  1  0  -0.070693  0  3.647229  0  0  -0.106591  0  3.891911  0  0  -0.103784  0  3.910192  0  0  -0.068052  -0.108208  0  3.87978  0
C  C62  1  0.01431428  0.49928435  0.14110961  1  0  -0.07078  0  3.647281  0  0  -0.106656  0  3.891935  0  0  -0.103849  0  3.910216  0  0  -0.068107  -0.108273  0  3.879804  0
C  C63  1  0.48568619  0.99928278  0.35889067  1  0  -0.07081  0  3.647322  0  0  -0.106686  0  3.891978  0  0  -0.10388  0  3.910259  0  0  -0.068126  -0.108304  0  3.879853  0
C  C64  1  0.25161192  0.42826074  0.80630714  1  0  -0.055526  0  3.621331  0  0  -0.133625  0  3.868802  0  0  -0.119964  0  3.881554  0  0  -0.040871  -0.136036  0  3.861824  0
C  C65  1  0.24838765  0.92826028  0.69369305  1  0  -0.055521  0  3.621356  0  0  -0.133621  0  3.868845  0  0  -0.119957  0  3.881598  0  0  -0.040886  -0.136032  0  3.861869  0
C  C66  1  0.74838726  0.57173939  0.19369325  1  0  -0.055515  0  3.621372  0  0  -0.133557  0  3.868795  0  0  -0.119918  0  3.881543  0  0  -0.040844  -0.135967  0  3.861819  0
C  C67  1  0.75161153  0.07173897  0.30630734  1  0  -0.055512  0  3.62136  0  0  -0.133575  0  3.868813  0  0  -0.119918  0  3.881567  0  0  -0.04086  -0.135986  0  3.861837  0
C  C68  1  0.38670504  0.31513634  0.59473986  1  0  0.123979  0  3.841374  0  0  0.118384  0  4.09525  0  0  0.120132  0  4.117472  0  0  0.094738  0.117326  0  4.078159  0
C  C69  1  0.11329459  0.81513662  0.90525972  1  0  0.123985  0  3.841384  0  0  0.118384  0  4.095265  0  0  0.120132  0  4.117484  0  0  0.094752  0.117326  0  4.078175  0
C  C70  1  0.61329650  0.68486467  0.40525987  1  0  0.123947  0  3.841527  0  0  0.118391  0  4.095361  0  0  0.120138  0  4.11759  0  0  0.09475  0.117333  0  4.078268  0
C  C71  1  0.88670577  0.18486351  0.09474067  1  0  0.124038  0  3.841378  0  0  0.118431  0  4.095258  0  0  0.12018  0  4.117478  0  0  0.094767  0.117374  0  4.078165  0
C  C72  1  0.41868036  0.38650261  0.66929630  1  0  0.088395  0  3.788469  0  0  0.063449  0  4.03535  0  0  0.076626  0  4.060224  0  0  0.106154  0.061477  0  4.01989  0
C  C73  1  0.08131922  0.88650296  0.83070324  1  0  0.088372  0  3.788507  0  0  0.063426  0  4.035389  0  0  0.076606  0  4.060263  0  0  0.106144  0.061455  0  4.019932  0
C  C74  1  0.58132118  0.61349752  0.33070409  1  0  0.088359  0  3.788489  0  0  0.063407  0  4.035408  0  0  0.076558  0  4.060277  0  0  0.106126  0.061434  0  4.019952  0
C  C75  1  0.91868113  0.11349629  0.16929649  1  0  0.088336  0  3.788563  0  0  0.063409  0  4.035435  0  0  0.076583  0  4.060306  0  0  0.106115  0.061436  0  4.019975  0
C  C76  1  0.55850712  0.45171646  0.67787525  1  0  -0.137539  0  3.722537  0  0  -0.15545  0  3.977646  0  0  -0.160001  0  3.997099  0  0  -0.087537  -0.152564  0  3.963448  0
C  C77  1  0.94149286  0.95171670  0.82212436  1  0  -0.137512  0  3.722571  0  0  -0.155438  0  3.97768  0  0  -0.15999  0  3.997134  0  0  -0.087542  -0.152557  0  3.963479  0
C  C78  1  0.44149442  0.54828367  0.32212448  1  0  -0.137465  0  3.722511  0  0  -0.155383  0  3.977639  0  0  -0.159932  0  3.997097  0  0  -0.087516  -0.152512  0  3.963422  0
C  C79  1  0.05850750  0.04828343  0.17787537  1  0  -0.137569  0  3.722648  0  0  -0.155491  0  3.977748  0  0  -0.160042  0  3.997204  0  0  -0.087553  -0.152604  0  3.963537  0
C  C80  1  0.66477423  0.44038617  0.60895119  1  0  -0.034236  0  3.72772  0  0  -0.050155  0  3.978322  0  0  -0.050912  0  4.001111  0  0  -0.07923  -0.049565  0  3.96312  0
C  C81  1  0.83522457  0.94038463  0.89104776  1  0  -0.03433  0  3.727718  0  0  -0.050229  0  3.978303  0  0  -0.050987  0  4.001094  0  0  -0.079233  -0.04963  0  3.963103  0
C  C82  1  0.33522613  0.55961660  0.39104787  1  0  -0.034359  0  3.727796  0  0  -0.050267  0  3.97839  0  0  -0.051025  0  4.001179  0  0  -0.079247  -0.049664  0  3.963196  0
C  C83  1  0.16477460  0.05961374  0.10895130  1  0  -0.034255  0  3.727665  0  0  -0.050145  0  3.978255  0  0  -0.050907  0  4.001044  0  0  -0.079206  -0.049532  0  3.963061  0
C  C84  1  0.63373611  0.36929696  0.53372394  1  0  -0.06235  0  3.73002  0  0  -0.080206  0  3.985225  0  0  -0.083691  0  4.007971  0  0  -0.0874  -0.077886  0  3.970006  0
C  C85  1  0.86626391  0.86929710  0.96627506  1  0  -0.062332  0  3.730084  0  0  -0.080183  0  3.985285  0  0  -0.083669  0  4.008033  0  0  -0.087407  -0.077865  0  3.970059  0
C  C86  1  0.36626543  0.63070316  0.46627579  1  0  -0.062267  0  3.730039  0  0  -0.080111  0  3.985239  0  0  -0.083595  0  4.007985  0  0  -0.087378  -0.07779  0  3.970011  0
C  C87  1  0.13373644  0.13070127  0.03372401  1  0  -0.062265  0  3.730062  0  0  -0.080158  0  3.985267  0  0  -0.083643  0  4.008017  0  0  -0.087382  -0.077836  0  3.970036  0
C  C88  1  0.49418449  0.30636817  0.52477047  1  0  -0.123539  0  3.718077  0  0  -0.143425  0  3.969837  0  0  -0.146139  0  3.991502  0  0  -0.082615  -0.141552  0  3.955316  0
C  C89  1  0.00581396  0.80636842  0.97522911  1  0  -0.123607  0  3.71822  0  0  -0.143501  0  3.969984  0  0  -0.146212  0  3.991652  0  0  -0.08264  -0.141628  0  3.955461  0
C  C90  1  0.50581705  0.69363196  0.47522926  1  0  -0.123628  0  3.718191  0  0  -0.143536  0  3.96995  0  0  -0.146247  0  3.991616  0  0  -0.082658  -0.141662  0  3.955428  0
C  C91  1  0.99418522  0.19363171  0.02477062  1  0  -0.123613  0  3.718165  0  0  -0.143502  0  3.96994  0  0  -0.146214  0  3.991607  0  0  -0.082635  -0.141627  0  3.955415  0
C  C92  1  0.93904153  0.72491900  0.63199205  1  0  0.616829  0  3.950992  0  0  0.569689  0  4.237044  0  0  0.604383  0  4.232611  0  0  0.18652  0.546243  0  4.239082  0
C  C93  1  0.56095858  0.22491860  0.86800702  1  0  0.616709  0  3.951037  0  0  0.569584  0  4.237073  0  0  0.604278  0  4.23264  0  0  0.186508  0.546138  0  4.239112  0
C  C94  1  0.06095883  0.27508024  0.36800768  1  0  0.616847  0  3.950977  0  0  0.569719  0  4.237011  0  0  0.604415  0  4.232576  0  0  0.186568  0.546274  0  4.239051  0
C  C95  1  0.43904059  0.77508065  0.13199205  1  0  0.616758  0  3.951136  0  0  0.569613  0  4.237188  0  0  0.604307  0  4.232756  0  0  0.186521  0.546168  0  4.239229  0
C  C96  1  0.71464275  0.55835240  0.90978781  1  0  0.664332  0  3.898689  0  0  0.610962  0  4.187813  0  0  0.647754  0  4.18007  0  0  0.211593  0.58593  0  4.19227  0
C  C97  1  0.78535510  0.05835216  0.59021200  1  0  0.664461  0  3.898487  0  0  0.611112  0  4.187585  0  0  0.647905  0  4.179839  0  0  0.211653  0.58608  0  4.192043  0
C  C98  1  0.28535761  0.44164861  0.09021192  1  0  0.664361  0  3.898669  0  0  0.611004  0  4.187776  0  0  0.647798  0  4.180031  0  0  0.211605  0.585974  0  4.192232  0
C  C99  1  0.21464290  0.94164709  0.40978839  1  0  0.66434  0  3.898688  0  0  0.610977  0  4.187807  0  0  0.64777  0  4.180061  0  0  0.2116  0.585946  0  4.192263  0
N  N100  1  0.28965947  0.37086077  0.72250814  1  0  0.01596  0  3.517873  0  0  0.127006  0  3.711464  0  0  0.086197  0  3.771419  0  0  -0.116084  0.13415  0  3.695784  0
N  N101  1  0.21034013  0.87086113  0.77749207  1  0  0.015938  0  3.517948  0  0  0.126996  0  3.711525  0  0  0.086176  0  3.771498  0  0  -0.116088  0.134142  0  3.695845  0
N  N102  1  0.71034207  0.62913936  0.27749225  1  0  0.016007  0  3.517894  0  0  0.126985  0  3.711579  0  0  0.086246  0  3.771456  0  0  -0.116119  0.134128  0  3.695901  0
N  N103  1  0.78965905  0.12913812  0.22250832  1  0  0.015987  0  3.517887  0  0  0.127016  0  3.71148  0  0  0.086214  0  3.771432  0  0  -0.11608  0.134159  0  3.695801  0
N  N104  1  0.18511610  0.29673537  0.68536348  1  0  -0.045591  0  2.853073  0  0  -0.0669  0  3.121075  0  0  -0.04886  0  3.137128  0  0  -0.074168  -0.07207  0  3.113597  0
N  N105  1  0.31488236  0.79673654  0.81463677  1  0  -0.045701  0  2.853291  0  0  -0.067024  0  3.121298  0  0  -0.048981  0  3.137354  0  0  -0.074252  -0.072195  0  3.113819  0
N  N106  1  0.81488426  0.70326388  0.31463625  1  0  -0.045613  0  2.85315  0  0  -0.066901  0  3.12117  0  0  -0.048884  0  3.137212  0  0  -0.074142  -0.072072  0  3.113694  0
N  N107  1  0.68511682  0.20326359  0.18536296  1  0  -0.045585  0  2.853226  0  0  -0.066895  0  3.121239  0  0  -0.048858  0  3.137289  0  0  -0.074149  -0.072063  0  3.113761  0
N  N108  1  0.24237508  0.26282804  0.60888940  1  0  -0.294401  0  3.210133  0  0  -0.233294  0  3.511669  0  0  -0.249336  0  3.522681  0  0  -0.219307  -0.221786  0  3.501426  0
N  N109  1  0.25762458  0.76282916  0.89111087  1  0  -0.294222  0  3.210208  0  0  -0.233093  0  3.511703  0  0  -0.249136  0  3.522715  0  0  -0.219208  -0.221586  0  3.501458  0
N  N110  1  0.75762646  0.73717208  0.39111033  1  0  -0.294344  0  3.210236  0  0  -0.233238  0  3.511744  0  0  -0.249282  0  3.522764  0  0  -0.219309  -0.221729  0  3.501499  0
N  N111  1  0.74237460  0.23717097  0.10888952  1  0  -0.294391  0  3.210271  0  0  -0.233272  0  3.511795  0  0  -0.249315  0  3.522807  0  0  -0.2193  -0.221764  0  3.501551  0
O  O112  1  0.05322396  0.72982792  0.57657620  1  0  -0.650105  0  1.952524  0  0  -0.585475  0  2.18947  0  0  -0.615182  0  2.179027  0  0  -0.333859  -0.564653  0  2.195873  0
O  O113  1  0.44677571  0.22982822  0.92342276  1  0  -0.650067  0  1.952537  0  0  -0.585458  0  2.189488  0  0  -0.615164  0  2.179046  0  0  -0.333874  -0.564636  0  2.195893  0
O  O114  1  0.94677522  0.27017133  0.42342418  1  0  -0.650158  0  1.952541  0  0  -0.585537  0  2.189487  0  0  -0.615244  0  2.179042  0  0  -0.333894  -0.564712  0  2.19589  0
O  O115  1  0.55322229  0.77017191  0.07657697  1  0  -0.650065  0  1.952606  0  0  -0.585452  0  2.189577  0  0  -0.615159  0  2.179134  0  0  -0.333847  -0.564628  0  2.19598  0
O  O116  1  0.81091694  0.78178867  0.62021344  1  0  -0.628883  0  1.936065  0  0  -0.566457  0  2.166296  0  0  -0.596412  0  2.159105  0  0  -0.329915  -0.545414  0  2.17037  0
O  O117  1  0.68908314  0.28178821  0.87978692  1  0  -0.628835  0  1.936084  0  0  -0.566411  0  2.166307  0  0  -0.596366  0  2.159118  0  0  -0.329906  -0.545367  0  2.170382  0
O  O118  1  0.18908343  0.21821058  0.37978761  1  0  -0.62887  0  1.936045  0  0  -0.566453  0  2.166278  0  0  -0.596407  0  2.159089  0  0  -0.329949  -0.545409  0  2.170353  0
O  O119  1  0.31091722  0.71821280  0.12021347  1  0  -0.628848  0  1.936074  0  0  -0.566425  0  2.166315  0  0  -0.59638  0  2.159125  0  0  -0.329925  -0.545383  0  2.170391  0
O  O120  1  0.57985780  0.59437245  0.88143197  1  0  -0.651379  0  2.040817  0  0  -0.580491  0  2.300245  0  0  -0.61029  0  2.285986  0  0  -0.326632  -0.559722  0  2.309436  0
O  O121  1  0.92014002  0.09437214  0.61856649  1  0  -0.651434  0  2.040727  0  0  -0.580577  0  2.300184  0  0  -0.610375  0  2.285918  0  0  -0.326668  -0.559809  0  2.30938  0
O  O122  1  0.42014255  0.40562856  0.11856710  1  0  -0.651352  0  2.040809  0  0  -0.58049  0  2.300255  0  0  -0.61029  0  2.285996  0  0  -0.326628  -0.559725  0  2.309453  0
O  O123  1  0.07985915  0.90562710  0.38143257  1  0  -0.651358  0  2.04085  0  0  -0.580485  0  2.300294  0  0  -0.610284  0  2.286032  0  0  -0.326615  -0.559717  0  2.309487  0
O  O124  1  0.73867739  0.51356768  0.98603824  1  0  -0.662565  0  2.030624  0  0  -0.594353  0  2.293985  0  0  -0.623504  0  2.280667  0  0  -0.331929  -0.573985  0  2.302496  0
O  O125  1  0.76131931  0.01356576  0.51396158  1  0  -0.662641  0  2.030587  0  0  -0.594434  0  2.293951  0  0  -0.623585  0  2.280632  0  0  -0.331941  -0.574067  0  2.302463  0
O  O126  1  0.26132178  0.48643245  0.01396016  1  0  -0.662644  0  2.030648  0  0  -0.59442  0  2.293979  0  0  -0.62357  0  2.280659  0  0  -0.331963  -0.574051  0  2.302489  0
O  O127  1  0.23867869  0.98643085  0.48603880  1  0  -0.662637  0  2.030647  0  0  -0.594417  0  2.293984  0  0  -0.623566  0  2.280664  0  0  -0.331975  -0.574047  0  2.302492  0
