# generated using pymatgen
data_Cu2H12C12S(IN)2
_symmetry_space_group_name_H-M   'P 1'
_cell_length_a   7.72844629
_cell_length_b   9.60181451
_cell_length_c   11.34166828
_cell_angle_alpha   78.11814034
_cell_angle_beta   70.21978347
_cell_angle_gamma   69.53150550
_symmetry_Int_Tables_number   1
_chemical_formula_structural   Cu2H12C12S(IN)2
_chemical_formula_sum   'Cu4 H24 C24 S2 I4 N4'
_cell_volume   738.30433890
_cell_formula_units_Z   2
loop_
 _symmetry_equiv_pos_site_id
 _symmetry_equiv_pos_as_xyz
  1  'x, y, z'
loop_
 _atom_site_type_symbol
 _atom_site_label
 _atom_site_symmetry_multiplicity
 _atom_site_fract_x
 _atom_site_fract_y
 _atom_site_fract_z
 _atom_site_occupancy
 _atom_site_pbe_bader_charge
 _atom_site_pbe_bader_spin_density
 _atom_site_pbe_cm5_charge
 _atom_site_pbe_ddec_charge
 _atom_site_pbe_ddec_spin_density
 _atom_site_pbe_ddec_sum_bond_order
 _atom_site_pbe_magmom
Cu  Cu0  1  0.78717609  0.00971873  0.76706538  1  0.429608  0  0.299132  0.181774  0  2.741477  0
Cu  Cu1  1  0.21282340  0.99028206  0.23293398  1  0.429623  0  0.299132  0.181776  0  2.741456  0
Cu  Cu2  1  0.32011967  0.04618401  0.85468003  1  0.460488  0  0.309855  0.188004  0  2.676905  0
Cu  Cu3  1  0.67988025  0.95381567  0.14532030  1  0.460482  0  0.309866  0.188028  0  2.676892  0
H  H4  1  0.92508678  0.88176130  0.51479385  1  0.118357  0  0.105217  0.075298  0  1.02327  0
H  H5  1  0.07491271  0.11823949  0.48520639  1  0.118377  0  0.105232  0.075336  0  1.023257  0
H  H6  1  0.08412171  0.62847264  0.44121909  1  0.109537  0  0.09514  0.103325  0  1.052189  0
H  H7  1  0.91587915  0.37152815  0.55878172  1  0.10953  0  0.095139  0.103338  0  1.052148  0
H  H8  1  0.19133180  0.40981057  0.59706537  1  0.10522  0  0.093907  0.102935  0  1.027725  0
H  H9  1  0.80866906  0.59019022  0.40293367  1  0.10522  0  0.093912  0.102929  0  1.027725  0
H  H10  1  0.13558221  0.45849903  0.81491657  1  0.076845  0  0.093549  0.101585  0  1.039147  0
H  H11  1  0.86441909  0.54150064  0.18508344  1  0.076852  0  0.093552  0.101581  0  1.039152  0
H  H12  1  0.05826807  0.79377401  0.91281540  1  0.12977  0  0.098108  0.133891  0  1.013759  0
H  H13  1  0.94173179  0.20622231  0.08718818  1  0.129716  0  0.098125  0.133935  0  1.01374  0
H  H14  1  0.97649670  0.63533237  0.97994975  1  0.057017  0  0.096814  0.117785  0  1.000595  0
H  H15  1  0.02350091  0.36466619  0.02004867  1  0.057078  0  0.096827  0.117786  0  1.000649  0
H  H16  1  0.62341933  0.64929651  0.05430067  1  0.086026  0  0.100294  0.127238  0  0.989244  0
H  H17  1  0.37658241  0.35070204  0.94569680  1  0.086122  0  0.100308  0.127249  0  0.989224  0
H  H18  1  0.42736800  0.81607979  0.05898237  1  0.138942  0  0.077348  0.097363  0  1.108208  0
H  H19  1  0.57263236  0.18391876  0.94101541  1  0.139078  0  0.077347  0.097388  0  1.108208  0
H  H20  1  0.69363244  0.48221707  0.90517209  1  0.068728  0  0.093294  0.106575  0  1.02828  0
H  H21  1  0.30637205  0.51778148  0.09482298  1  0.068715  0  0.093283  0.106562  0  1.028287  0
H  H22  1  0.63549247  0.42515059  0.71973896  1  0.090101  0  0.088277  0.093813  0  1.057835  0
H  H23  1  0.36450521  0.57485131  0.28025622  1  0.090121  0  0.088292  0.093831  0  1.057859  0
H  H24  1  0.45629835  0.63925372  0.59132777  1  0.122637  0  0.09557  0.113633  0  1.026534  0
H  H25  1  0.54369201  0.36074930  0.40867242  1  0.122618  0  0.095566  0.113622  0  1.026558  0
H  H26  1  0.33051683  0.89382091  0.66231127  1  0.093409  0  0.100911  0.076606  0  1.031713  0
H  H27  1  0.66947809  0.10618100  0.33769159  1  0.093527  0  0.100911  0.076653  0  1.031668  0
C  C28  1  0.97452628  0.78522310  0.57852782  1  0.460901  0  0.043383  0.106058  0  3.92376  0
C  C29  1  0.02547783  0.21477992  0.42147184  1  0.460859  0  0.043361  0.106008  0  3.923837  0
C  C30  1  0.06352982  0.64284135  0.53827889  1  -0.042691  0  -0.089654  -0.128395  0  3.968724  0
C  C31  1  0.93647379  0.35715944  0.46171864  1  -0.042717  0  -0.089645  -0.128443  0  3.9689  0
C  C32  1  0.12163471  0.52336680  0.62396893  1  -0.078812  0  -0.075131  -0.025094  0  3.964961  0
C  C33  1  0.87836753  0.47663399  0.37603156  1  -0.078831  0  -0.075128  -0.025047  0  3.964926  0
C  C34  1  0.08953005  0.55059696  0.74695175  1  -0.010012  0  -0.091193  -0.174226  0  3.969448  0
C  C35  1  0.91047263  0.44940271  0.25304795  1  -0.010093  0  -0.091193  -0.174181  0  3.969392  0
C  C36  1  0.99892832  0.69572067  0.78103058  1  0.488058  0  0.101538  0.243186  0  3.949182  0
C  C37  1  0.00107485  0.30428123  0.21896862  1  0.488171  0  0.101549  0.24309  0  3.949196  0
C  C38  1  0.96027125  0.73432413  0.91123938  1  -0.131059  0  -0.15108  -0.25715  0  3.863309  0
C  C39  1  0.03972911  0.26567443  0.08876017  1  -0.131021  0  -0.151128  -0.257221  0  3.863451  0
C  C40  1  0.56500498  0.75141827  0.99776363  1  -0.167278  0  -0.158254  -0.258353  0  3.866126  0
C  C41  1  0.43499675  0.24858028  0.00223384  1  -0.167528  0  -0.158248  -0.258352  0  3.866125  0
C  C42  1  0.53686869  0.71680847  0.88449574  1  0.423564  0  0.104931  0.254626  0  3.941795  0
C  C43  1  0.46313079  0.28319232  0.11550450  1  0.423565  0  0.104945  0.254648  0  3.941868  0
C  C44  1  0.61186317  0.57097785  0.85003632  1  -0.002185  0  -0.092164  -0.173096  0  3.953566  0
C  C45  1  0.38813719  0.42902070  0.14996058  1  -0.002269  0  -0.092213  -0.173154  0  3.953689  0
C  C46  1  0.58223808  0.53937736  0.74533273  1  -0.046298  0  -0.07758  -0.027465  0  3.963816  0
C  C47  1  0.41775866  0.46062343  0.25466462  1  -0.04627  0  -0.077556  -0.027443  0  3.963784  0
C  C48  1  0.48162362  0.65661929  0.67521290  1  -0.029471  0  -0.090123  -0.119585  0  3.955163  0
C  C49  1  0.51836761  0.34338150  0.32478924  1  -0.029448  0  -0.090137  -0.119601  0  3.955296  0
C  C50  1  0.41074578  0.79920435  0.71430600  1  0.465476  0  0.03647  0.096961  0  3.91808  0
C  C51  1  0.58924776  0.20079756  0.28569541  1  0.465423  0  0.03645  0.096863  0  3.918179  0
S  S52  1  0.72202143  0.86961665  0.96535850  1  -0.020816  0  -0.064975  0.074735  0  3.700299  0
S  S53  1  0.27797755  0.13038190  0.03464136  1  -0.020819  0  -0.064989  0.074719  0  3.700373  0
I  I54  1  0.53900882  0.17284658  0.65587455  1  -0.46367  0  -0.212467  -0.372357  0  1.95484  0
I  I55  1  0.46099335  0.82715085  0.34412389  1  -0.463678  0  -0.212461  -0.372374  0  1.954843  0
I  I56  1  0.97734732  0.16093028  0.80860040  1  -0.483477  0  -0.212849  -0.389494  0  1.975296  0
I  I57  1  0.02265398  0.83906938  0.19139786  1  -0.483489  0  -0.212845  -0.389493  0  1.975299  0
N  N58  1  0.94191882  0.81151890  0.69731036  1  -1.237212  0  -0.360371  -0.231777  0  3.601486  0
N  N59  1  0.05808479  0.18848188  0.30268805  1  -1.237186  0  -0.360385  -0.231723  0  3.601443  0
N  N60  1  0.43394802  0.82985047  0.81805508  1  -1.211725  0  -0.3579  -0.238385  0  3.589363  0
N  N61  1  0.56604778  0.17014920  0.18194532  1  -1.211703  0  -0.357867  -0.238323  0  3.589377  0
