# generated using pymatgen
data_CoH18C23(N2O3)2
_symmetry_space_group_name_H-M   'P 1'
_cell_length_a   8.07307914
_cell_length_b   9.99199668
_cell_length_c   12.88080000
_cell_angle_alpha   96.67687950
_cell_angle_beta   100.05420930
_cell_angle_gamma   92.02668149
_symmetry_Int_Tables_number   1
_chemical_formula_structural   CoH18C23(N2O3)2
_chemical_formula_sum   'Co2 H36 C46 N8 O12'
_cell_volume   1014.50209894
_cell_formula_units_Z   2
loop_
 _symmetry_equiv_pos_site_id
 _symmetry_equiv_pos_as_xyz
  1  'x, y, z'
loop_
 _atom_site_type_symbol
 _atom_site_label
 _atom_site_symmetry_multiplicity
 _atom_site_fract_x
 _atom_site_fract_y
 _atom_site_fract_z
 _atom_site_occupancy
 _atom_site_hle17_ddec_charge
 _atom_site_hle17_ddec_spin_density
 _atom_site_hle17_ddec_sum_bond_order
 _atom_site_hle17_magmom
 _atom_site_hse06_10hf_ddec_charge
 _atom_site_hse06_10hf_ddec_spin_density
 _atom_site_hse06_10hf_ddec_sum_bond_order
 _atom_site_hse06_10hf_magmom
 _atom_site_hse06_ddec_charge
 _atom_site_hse06_ddec_spin_density
 _atom_site_hse06_ddec_sum_bond_order
 _atom_site_hse06_magmom
 _atom_site_pbe_bader_charge
 _atom_site_pbe_bader_spin_density
 _atom_site_pbe_cm5_charge
 _atom_site_pbe_ddec_charge
 _atom_site_pbe_ddec_spin_density
 _atom_site_pbe_ddec_sum_bond_order
 _atom_site_pbe_magmom
Co  Co0  1  0.01023042  0.19098945  0.09775281  1  0.999038  2.866763  2.006115  2.591  0.965141  2.850065  2.410199  2.651  1.041853  2.886091  2.33938  2.726  1.285456  2.601469  0.67104  0.895389  2.819059  2.477745  2.579
Co  Co1  1  0.98974478  0.80903184  0.90224997  1  0.99901  2.866766  2.00618  2.591  0.965137  2.850055  2.410286  2.651  1.04183  2.886058  2.339465  2.726  1.285677  2.6013  0.671051  0.895366  2.81891  2.477843  2.579
H  H2  1  0.99917297  0.69349147  0.63397291  1  0.415812  -1.8e-05  0.859727  0.0  0.385708  -3.3e-05  0.937794  0.0  0.398594  -9.1e-05  0.923245  0.0  0.645282  0.000165  0.310587  0.376556  5.6e-05  0.947851  0.0
H  H3  1  0.00085880  0.30654697  0.36605701  1  0.416089  -1.7e-05  0.859478  0.0  0.386058  -3.3e-05  0.937437  0.0  0.398942  -9.1e-05  0.922886  0.0  0.645676  0.000166  0.310618  0.376903  5.7e-05  0.947501  0.0
H  H4  1  0.79772194  0.40748418  0.95950713  1  0.107276  9e-06  0.960586  0.001  0.112642  -3.7e-05  1.030061  0.0  0.116405  -9.8e-05  1.025669  0.0  0.152447  0.000561  0.132263  0.109457  1.6e-05  1.03378  0.0
H  H5  1  0.20225284  0.59249572  0.04044762  1  0.107242  8e-06  0.960423  0.001  0.1126  -3.7e-05  1.029914  0.0  0.116361  -9.8e-05  1.025524  0.0  0.151862  0.000559  0.132229  0.109384  1.5e-05  1.033672  0.0
H  H6  1  0.65742465  0.00601021  0.99210412  1  0.107002  -5.9e-05  0.979325  0.0  0.114858  -6.8e-05  1.042443  0.0  0.117176  -0.000117  1.042206  0.0  0.133483  0.000657  0.116029  0.112964  -9e-06  1.04295  0.0
H  H7  1  0.34258902  0.99398584  0.00788040  1  0.106855  -5.9e-05  0.979527  0.0  0.114788  -6.8e-05  1.042554  0.0  0.117118  -0.000117  1.042293  0.0  0.133501  0.000658  0.116002  0.112901  -8e-06  1.04305  0.0
H  H8  1  0.41709364  0.09862498  0.83899369  1  0.115858  7e-05  0.955393  0.0  0.127826  0.000148  1.01293  0.0  0.130343  0.000113  1.012143  0.0  0.123981  0.000529  0.121261  0.125692  0.000156  1.014189  0.0
H  H9  1  0.58288861  0.90135391  0.16100060  1  0.115774  7.2e-05  0.955024  0.0  0.127779  0.000148  1.012566  0.0  0.130258  0.000113  1.01185  0.0  0.124286  0.000527  0.121204  0.125696  0.000155  1.01374  0.0
H  H10  1  0.56904041  0.46429001  0.82180933  1  0.085502  -5.7e-05  0.931364  0.0  0.10039  -1.9e-05  0.995407  0.0  0.10104  -1.4e-05  0.995303  0.0  0.091509  2.2e-05  0.114111  0.099467  -3e-05  0.996177  0.0
H  H11  1  0.43089831  0.53569595  0.17817540  1  0.085259  -5.7e-05  0.931575  0.0  0.100319  -1.9e-05  0.995503  0.0  0.100974  -1.5e-05  0.995404  0.0  0.09111  2.1e-05  0.114147  0.099401  -3.1e-05  0.996267  0.0
H  H12  1  0.37552242  0.36742722  0.79710078  1  0.078177  -5.8e-05  0.94939  0.0  0.092682  -3.3e-05  1.01587  0.0  0.092206  -2.5e-05  1.017764  0.0  0.096329  -1.5e-05  0.107149  0.092838  -6.5e-05  1.014724  0.0
H  H13  1  0.62443105  0.63251837  0.20287649  1  0.078158  -5.8e-05  0.949294  0.0  0.092759  -3.3e-05  1.015745  0.0  0.092298  -2.5e-05  1.017622  0.0  0.096827  -1.8e-05  0.107184  0.092916  -6.7e-05  1.014601  0.0
H  H14  1  0.38727526  0.44986247  0.61009494  1  0.092199  -4.4e-05  0.949761  0.0  0.105494  -8e-06  1.007192  0.0  0.108002  3e-06  1.006663  0.0  0.067818  -3.4e-05  0.100023  0.103737  -3.3e-05  1.007539  0.0
H  H15  1  0.61271925  0.55012954  0.38989256  1  0.092241  -4.5e-05  0.949815  0.0  0.105476  -8e-06  1.007307  0.0  0.10799  3e-06  1.006765  0.0  0.067915  -3.5e-05  0.100036  0.103722  -3.5e-05  1.007648  0.0
H  H16  1  0.42439896  0.35899072  0.43012941  1  0.091479  -7.2e-05  0.962536  0.0  0.101208  -5.2e-05  1.024273  0.0  0.104108  -3.6e-05  1.023351  0.0  0.064914  -5.6e-05  0.099613  0.099166  -7.5e-05  1.024973  0.0
H  H17  1  0.57561697  0.64101946  0.56986052  1  0.091552  -7.2e-05  0.962484  0.0  0.101259  -5.2e-05  1.024248  0.0  0.104164  -3.5e-05  1.023327  0.0  0.064155  -5.6e-05  0.099639  0.099213  -7.4e-05  1.024951  0.0
H  H18  1  0.73962155  0.05866288  0.56068669  1  0.108353  -1.9e-05  0.977487  0.0  0.119742  2e-06  1.038462  0.0  0.122596  5e-06  1.037099  0.0  0.116919  -7e-06  0.102693  0.117695  -9e-06  1.03943  0.0
H  H19  1  0.26040103  0.94135234  0.43930132  1  0.108455  -1.9e-05  0.977289  0.0  0.119792  2e-06  1.038311  0.0  0.122631  5e-06  1.036991  0.0  0.116317  -7e-06  0.102746  0.117749  -1e-05  1.039267  0.0
H  H20  1  0.70636952  0.15170558  0.74149757  1  0.088283  -9.6e-05  0.985763  0.0  0.095725  -9e-05  1.053448  0.0  0.097467  -6.1e-05  1.054408  0.0  0.093373  -9.4e-05  0.098308  0.094248  -0.000146  1.053376  0.0
H  H21  1  0.29362941  0.84829551  0.25848657  1  0.088318  -9.6e-05  0.985682  0.0  0.095728  -9e-05  1.053408  0.0  0.097467  -6.1e-05  1.054373  0.0  0.093797  -9.6e-05  0.098318  0.094257  -0.000147  1.053316  0.0
H  H22  1  0.73690679  0.16465352  0.36213695  1  0.098207  5.6e-05  0.916772  0.0  0.116273  3.5e-05  0.974292  0.0  0.117524  1.6e-05  0.973056  0.0  0.076067  0.000192  0.121115  0.115145  6.5e-05  0.975415  0.0
H  H23  1  0.26308909  0.83535767  0.63783613  1  0.098308  5.5e-05  0.916905  0.0  0.116352  3.5e-05  0.974344  0.0  0.117601  1.6e-05  0.973112  0.0  0.075878  0.000193  0.121165  0.115228  6.5e-05  0.975447  0.0
H  H24  1  0.59998489  0.02671541  0.37230793  1  0.084453  -0.000139  0.928247  0.0  0.099396  -5.5e-05  0.99378  0.0  0.099813  -3.1e-05  0.99414  0.0  0.068277  -0.000103  0.112397  0.09891  -9e-05  0.993813  0.0
H  H25  1  0.40002209  0.97329275  0.62768006  1  0.08447  -0.000138  0.928251  0.0  0.099308  -5.5e-05  0.993809  0.0  0.099724  -3e-05  0.994172  0.0  0.067985  -0.000102  0.112345  0.098804  -8.9e-05  0.993857  0.0
H  H26  1  0.25167145  0.10514386  0.31712688  1  0.107625  -3e-06  0.955086  0.001  0.114319  -4.5e-05  1.022978  0.0  0.11755  -5e-05  1.018817  0.0  0.173892  0.000468  0.134876  0.111789  -5.6e-05  1.026168  0.0
H  H27  1  0.74831561  0.89493798  0.68291061  1  0.107544  -3e-06  0.955154  0.001  0.114266  -4.4e-05  1.023007  0.0  0.117475  -5e-05  1.0189  0.0  0.173996  0.000468  0.134837  0.111751  -5.6e-05  1.026152  0.0
H  H28  1  0.36836673  0.30094854  0.06411462  1  0.102978  3.6e-05  0.948715  0.001  0.112593  9.5e-05  1.00802  0.0  0.115368  4.3e-05  1.006374  0.0  0.087614  0.000739  0.115448  0.110299  0.000143  1.00975  0.001
H  H29  1  0.63158610  0.69895264  0.93583606  1  0.103218  3.7e-05  0.948255  0.001  0.112783  9.5e-05  1.007574  0.0  0.115567  4.3e-05  1.005951  0.0  0.08796  0.000737  0.115443  0.110497  0.000142  1.00929  0.001
H  H30  1  0.66772558  0.27124871  0.20472865  1  0.12995  -8.5e-05  0.976678  0.0  0.135018  -5.7e-05  1.043791  0.0  0.138949  -8.4e-05  1.041185  0.0  0.14848  0.000549  0.119768  0.131967  -2.4e-05  1.04589  0.0
H  H31  1  0.33225076  0.72866457  0.79521017  1  0.129937  -8.4e-05  0.977058  0.0  0.135116  -5.6e-05  1.044024  0.0  0.138961  -8.4e-05  1.041525  0.0  0.149163  0.000549  0.119726  0.132076  -2.4e-05  1.046115  0.0
H  H32  1  0.96943894  0.52929414  0.39629696  1  0.117513  0.000116  0.975073  0.0  0.123576  6e-05  1.042774  0.0  0.128101  5.1e-05  1.037824  0.0  0.123831  0.000175  0.110669  0.120271  3.9e-05  1.046117  0.0
H  H33  1  0.03064560  0.47074329  0.60375262  1  0.117461  0.000115  0.975299  0.0  0.123541  6.1e-05  1.042953  0.0  0.128046  5.1e-05  1.03802  0.0  0.123722  0.000177  0.110683  0.120249  4e-05  1.0463  0.0
H  H34  1  0.91334026  0.94512298  0.34757419  1  0.11669  0.000213  0.956829  0.0  0.11938  9.8e-05  1.030599  0.0  0.123992  5.4e-05  1.025981  0.0  0.139185  0.000368  0.109339  0.116103  0.000154  1.0337  0.0
H  H35  1  0.08666550  0.05490335  0.65243705  1  0.116452  0.000212  0.956641  0.0  0.119207  9.9e-05  1.03043  0.0  0.123817  5.4e-05  1.025812  0.0  0.139527  0.00037  0.109233  0.115926  0.000155  1.033545  0.0
H  H36  1  0.94610365  0.64644732  0.08319344  1  0.116618  -0.000297  0.971367  0.0  0.121238  -0.00033  1.043377  0.0  0.125868  -0.000386  1.038679  0.0  0.131633  1.5e-05  0.111172  0.117665  -0.000244  1.047025  0.0
H  H37  1  0.05390973  0.35354469  0.91683494  1  0.116487  -0.000299  0.971399  0.0  0.12107  -0.000331  1.043485  0.0  0.125711  -0.000387  1.038765  0.0  0.13136  1.5e-05  0.110999  0.117501  -0.000243  1.047132  0.0
C  C38  1  0.72746422  0.31100795  0.95096541  1  0.146179  -0.01319  3.64836  -0.008  0.094186  -0.003925  3.912509  -0.002  0.10836  -0.003455  3.923705  -0.002  0.95712  -0.003983  0.133058  0.084444  -0.004746  3.904873  -0.002
C  C39  1  0.27252314  0.68897196  0.04900080  1  0.146528  -0.013181  3.647752  -0.008  0.094535  -0.003909  3.911863  -0.002  0.108713  -0.003437  3.923057  -0.002  0.957007  -0.00398  0.133158  0.084813  -0.00474  3.904247  -0.002
C  C40  1  0.64955577  0.10417496  0.96450059  1  0.015674  -0.00683  3.736265  -0.005  -0.017427  -0.002841  4.011294  -0.002  -0.014135  -0.002772  4.029584  -0.002  0.456134  -0.002157  -0.000732  -0.020015  -0.002872  3.998859  -0.002
C  C41  1  0.35045480  0.89581301  0.03548830  1  0.015715  -0.006826  3.736714  -0.005  -0.017459  -0.00284  4.011738  -0.002  -0.014147  -0.00277  4.029978  -0.002  0.456261  -0.002158  -0.000758  -0.02007  -0.002873  3.999357  -0.002
C  C42  1  0.53009477  0.14810147  0.88819124  1  -0.077412  0.003151  3.673647  0.004  -0.11686  0.000832  3.935828  0.001  -0.116067  0.000769  3.953912  0.001  0.250165  0.002014  -0.005201  -0.117414  0.000956  3.924498  0.001
C  C43  1  0.46988630  0.85187843  0.11179370  1  -0.077068  0.003149  3.67384  0.004  -0.116562  0.000832  3.936002  0.001  -0.115756  0.000769  3.954106  0.001  0.249713  0.002012  -0.005101  -0.117143  0.000955  3.924653  0.001
C  C44  1  0.51155880  0.36131406  0.79838231  1  -0.034349  0.000535  3.656578  0.001  -0.101142  0.00042  3.903497  0.001  -0.096223  0.000328  3.913738  0.001  0.264486  0.000951  -0.044402  -0.104137  0.000504  3.896661  0.001
C  C45  1  0.48840200  0.63866382  0.20159867  1  -0.033942  0.000535  3.656645  0.001  -0.101102  0.00042  3.90388  0.001  -0.096197  0.000328  3.91413  0.001  0.264425  0.000949  -0.044487  -0.104103  0.000502  3.897043  0.001
C  C46  1  0.54243660  0.30650559  0.68900047  1  0.062533  4.5e-05  3.750053  0.0  0.084038  3.1e-05  3.987069  0.0  0.083161  3.2e-05  4.011604  0.0  -0.065626  7.7e-05  -0.017019  0.084292  2.7e-05  3.970633  0.0
C  C47  1  0.45755008  0.69348239  0.31098271  1  0.062328  4.4e-05  3.749952  0.0  0.08392  3.1e-05  3.987  0.0  0.08304  3.2e-05  4.011541  0.0  -0.065887  7.3e-05  -0.017025  0.084175  2.4e-05  3.970563  0.0
C  C48  1  0.46621265  0.36451648  0.60003902  1  -0.121542  -0.000131  3.768831  0.0  -0.138993  -3e-05  4.014079  0.0  -0.142254  -7e-06  4.037004  0.0  -0.043956  -6.6e-05  -0.096802  -0.136838  -7.9e-05  3.998744  0.0
C  C49  1  0.53379501  0.63548361  0.39994754  1  -0.12148  -0.000128  3.768681  0.0  -0.138887  -3e-05  4.013895  0.0  -0.142142  -7e-06  4.036816  0.0  -0.043091  -6.9e-05  -0.096854  -0.136736  -8.1e-05  3.998567  0.0
C  C50  1  0.48708241  0.31283271  0.49800415  1  -0.113144  6.8e-05  3.761475  0.0  -0.134685  2.4e-05  4.011637  0.0  -0.137111  2.6e-05  4.033453  0.0  -0.024167  9.9e-05  -0.095216  -0.132806  2.7e-05  3.996831  0.0
C  C51  1  0.51291961  0.68717646  0.50198650  1  -0.113276  6.7e-05  3.761422  0.0  -0.134793  2.4e-05  4.011589  0.0  -0.137219  2.6e-05  4.033394  0.0  -0.024252  9.8e-05  -0.095205  -0.132918  2.6e-05  3.996793  0.0
C  C52  1  0.58368002  0.20104280  0.48297405  1  0.070369  -0.00033  3.748246  0.0  0.088779  -0.000124  3.990431  0.0  0.087964  -8.9e-05  4.014856  0.0  -0.070312  -0.000156  -0.014344  0.089152  -0.000176  3.973725  0.0
C  C53  1  0.41632865  0.79897142  0.51701700  1  0.07036  -0.000327  3.748335  0.0  0.088757  -0.000124  3.990418  0.0  0.087947  -8.9e-05  4.014837  0.0  -0.069535  -0.000156  -0.014369  0.089124  -0.000176  3.973712  0.0
C  C54  1  0.66255259  0.14486272  0.57187028  1  -0.122243  7.1e-05  3.752895  0.0  -0.140473  3.2e-05  3.998396  0.0  -0.14383  3.5e-05  4.021429  0.0  -0.04642  6.8e-05  -0.096226  -0.138107  2.2e-05  3.982767  0.0
C  C55  1  0.33746985  0.85515049  0.42811287  1  -0.122332  6.9e-05  3.752781  0.0  -0.140529  3.2e-05  3.998323  0.0  -0.1439  3.5e-05  4.021368  0.0  -0.046293  6.6e-05  -0.096285  -0.138164  2e-05  3.982698  0.0
C  C56  1  0.64321984  0.19755173  0.67372303  1  -0.124631  -0.000171  3.78351  0.0  -0.145624  -5.2e-05  4.034689  0.0  -0.148633  -3.6e-05  4.058392  0.0  -0.05435  -5.1e-05  -0.099697  -0.143491  -8.1e-05  4.019149  0.0
C  C57  1  0.35677956  0.80243827  0.32625939  1  -0.124595  -0.000169  3.783496  0.0  -0.145562  -5.3e-05  4.034648  0.0  -0.148569  -3.6e-05  4.058352  0.0  -0.05478  -5.5e-05  -0.09974  -0.143424  -8.4e-05  4.019105  0.0
C  C58  1  0.60982202  0.13726695  0.37517187  1  -0.037898  0.000547  3.648904  0.001  -0.106344  0.000457  3.899206  0.001  -0.101394  0.000355  3.908446  0.001  0.326937  0.001043  -0.042134  -0.109459  0.00056  3.893152  0.001
C  C59  1  0.39018007  0.86274323  0.62482353  1  -0.037982  0.000547  3.649341  0.001  -0.106211  0.000457  3.899395  0.001  -0.101259  0.000355  3.908629  0.001  0.327574  0.001042  -0.042054  -0.109301  0.00056  3.893328  0.001
C  C60  1  0.32227184  0.15246455  0.26547866  1  0.153519  -0.015837  3.637112  -0.01  0.097009  -0.003523  3.908685  -0.001  0.111683  -0.002533  3.919473  -0.001  0.957498  -0.004299  0.138539  0.0869  -0.005131  3.901637  -0.002
C  C61  1  0.67770214  0.84757490  0.73453959  1  0.153397  -0.015845  3.637525  -0.01  0.096913  -0.003519  3.909004  -0.001  0.111581  -0.002525  3.919792  -0.001  0.956197  -0.004296  0.138407  0.086813  -0.005134  3.901956  -0.002
C  C62  1  0.38888303  0.25749739  0.13824631  1  -0.004809  -0.006717  3.770865  -0.005  -0.034828  -0.001767  4.041737  -0.001  -0.032103  -0.001574  4.059803  -0.001  0.415879  -0.001733  -0.009865  -0.037023  -0.002143  4.03009  -0.001
C  C63  1  0.61107806  0.74244920  0.86172334  1  -0.005007  -0.006714  3.770845  -0.005  -0.034948  -0.001767  4.04175  -0.001  -0.03225  -0.001574  4.05982  -0.001  0.41496  -0.001737  -0.009855  -0.037142  -0.002148  4.030118  -0.001
C  C64  1  0.53697446  0.24357147  0.20614589  1  -0.075818  0.003762  3.664694  0.005  -0.1123  0.001349  3.9167  0.002  -0.111086  0.001128  3.93434  0.002  0.293716  0.003207  -0.00295  -0.112952  0.001582  3.905385  0.002
C  C65  1  0.46299914  0.75637412  0.79382194  1  -0.075987  0.003762  3.665296  0.005  -0.112609  0.001349  3.917297  0.002  -0.111329  0.001129  3.935015  0.002  0.292845  0.003209  -0.003106  -0.113274  0.001584  3.905972  0.002
C  C66  1  0.96096393  0.57236883  0.23498929  1  -0.07279  0.004357  3.774785  0.006  -0.043862  0.001299  4.010386  0.002  -0.053986  0.000646  4.031075  0.001  -0.018268  0.003722  -0.020437  -0.038249  0.001869  3.998622  0.003
C  C67  1  0.03904848  0.42762722  0.76504867  1  -0.072655  0.004349  3.774617  0.006  -0.043693  0.001298  4.010051  0.002  -0.053886  0.000645  4.030853  0.001  -0.018151  0.003722  -0.020436  -0.038065  0.00187  3.998255  0.003
C  C68  1  0.95603688  0.60613703  0.34272302  1  -0.052987  -0.010922  3.664102  -0.007  -0.095135  -0.001102  3.914151  0.0  -0.088317  0.000257  3.92853  0.0  -0.022825  -0.003469  -0.071411  -0.098947  -0.003977  3.904365  -0.002
C  C69  1  0.04402437  0.39389132  0.65731698  1  -0.053103  -0.010902  3.663927  -0.007  -0.095184  -0.001104  3.91389  0.0  -0.088334  0.000254  3.928297  0.0  -0.018707  -0.003446  -0.07146  -0.099013  -0.003955  3.904102  -0.002
C  C70  1  0.93602524  0.73971912  0.38284454  1  -0.07881  0.00289  3.767721  0.005  -0.053162  0.00029  4.005773  0.001  -0.065131  6e-05  4.030452  0.0  -0.016993  0.001357  -0.015266  -0.045599  0.000531  3.98919  0.001
C  C71  1  0.06404033  0.26029913  0.61719270  1  -0.078865  0.002881  3.767726  0.004  -0.053439  0.000289  4.005966  0.001  -0.065399  5.9e-05  4.030644  0.0  -0.020827  0.001356  -0.015248  -0.045858  0.000532  3.989344  0.001
C  C72  1  0.92153686  0.84045247  0.31518872  1  -0.046152  -0.011039  3.649526  -0.007  -0.086387  -0.000961  3.901528  0.0  -0.079608  0.000269  3.916238  0.0  -0.019828  -0.003258  -0.065554  -0.090304  -0.003822  3.891632  -0.002
C  C73  1  0.07849517  0.15957184  0.68483918  1  -0.045559  -0.011004  3.649181  -0.007  -0.085724  -0.00096  3.901169  0.0  -0.078943  0.000266  3.91587  0.0  -0.020038  -0.003234  -0.065397  -0.089639  -0.003796  3.891264  -0.002
C  C74  1  0.92652885  0.80715560  0.20700231  1  -0.082076  0.008017  3.753466  0.013  -0.054997  0.003424  3.98941  0.006  -0.066492  0.002065  4.01035  0.003  -0.094988  0.009652  -0.018313  -0.048017  0.004762  3.978119  0.008
C  C75  1  0.07351055  0.19284852  0.79301992  1  -0.082193  0.008007  3.753843  0.013  -0.055317  0.003422  3.990045  0.006  -0.066811  0.002064  4.010994  0.003  -0.095012  0.009645  -0.018361  -0.048337  0.00476  3.978735  0.008
C  C76  1  0.94427753  0.67286802  0.16731330  1  -0.060295  -0.008079  3.678342  -0.005  -0.10219  -0.001139  3.930589  0.0  -0.096262  -0.000555  3.945439  0.0  -0.012272  -0.00288  -0.072507  -0.107691  -0.003504  3.923547  -0.002
C  C77  1  0.05575899  0.32713105  0.83272213  1  -0.06027  -0.008055  3.678805  -0.005  -0.102086  -0.001133  3.931033  0.0  -0.096147  -0.00055  3.945912  0.0  -0.013333  -0.002858  -0.072373  -0.107583  -0.003481  3.923972  -0.002
C  C78  1  0.98522122  0.43120811  0.19070182  1  0.629299  -0.01223  3.886408  -0.009  0.581779  -0.004085  4.181468  -0.003  0.617726  -0.002499  4.177415  -0.002  1.536308  -0.004867  0.204698  0.555869  -0.006534  4.182122  -0.005
C  C79  1  0.01474068  0.56880307  0.80932887  1  0.629209  -0.012205  3.886157  -0.009  0.581777  -0.004065  4.18111  -0.003  0.61773  -0.002483  4.177084  -0.002  1.536433  -0.004852  0.204838  0.555878  -0.006509  4.18174  -0.005
C  C80  1  0.93643347  0.77511729  0.49878220  1  0.651063  -9.3e-05  3.826221  0.0  0.60068  7.8e-05  4.126444  0.0  0.633336  5.6e-05  4.119214  0.0  1.547063  0.000246  0.234363  0.578566  0.000126  4.131129  0.0
C  C81  1  0.06361528  0.22491206  0.50124954  1  0.650624  -9.1e-05  3.826446  0.0  0.600461  7.8e-05  4.126406  0.0  0.633097  5.6e-05  4.119209  0.0  1.547008  0.000251  0.234216  0.578349  0.000129  4.131079  0.0
C  C82  1  0.92244488  0.91290906  0.13285126  1  0.649863  -0.014883  3.871779  -0.009  0.609736  0.000836  4.16793  0.004  0.650862  0.001701  4.159286  0.005  1.529291  -0.001229  0.215379  0.577443  -0.002856  4.172957  0.001
C  C83  1  0.07758823  0.08709506  0.86716252  1  0.649902  -0.01486  3.872394  -0.009  0.60979  0.000833  4.168612  0.004  0.650909  0.001693  4.159972  0.005  1.528985  -0.001207  0.215284  0.577519  -0.002837  4.173617  0.001
N  N84  1  0.77196033  0.20642322  0.00334177  1  -0.381595  0.02599  3.315437  0.055  -0.339052  0.017689  3.613542  0.034  -0.361991  0.014762  3.625692  0.029  -1.207795  0.040931  -0.353396  -0.32111  0.020612  3.60471  0.039
N  N85  1  0.22804342  0.79357485  0.99663021  1  -0.381652  0.025991  3.315189  0.055  -0.33907  0.01769  3.613242  0.034  -0.362003  0.014762  3.625381  0.029  -1.207965  0.040936  -0.353223  -0.321128  0.020609  3.604408  0.039
N  N86  1  0.58099664  0.27989312  0.88057932  1  -0.070534  -0.000541  3.58992  0.0  0.024633  -0.000178  3.805293  0.001  0.010308  -9.1e-05  3.830227  0.001  -1.249353  0.000487  -0.250802  0.034087  -0.000332  3.788348  0.0
N  N87  1  0.41898486  0.72009283  0.11940466  1  -0.070998  -0.000541  3.590199  0.0  0.024209  -0.000175  3.805812  0.001  0.009875  -8.8e-05  3.830748  0.001  -1.248892  0.000485  -0.25084  0.033667  -0.000333  3.788871  0.0
N  N88  1  0.49267316  0.17660733  0.28611802  1  -0.060193  -0.000279  3.590025  0.001  0.034959  0.000332  3.804709  0.001  0.020337  0.000399  3.830374  0.001  -1.26673  0.001048  -0.246304  0.044367  9.7e-05  3.787794  0.001
N  N89  1  0.50730373  0.82338468  0.71387454  1  -0.06016  -0.000278  3.590696  0.001  0.034987  0.000334  3.80531  0.001  0.020366  0.000401  3.830961  0.001  -1.266602  0.001046  -0.24625  0.044396  9.7e-05  3.788385  0.001
N  N90  1  0.25646378  0.20046751  0.17613861  1  -0.369972  0.033618  3.353792  0.062  -0.326381  0.024374  3.650097  0.038  -0.349368  0.020887  3.661128  0.032  -1.184204  0.0505  -0.359666  -0.30955  0.027237  3.644551  0.044
N  N91  1  0.74349540  0.79954065  0.82387287  1  -0.369624  0.033615  3.353872  0.062  -0.326061  0.024375  3.650105  0.038  -0.34904  0.020887  3.661142  0.032  -1.182456  0.050486  -0.359367  -0.309235  0.027233  3.644571  0.044
O  O92  1  0.03322144  0.41075624  0.10144293  1  -0.590086  0.037801  2.000365  0.066  -0.55426  0.028839  2.257554  0.048  -0.589889  0.02063  2.250638  0.034  -1.147845  0.074372  -0.297284  -0.523896  0.038534  2.259618  0.063
O  O93  1  0.96659699  0.58921861  0.89852919  1  -0.590062  0.03774  2.000288  0.065  -0.554411  0.028797  2.257575  0.048  -0.589978  0.020596  2.250585  0.034  -1.147133  0.07429  -0.297441  -0.524046  0.038487  2.259629  0.063
O  O94  1  0.95383074  0.33088958  0.23968802  1  -0.636196  0.026113  2.034164  0.047  -0.592911  0.021535  2.281754  0.037  -0.626461  0.015408  2.272629  0.027  -1.177125  0.054828  -0.306525  -0.564968  0.027992  2.286439  0.047
O  O95  1  0.04620392  0.66911858  0.76036278  1  -0.636171  0.02612  2.034082  0.047  -0.592926  0.02154  2.281726  0.037  -0.626459  0.015413  2.272564  0.027  -1.177053  0.054833  -0.306496  -0.564967  0.028001  2.286399  0.047
O  O96  1  0.99342810  0.67552846  0.55446965  1  -0.562831  0.00023  2.125481  0.0  -0.510139  0.000129  2.345664  0.0  -0.532627  4.1e-05  2.330039  0.0  -1.169399  0.00062  -0.332323  -0.494341  0.000262  2.355873  0.0
O  O97  1  0.00661698  0.32452007  0.44557041  1  -0.563029  0.000229  2.125087  0.0  -0.510493  0.000129  2.345136  0.0  -0.53297  4.1e-05  2.329513  0.0  -1.169896  0.000623  -0.332433  -0.494691  0.000263  2.355343  0.0
O  O98  1  0.89243670  0.88301142  0.53834179  1  -0.54519  0.000386  1.961155  0.001  -0.504821  6e-05  2.185248  0.0  -0.524839  2e-06  2.177403  0.0  -1.161553  0.000266  -0.280829  -0.491102  0.000119  2.190208  0.0
O  O99  1  0.10761171  0.11703106  0.46168722  1  -0.544813  0.000386  1.961285  0.001  -0.504472  6e-05  2.18519  0.0  -0.524473  2e-06  2.17735  0.0  -1.161511  0.000268  -0.280627  -0.49073  0.00012  2.190097  0.0
O  O100  1  0.93610181  0.03655379  0.17295324  1  -0.589482  0.046944  2.049642  0.082  -0.562042  0.037331  2.325674  0.062  -0.59852  0.027781  2.312759  0.046  -1.147388  0.091909  -0.306314  -0.530769  0.047566  2.333939  0.078
O  O101  1  0.06388652  0.96345740  0.82706326  1  -0.589333  0.046969  2.049698  0.082  -0.561903  0.037351  2.32577  0.062  -0.598388  0.027792  2.312865  0.046  -1.147452  0.091977  -0.306183  -0.530618  0.047596  2.334014  0.078
O  O102  1  0.90376563  0.87328305  0.03371202  1  -0.630517  0.040415  2.187224  0.07  -0.60504  0.030701  2.489275  0.049  -0.644399  0.020618  2.476971  0.032  -1.153765  0.085082  -0.312431  -0.567804  0.043848  2.493605  0.07
O  O103  1  0.09628926  0.12670896  0.96629606  1  -0.630699  0.040366  2.187554  0.07  -0.605204  0.030653  2.48961  0.049  -0.644558  0.020581  2.477304  0.032  -1.153179  0.084963  -0.312481  -0.567982  0.043782  2.493931  0.07
