# generated using pymatgen
data_MnH16(C14N5)2
_symmetry_space_group_name_H-M   'P 1'
_cell_length_a   7.03356196
_cell_length_b   11.84957326
_cell_length_c   14.01340000
_cell_angle_alpha   90.00000000
_cell_angle_beta   96.29586883
_cell_angle_gamma   90.00000000
_symmetry_Int_Tables_number   1
_chemical_formula_structural   MnH16(C14N5)2
_chemical_formula_sum   'Mn2 H32 C56 N20'
_cell_volume   1160.89870721
_cell_formula_units_Z   2
loop_
 _symmetry_equiv_pos_site_id
 _symmetry_equiv_pos_as_xyz
  1  'x, y, z'
loop_
 _atom_site_type_symbol
 _atom_site_label
 _atom_site_symmetry_multiplicity
 _atom_site_fract_x
 _atom_site_fract_y
 _atom_site_fract_z
 _atom_site_occupancy
 _atom_site_pbe_bader_charge
 _atom_site_pbe_bader_spin_density
 _atom_site_pbe_cm5_charge
 _atom_site_pbe_ddec_charge
 _atom_site_pbe_ddec_spin_density
 _atom_site_pbe_ddec_sum_bond_order
 _atom_site_pbe_magmom
Mn  Mn0  1  0.99787852  0.49480769  0.49458466  1  1.436515  0.940851  0.837481  0.664422  1.020195  3.922434  0.938
Mn  Mn1  1  0.50218408  0.99467548  0.50546792  1  1.436101  -0.940829  0.837692  0.663242  -1.020128  3.923977  -0.938
H  H2  1  0.97902180  0.75682472  0.53559722  1  0.087286  -0.000257  0.111614  0.07277  -0.000205  1.054883  0.0
H  H3  1  0.48202142  0.74342762  0.53396337  1  0.117162  0.000256  0.11491  0.076407  0.000186  1.052525  0.0
H  H4  1  0.01790266  0.24334210  0.46602028  1  0.117123  -0.000257  0.11499  0.076387  -0.000188  1.052416  0.0
H  H5  1  0.52065746  0.25670123  0.46445138  1  0.087068  0.000256  0.111851  0.072886  0.000205  1.054526  0.0
H  H6  1  0.03674793  0.89708378  0.66749571  1  0.065519  -2e-05  0.105735  0.112282  2.9e-05  1.018895  0.0
H  H7  1  0.53794791  0.60396943  0.66569922  1  0.077735  3e-05  0.106912  0.113543  -3e-06  1.015478  0.0
H  H8  1  0.96189298  0.10395986  0.33422698  1  0.077527  -3.1e-05  0.107002  0.113569  2e-06  1.015329  0.0
H  H9  1  0.46305170  0.39699911  0.33257030  1  0.063469  2.1e-05  0.105778  0.112274  -2.8e-05  1.01872  0.0
H  H10  1  0.23364711  0.99079095  0.77085978  1  0.089516  -7.8e-05  0.097404  0.094888  -8.6e-05  1.058545  0.0
H  H11  1  0.73304623  0.50971962  0.76992682  1  0.079363  7.5e-05  0.097713  0.096024  8.5e-05  1.054162  0.0
H  H12  1  0.76732676  0.00966195  0.23001725  1  0.079172  -7.5e-05  0.09781  0.096119  -8.5e-05  1.054099  0.0
H  H13  1  0.26644719  0.49073750  0.22921031  1  0.089188  7.8e-05  0.097272  0.09475  8.5e-05  1.058769  0.0
H  H14  1  0.30976200  0.11650209  0.90922369  1  0.083581  -1.9e-05  0.107766  0.076267  -1.7e-05  1.019729  0.0
H  H15  1  0.80969037  0.38451089  0.90846401  1  0.092768  1.5e-05  0.107738  0.076301  1.3e-05  1.020515  0.0
H  H16  1  0.69081135  0.88439725  0.09149214  1  0.091345  -1.5e-05  0.10771  0.076373  -1.3e-05  1.019955  0.0
H  H17  1  0.19024218  0.61646608  0.09086213  1  0.08436  2e-05  0.107659  0.076157  1.7e-05  1.019752  0.0
H  H18  1  0.18040544  0.86853170  0.10075786  1  0.112233  -2.6e-05  0.106726  0.076421  -3e-05  1.019478  0.0
H  H19  1  0.68013356  0.63275359  0.09968173  1  0.118501  2.4e-05  0.106925  0.077047  2.9e-05  1.017705  0.0
H  H20  1  0.81940266  0.13283685  0.90022841  1  0.117431  -2.4e-05  0.106922  0.077256  -2.8e-05  1.018201  0.0
H  H21  1  0.31956011  0.36852382  0.89929088  1  0.113095  2.7e-05  0.106643  0.076275  3e-05  1.019319  0.0
H  H22  1  0.09261578  0.73211075  0.96905293  1  0.113738  -7e-06  0.109226  0.118949  -1.3e-05  1.018244  0.0
H  H23  1  0.59223661  0.76887157  0.96790310  1  0.107039  1.4e-05  0.109218  0.1183  2.2e-05  1.018467  0.0
H  H24  1  0.90720234  0.26899956  0.03198884  1  0.107586  -1.4e-05  0.10913  0.11828  -2.2e-05  1.017808  0.0
H  H25  1  0.40742845  0.23208009  0.03098087  1  0.113116  7e-06  0.109203  0.118893  1.3e-05  1.0185  0.0
H  H26  1  0.17890068  0.61515464  0.86088383  1  0.152754  -0.000121  0.104021  0.105156  -8.1e-05  1.08069  0.0
H  H27  1  0.67476104  0.88600743  0.85959268  1  0.187532  0.000133  0.104951  0.107339  0.000108  1.074663  0.0
H  H28  1  0.82539739  0.38604091  0.14039025  1  0.18708  -0.000134  0.104989  0.107212  -0.000107  1.074742  0.0
H  H29  1  0.32130232  0.11509950  0.13907593  1  0.152941  0.000121  0.104067  0.105077  8e-05  1.081108  0.0
H  H30  1  0.10923395  0.48941256  0.72172094  1  0.129984  -0.000454  0.117725  0.091036  -0.000435  1.02567  0.0
H  H31  1  0.60468808  0.01145020  0.72113815  1  0.12232  0.000489  0.120869  0.093885  0.000452  1.025379  0.0
H  H32  1  0.89556475  0.51144711  0.27885853  1  0.121502  -0.000489  0.120886  0.093887  -0.000453  1.025278  0.0
H  H33  1  0.39086177  0.98933689  0.27823006  1  0.128517  0.000454  0.11783  0.090942  0.000434  1.025819  0.0
C  C34  1  0.46838416  0.65673757  0.35661892  1  0.385323  0.037195  -0.031417  -0.184267  0.030316  4.319808  0.026
C  C35  1  0.97073559  0.84304555  0.35884274  1  0.393822  -0.037336  -0.032423  -0.188263  -0.030355  4.320485  -0.026
C  C36  1  0.52934559  0.34328578  0.64127152  1  0.393532  0.037432  -0.032101  -0.187643  0.030415  4.320011  0.026
C  C37  1  0.03156423  0.15664615  0.64336536  1  0.382954  -0.037237  -0.031526  -0.184415  -0.030354  4.319636  -0.026
C  C38  1  0.64441264  0.61793702  0.39926126  1  0.764134  -0.014867  0.189919  0.257531  -0.01008  4.061573  -0.009
C  C39  1  0.14729211  0.87894895  0.40329750  1  0.7546  0.013775  0.190604  0.259155  0.00912  4.061253  0.008
C  C40  1  0.35284795  0.37923560  0.59679866  1  0.757785  -0.013829  0.190254  0.257781  -0.009142  4.063649  -0.008
C  C41  1  0.85548832  0.11786332  0.60077386  1  0.766691  0.014887  0.189806  0.257316  0.010092  4.060621  0.009
C  C42  1  0.45961735  0.73430661  0.27977947  1  0.819613  -0.001989  0.17274  0.252026  -0.002044  4.117588  -0.005
C  C43  1  0.96061708  0.76818209  0.28006424  1  0.822976  0.002166  0.172684  0.254024  0.002014  4.117517  0.005
C  C44  1  0.53931678  0.26827717  0.71995199  1  0.821608  -0.002177  0.1726  0.254193  -0.002018  4.11711  -0.005
C  C45  1  0.04035535  0.23431055  0.72012837  1  0.817356  0.001995  0.172523  0.251768  0.002043  4.11803  0.005
C  C46  1  0.30527632  0.61591079  0.39349875  1  0.794127  -0.016928  0.185671  0.253665  -0.012257  4.064851  -0.011
C  C47  1  0.80820420  0.88087392  0.39811061  1  0.765505  0.016167  0.187949  0.256953  0.011664  4.064852  0.01
C  C48  1  0.69196424  0.38106098  0.60204199  1  0.763517  -0.016205  0.188128  0.257428  -0.011694  4.064301  -0.011
C  C49  1  0.19466349  0.11576957  0.60651574  1  0.793141  0.016959  0.186008  0.254074  0.012284  4.064096  0.011
C  C50  1  0.02485717  0.73027524  0.60880392  1  0.501649  0.000338  0.044861  0.082162  -2.4e-05  3.967078  0.0
C  C51  1  0.52577965  0.77035854  0.60721765  1  0.473724  -0.002626  0.045933  0.081718  -0.001945  3.936311  -0.002
C  C52  1  0.97421142  0.27033969  0.39277247  1  0.474964  0.002605  0.046027  0.082035  0.001925  3.936389  0.002
C  C53  1  0.47497250  0.23016778  0.39121878  1  0.502207  -0.000338  0.044808  0.082276  2.1e-05  3.967941  0.0
C  C54  1  0.05837387  0.80770757  0.68302231  1  -0.016114  -0.001034  -0.082438  -0.164914  -0.00089  3.933229  -0.001
C  C55  1  0.55870417  0.69335071  0.68157971  1  -0.051019  0.002066  -0.079837  -0.161121  0.001751  3.932548  0.001
C  C56  1  0.94126687  0.19334958  0.31838077  1  -0.050502  -0.002059  -0.080233  -0.161589  -0.001744  3.932179  -0.001
C  C57  1  0.44152875  0.30760939  0.31701297  1  -0.014264  0.001029  -0.082766  -0.164996  0.000886  3.934202  0.001
C  C58  1  0.11548901  0.76964544  0.77675859  1  -0.041486  0.000693  0.014003  0.107272  0.000564  3.962515  0.0
C  C59  1  0.61441038  0.73109131  0.77558740  1  -0.001278  -0.002849  0.015595  0.108403  -0.002358  3.957773  -0.002
C  C60  1  0.88558069  0.23111128  0.22436776  1  -0.001992  0.00283  0.015652  0.10832  0.002342  3.957092  0.002
C  C61  1  0.38454092  0.26958692  0.22326157  1  -0.04068  -0.000694  0.014344  0.107455  -0.000565  3.962532  0.0
C  C62  1  0.15591874  0.84910484  0.85743168  1  -0.047511  -7.8e-05  0.003784  0.092475  -6.1e-05  3.986529  0.0
C  C63  1  0.65519056  0.65169689  0.85628191  1  -0.006332  0.000417  0.004  0.091005  0.000348  3.985249  0.0
C  C64  1  0.84475760  0.15171010  0.14364377  1  -0.006468  -0.000414  0.004216  0.091204  -0.000346  3.983824  0.0
C  C65  1  0.34413121  0.34907586  0.14260243  1  -0.048117  7.8e-05  0.003839  0.092837  6.1e-05  3.987298  0.0
C  C66  1  0.21515513  0.96014513  0.84246673  1  -0.095529  0.000123  -0.089517  -0.176705  6.5e-05  3.956382  0.0
C  C67  1  0.71459145  0.54060175  0.84147088  1  -0.022751  -0.000428  -0.087692  -0.174196  -0.000316  3.951796  0.0
C  C68  1  0.78560417  0.04056180  0.15845273  1  -0.081492  0.000423  -0.08787  -0.174408  0.000313  3.951133  0.0
C  C69  1  0.28490483  0.46010265  0.15759862  1  -0.097024  -0.000123  -0.089635  -0.177066  -6.6e-05  3.956835  0.0
C  C70  1  0.25985599  0.03088381  0.92095650  1  0.532972  -0.000116  0.041595  0.090243  -0.0001  3.998475  0.0
C  C71  1  0.75954977  0.47006840  0.92009685  1  0.464305  0.000252  0.042226  0.09163  0.000213  3.998649  0.0
C  C72  1  0.74070163  0.96999780  0.07984195  1  0.522649  -0.000249  0.042116  0.09176  -0.000211  3.997928  0.0
C  C73  1  0.24015963  0.53085962  0.07911996  1  0.531996  0.000116  0.042052  0.091087  0.0001  3.997652  0.0
C  C74  1  0.18889762  0.89351488  0.02643972  1  0.497896  -0.000149  0.04407  0.099276  -0.000128  3.982434  0.0
C  C75  1  0.68850987  0.60758897  0.02540145  1  0.479316  0.000329  0.043924  0.098663  0.000276  3.984056  0.0
C  C76  1  0.81122087  0.10763679  0.97450655  1  0.479387  -0.000326  0.04407  0.098444  -0.000273  3.984645  0.0
C  C77  1  0.31109511  0.39349603  0.97361194  1  0.497833  0.000148  0.04406  0.099597  0.000128  3.981675  0.0
C  C78  1  0.14155342  0.81636189  0.95251779  1  -0.009371  0.000374  -0.080976  -0.1676  0.000319  3.915145  0.0
C  C79  1  0.64107699  0.68460103  0.95140115  1  -0.046333  -0.000875  -0.080516  -0.165277  -0.000737  3.914071  -0.001
C  C80  1  0.85857938  0.18467754  0.04850419  1  -0.046174  0.000872  -0.080508  -0.165069  0.000735  3.912891  0.001
C  C81  1  0.35848938  0.31633291  0.04751878  1  -0.009319  -0.000374  -0.08094  -0.167819  -0.00032  3.915381  0.0
C  C82  1  0.13429280  0.65263363  0.79048001  1  -0.022401  -0.000934  -0.078032  -0.15662  -0.000832  3.906645  -0.001
C  C83  1  0.63130462  0.84823983  0.78918730  1  -0.008782  0.001954  -0.076756  -0.155701  0.001707  3.908529  0.001
C  C84  1  0.86878372  0.34826402  0.21079605  1  -0.009058  -0.001948  -0.076713  -0.155383  -0.001702  3.908414  -0.001
C  C85  1  0.36580435  0.15257596  0.20948605  1  -0.02237  0.000933  -0.07832  -0.156853  0.00083  3.906944  0.001
C  C86  1  0.09767790  0.58061838  0.71233325  1  0.464273  -8.2e-05  0.05011  0.086903  -0.000446  3.924379  0.0
C  C87  1  0.59475408  0.92035888  0.71131025  1  0.417941  -0.001822  0.051467  0.086937  -0.001134  3.899824  -0.001
C  C88  1  0.90538146  0.42035691  0.28868854  1  0.420226  0.001804  0.051393  0.086989  0.001119  3.899338  0.001
C  C89  1  0.40234631  0.08053708  0.28763165  1  0.465569  8e-05  0.04969  0.086774  0.000445  3.924386  0.0
N  N90  1  0.78801865  0.58131798  0.43841636  1  -1.234967  0.006955  -0.378025  -0.371097  0.004209  3.49815  0.0
N  N91  1  0.29094676  0.91232062  0.44489794  1  -1.237029  -0.006839  -0.377454  -0.372239  -0.004059  3.494789  0.0
N  N92  1  0.20921476  0.41260136  0.55516872  1  -1.237929  0.006872  -0.377525  -0.371607  0.004063  3.49672  0.0
N  N93  1  0.71189661  0.08124512  0.56162597  1  -1.23507  -0.006958  -0.378065  -0.370563  -0.004205  3.49823  0.0
N  N94  1  0.45796240  0.79944567  0.21676503  1  -1.159913  0.02071  -0.305491  -0.381034  0.016775  2.813871  0.015
N  N95  1  0.95736439  0.70491652  0.21560673  1  -1.13242  -0.020865  -0.306585  -0.383204  -0.016863  2.808276  -0.015
N  N96  1  0.54246791  0.20484620  0.78428617  1  -1.130991  0.020913  -0.30669  -0.383533  0.016898  2.808501  0.015
N  N97  1  0.04196167  0.29950277  0.78310373  1  -1.15655  -0.020747  -0.305269  -0.380888  -0.016807  2.814171  -0.015
N  N98  1  0.17857742  0.57617349  0.43052793  1  -1.233479  0.006211  -0.374662  -0.366401  0.00393  3.489716  0.001
N  N99  1  0.68217042  0.91697311  0.43780817  1  -1.231155  -0.00638  -0.37527  -0.368474  -0.004026  3.48713  -0.001
N  N100  1  0.81795940  0.41714076  0.56231162  1  -1.231274  0.006402  -0.375351  -0.369127  0.00405  3.487188  0.001
N  N101  1  0.32137670  0.07598248  0.56951303  1  -1.233709  -0.006235  -0.37478  -0.36617  -0.003946  3.488584  -0.001
N  N102  1  0.04498693  0.61842987  0.62277743  1  -1.24657  -0.008874  -0.290131  -0.193457  -0.007693  3.479929  -0.011
N  N103  1  0.54440036  0.88290184  0.62088546  1  -1.239888  0.010491  -0.313892  -0.1748  0.009583  3.564211  0.016
N  N104  1  0.95568083  0.38288467  0.37911034  1  -1.241083  -0.010472  -0.313593  -0.175278  -0.00958  3.562811  -0.016
N  N105  1  0.45492427  0.11831987  0.37721550  1  -1.247259  0.008855  -0.289948  -0.193414  0.007668  3.479071  0.011
N  N106  1  0.24847158  0.99926130  0.01216342  1  -1.216459  0.000102  -0.313242  -0.256368  9.2e-05  3.335302  0.0
N  N107  1  0.74828552  0.50184423  0.01129539  1  -1.204736  -0.000367  -0.313831  -0.258542  -0.000305  3.334044  0.0
N  N108  1  0.75174704  0.00182876  0.98863636  1  -1.202663  0.000364  -0.313716  -0.258842  0.000303  3.334425  0.0
N  N109  1  0.25152115  0.49923570  0.98791036  1  -1.214251  -0.000101  -0.313352  -0.257049  -9.1e-05  3.335148  0.0
