# generated using pymatgen
data_ErH18C19N3O11
_symmetry_space_group_name_H-M   'P 1'
_cell_length_a   6.98822237
_cell_length_b   11.16075167
_cell_length_c   13.38100000
_cell_angle_alpha   102.55430961
_cell_angle_beta   101.61014256
_cell_angle_gamma   90.63850881
_symmetry_Int_Tables_number   1
_chemical_formula_structural   ErH18C19N3O11
_chemical_formula_sum   'Er2 H36 C38 N6 O22'
_cell_volume   996.19409947
_cell_formula_units_Z   2
loop_
 _symmetry_equiv_pos_site_id
 _symmetry_equiv_pos_as_xyz
  1  'x, y, z'
loop_
 _atom_site_type_symbol
 _atom_site_label
 _atom_site_symmetry_multiplicity
 _atom_site_fract_x
 _atom_site_fract_y
 _atom_site_fract_z
 _atom_site_occupancy
 _atom_site_hle17_bader_spin_density
 _atom_site_hle17_ddec_charge
 _atom_site_hle17_ddec_spin_density
 _atom_site_hle17_ddec_sum_bond_order
 _atom_site_hle17_magmom
 _atom_site_hse06_10hf_bader_spin_density
 _atom_site_hse06_10hf_ddec_charge
 _atom_site_hse06_10hf_ddec_spin_density
 _atom_site_hse06_10hf_ddec_sum_bond_order
 _atom_site_hse06_10hf_magmom
 _atom_site_hse06_bader_spin_density
 _atom_site_hse06_ddec_charge
 _atom_site_hse06_ddec_spin_density
 _atom_site_hse06_ddec_sum_bond_order
 _atom_site_hse06_magmom
 _atom_site_pbe_bader_charge
 _atom_site_pbe_bader_spin_density
 _atom_site_pbe_cm5_charge
 _atom_site_pbe_ddec_charge
 _atom_site_pbe_ddec_spin_density
 _atom_site_pbe_ddec_sum_bond_order
 _atom_site_pbe_magmom
Er  Er0  1  0.90369550  0.11258984  0.85272217  1  0  2.282957  0  1.590623  0  0  2.224987  0  1.906528  0  0  2.271894  0  1.865698  0  2.197887  0  1.509214  2.106392  0  2.092483  0
Er  Er1  1  0.09630431  0.88741507  0.14727758  1  0  2.282906  0  1.590785  0  0  2.224947  0  1.906709  0  0  2.271858  0  1.865882  0  2.197863  0  1.509202  2.106332  0  2.092689  0
H  H2  1  0.65746505  0.52305473  0.87843355  1  0  0.109261  0  0.987292  0  0  0.111591  0  1.062023  0  0  0.115902  0  1.058417  0  0.137544  0  0.104519  0.108301  0  1.064955  0
H  H3  1  0.34252524  0.47694192  0.12156519  1  0  0.109251  0  0.987296  0  0  0.111626  0  1.061954  0  0  0.11592  0  1.058377  0  0.137517  0  0.104517  0.10834  0  1.06488  0
H  H4  1  0.31150678  0.64664408  0.62169642  1  0  0.107451  0  0.969729  0  0  0.108833  0  1.049745  0  0  0.113192  0  1.045091  0  0.122547  0  0.107785  0.10567  0  1.053035  0
H  H5  1  0.68849082  0.35335256  0.37830533  1  0  0.107495  0  0.969724  0  0  0.108843  0  1.049771  0  0  0.113207  0  1.04512  0  0.122564  0  0.107765  0.105678  0  1.053063  0
H  H6  1  0.42716616  0.26286564  0.58841733  1  0  0.111062  0  0.944901  0  0  0.120463  0  1.009234  0  0  0.124  0  1.006763  0  0.105127  0  0.111632  0.117785  0  1.011418  0
H  H7  1  0.57281966  0.73713009  0.41158228  1  0  0.111037  0  0.944929  0  0  0.120498  0  1.009198  0  0  0.124033  0  1.006729  0  0.105197  0  0.111632  0.117817  0  1.011387  0
H  H8  1  0.65437391  0.47527769  0.04118579  1  0  0.408769  0  0.809457  0  0  0.382366  0  0.881154  0  0  0.391916  0  0.870735  0  0.651566  0  0.337498  0.37551  0  0.888858  0
H  H9  1  0.34563045  0.52472907  0.95881776  1  0  0.408975  0  0.809338  0  0  0.382593  0  0.881042  0  0  0.392143  0  0.870612  0  0.651494  0  0.337565  0.375732  0  0.888738  0
H  H10  1  0.85158889  0.36090869  0.04648710  1  0  0.118502  0  0.982208  0  0  0.123963  0  1.052161  0  0  0.12885  0  1.04712  0  0.124307  0  0.117535  0.120624  0  1.055059  0
H  H11  1  0.14841660  0.63909439  0.95351441  1  0  0.118442  0  0.982301  0  0  0.123909  0  1.052248  0  0  0.128802  0  1.04719  0  0.124249  0  0.117512  0.120572  0  1.055145  0
H  H12  1  0.16219034  0.26808910  0.32671886  1  0  0.118751  0  0.950748  0  0  0.12147  0  1.02385  0  0  0.126093  0  1.019143  0  0.128638  0  0.118126  0.117943  0  1.027662  0
H  H13  1  0.83780863  0.73190663  0.67328437  1  0  0.118737  0  0.950667  0  0  0.121422  0  1.023771  0  0  0.126065  0  1.019025  0  0.128626  0  0.118131  0.117898  0  1.027589  0
H  H14  1  0.02970910  0.64529615  0.33041870  1  0  0.120341  0  0.929277  0  0  0.128427  0  0.993755  0  0  0.132013  0  0.991294  0  0.145282  0  0.11943  0.12573  0  0.995838  0
H  H15  1  0.97029906  0.35470417  0.66958408  1  0  0.120374  0  0.929218  0  0  0.128452  0  0.993694  0  0  0.13204  0  0.99123  0  0.145117  0  0.119415  0.125754  0  0.995778  0
H  H16  1  0.49253991  0.07328840  0.89061185  1  0  0.44646  0  0.833396  0  0  0.424954  0  0.881665  0  0  0.434735  0  0.867236  0  0.633658  0  0.307398  0.416967  0  0.893359  0
H  H17  1  0.50745664  0.92671284  0.10938465  1  0  0.446309  0  0.83352  0  0  0.424823  0  0.881812  0  0  0.434605  0  0.867384  0  0.633653  0  0.307318  0.416833  0  0.89351  0
H  H18  1  0.54603436  0.94242091  0.83143550  1  0  0.437352  0  0.870654  0  0  0.40317  0  0.939434  0  0  0.415756  0  0.921374  0  0.652222  0  0.288432  0.393832  0  0.952675  0
H  H19  1  0.45395952  0.05758309  0.16856346  1  0  0.437321  0  0.870658  0  0  0.403126  0  0.939467  0  0  0.415711  0  0.921407  0  0.652185  0  0.288431  0.393785  0  0.952709  0
H  H20  1  0.23502961  0.00809769  0.96250562  1  0  0.426845  0  0.85759  0  0  0.397494  0  0.930087  0  0  0.407757  0  0.914654  0  0.624403  0  0.308065  0.390356  0  0.940277  0
H  H21  1  0.76497905  0.99190815  0.03749299  1  0  0.426746  0  0.857666  0  0  0.3974  0  0.930205  0  0  0.407656  0  0.914781  0  0.624359  0  0.30801  0.390262  0  0.940393  0
H  H22  1  0.30248128  0.15060404  0.99708057  1  0  0.436545  0  0.872442  0  0  0.402118  0  0.941857  0  0  0.41503  0  0.923078  0  0.671368  0  0.29071  0.392762  0  0.95519  0
H  H23  1  0.69752583  0.84940088  0.00291995  1  0  0.436544  0  0.872409  0  0  0.402098  0  0.941853  0  0  0.415022  0  0.923059  0  0.671407  0  0.290675  0.39274  0  0.955187  0
H  H24  1  0.31751819  0.07172808  0.72083949  1  0  0.0525  0  0.928964  0  0  0.062458  0  0.994861  0  0  0.063934  0  0.990464  0  0.154922  0  0.133715  0.060828  0  0.998756  0
H  H25  1  0.68248395  0.92827041  0.27916008  1  0  0.052511  0  0.928955  0  0  0.062474  0  0.994847  0  0  0.063948  0  0.990454  0  0.154923  0  0.13372  0.060844  0  0.998742  0
H  H26  1  0.07086988  0.75179733  0.54168656  1  0  0.09919  0  0.951584  0  0  0.112976  0  1.030353  0  0  0.113391  0  1.029548  0  0.059777  0  0.102547  0.11247  0  1.031175  0
H  H27  1  0.92913202  0.24819840  0.45831025  1  0  0.099218  0  0.951562  0  0  0.11301  0  1.030318  0  0  0.113428  0  1.029509  0  0.059822  0  0.102545  0.112506  0  1.031137  0
H  H28  1  0.03057557  0.84873703  0.45065091  1  0  0.104552  0  0.947853  0  0  0.125863  0  1.009004  0  0  0.126305  0  1.009444  0  0.091184  0  0.106842  0.125277  0  1.009074  0
H  H29  1  0.96943267  0.15126422  0.54934906  1  0  0.104583  0  0.947805  0  0  0.125847  0  1.009007  0  0  0.126289  0  1.009447  0  0.09133  0  0.10681  0.12526  0  1.009077  0
H  H30  1  0.90807435  0.87388980  0.55924923  1  0  0.116637  0  0.934895  0  0  0.137022  0  0.99345  0  0  0.138977  0  0.991798  0  0.112383  0  0.114039  0.135246  0  0.995222  0
H  H31  1  0.09193364  0.12610868  0.44074946  1  0  0.116695  0  0.934878  0  0  0.137065  0  0.993427  0  0  0.139019  0  0.991777  0  0.1123  0  0.114078  0.135289  0  0.995199  0
H  H32  1  0.50056477  0.98343439  0.61878988  1  0  0.115182  0  0.951926  0  0  0.132879  0  1.017955  0  0  0.134683  0  1.016513  0  0.078697  0  0.114646  0.131691  0  1.018392  0
H  H33  1  0.49944013  0.01656225  0.38121414  1  0  0.11516  0  0.951902  0  0  0.132879  0  1.017906  0  0  0.134682  0  1.016464  0  0.078747  0  0.114646  0.131689  0  1.018345  0
H  H34  1  0.38645621  0.90038223  0.48878600  1  0  0.106471  0  0.948905  0  0  0.126188  0  1.011944  0  0  0.127087  0  1.011744  0  0.085021  0  0.105578  0.125256  0  1.012514  0
H  H35  1  0.61355031  0.09961625  0.51121778  1  0  0.106403  0  0.948997  0  0  0.126125  0  1.012025  0  0  0.127021  0  1.011827  0  0.08493  0  0.105555  0.125192  0  1.012596  0
H  H36  1  0.44704952  0.82156144  0.59351524  1  0  0.11044  0  0.941833  0  0  0.126514  0  1.01042  0  0  0.127703  0  1.009313  0  0.094097  0  0.104661  0.12546  0  1.01144  0
H  H37  1  0.55295400  0.17843613  0.40648955  1  0  0.110448  0  0.941783  0  0  0.126533  0  1.010372  0  0  0.127721  0  1.009263  0  0.094162  0  0.104657  0.125476  0  1.011392  0
C  C38  1  0.65656632  0.28146082  0.78254385  1  0  0.637036  0  3.946261  0  0  0.592577  0  4.242513  0  0  0.626539  0  4.234583  0  1.537251  0  0.186138  0.570827  0  4.237776  0
C  C39  1  0.34343298  0.71853858  0.21745485  1  0  0.637015  0  3.94614  0  0  0.592565  0  4.242376  0  0  0.626525  0  4.234451  0  1.536795  0  0.186141  0.570818  0  4.237638  0
C  C40  1  0.54848974  0.38037368  0.74025631  1  0  -0.05919  0  3.766468  0  0  -0.030251  0  3.994739  0  0  -0.040176  0  4.019239  0  -0.077461  0  -0.02099  -0.024933  0  3.979856  0
C  C41  1  0.45149892  0.61962112  0.25974043  1  0  -0.059227  0  3.76631  0  0  -0.030277  0  3.994626  0  0  -0.040198  0  4.019123  0  -0.077392  0  -0.021012  -0.024961  0  3.979741  0
C  C42  1  0.56831369  0.50103272  0.79970058  1  0  -0.067305  0  3.691137  0  0  -0.10787  0  3.944889  0  0  -0.105625  0  3.965204  0  -0.072861  0  -0.076994  -0.108933  0  3.931623  0
C  C43  1  0.43167789  0.49896209  0.20029872  1  0  -0.067288  0  3.691046  0  0  -0.107893  0  3.944879  0  0  -0.105659  0  3.96518  0  -0.072836  0  -0.076987  -0.108969  0  3.931638  0
C  C44  1  0.48283800  0.59738488  0.75782434  1  0  -0.06733  0  3.75972  0  0  -0.039212  0  3.994208  0  0  -0.049139  0  4.019432  0  0.047848  0  -0.018237  -0.032891  0  3.97705  0
C  C45  1  0.51715676  0.40261269  0.24217728  1  0  -0.067162  0  3.759639  0  0  -0.039109  0  3.994204  0  0  -0.04898  0  4.01935  0  0.048194  0  -0.018179  -0.03279  0  3.977045  0
C  C46  1  0.37666318  0.57243714  0.65515599  1  0  -0.099547  0  3.661095  0  0  -0.137923  0  3.915173  0  0  -0.136385  0  3.934845  0  -0.048459  0  -0.068845  -0.138343  0  3.901479  0
C  C47  1  0.62332849  0.42755858  0.34484722  1  0  -0.099616  0  3.66118  0  0  -0.1379  0  3.915193  0  0  -0.136389  0  3.934848  0  -0.049043  0  -0.068805  -0.138312  0  3.901482  0
C  C48  1  0.35564968  0.45115011  0.59500128  1  0  0.14506  0  3.830166  0  0  0.152089  0  4.085758  0  0  0.149077  0  4.111011  0  0.338351  0  0.083448  0.153972  0  4.068475  0
C  C49  1  0.64434070  0.54884745  0.40500063  1  0  0.145038  0  3.830131  0  0  0.152058  0  4.085702  0  0  0.149042  0  4.110964  0  0.338575  0  0.083448  0.153943  0  4.068417  0
C  C50  1  0.44118468  0.35552709  0.63739633  1  0  -0.102447  0  3.653655  0  0  -0.138193  0  3.900703  0  0  -0.13743  0  3.919909  0  0.002447  0  -0.067203  -0.138493  0  3.888464  0
C  C51  1  0.55880544  0.64446772  0.36260131  1  0  -0.102481  0  3.653612  0  0  -0.138269  0  3.900659  0  0  -0.13751  0  3.919875  0  0.002246  0  -0.067241  -0.13857  0  3.888425  0
C  C52  1  0.51685775  0.72773963  0.82339492  1  0  0.640778  0  3.93042  0  0  0.588937  0  4.230019  0  0  0.622025  0  4.224434  0  1.609839  0  0.204844  0.566496  0  4.233656  0
C  C53  1  0.48312557  0.27226069  0.17660451  1  0  0.640638  0  3.930568  0  0  0.588805  0  4.230193  0  0  0.62188  0  4.224604  0  1.610141  0  0.204787  0.566363  0  4.233831  0
C  C54  1  0.83482559  0.60595517  0.12741351  1  0  0.710597  0  3.738452  0  0  0.660067  0  4.030146  0  0  0.694955  0  4.019783  0  1.497708  0  0.262131  0.635405  0  4.035477  0
C  C55  1  0.16518661  0.39404147  0.87258082  1  0  0.71032  0  3.73888  0  0  0.660042  0  4.030308  0  0  0.694895  0  4.019976  0  1.498195  0  0.262167  0.635385  0  4.035636  0
C  C56  1  0.92809195  0.51401459  0.18305097  1  0  -0.110106  0  3.828202  0  0  -0.084412  0  4.065289  0  0  -0.095977  0  4.09111  0  -0.005581  0  -0.01859  -0.077199  0  4.048882  0
C  C57  1  0.07191629  0.48598666  0.81694900  1  0  -0.109972  0  3.828167  0  0  -0.084384  0  4.065251  0  0  -0.095938  0  4.091077  0  -0.005858  0  -0.01864  -0.07717  0  4.048843  0
C  C58  1  0.91966032  0.39088220  0.12945319  1  0  -0.063353  0  3.661817  0  0  -0.102998  0  3.911113  0  0  -0.09937  0  3.928068  0  -0.005295  0  -0.065421  -0.10518  0  3.900369  0
C  C59  1  0.08035368  0.60911812  0.87054871  1  0  -0.063335  0  3.661694  0  0  -0.102941  0  3.910979  0  0  -0.099317  0  3.92794  0  -0.004807  0  -0.065303  -0.105123  0  3.900232  0
C  C60  1  0.00517351  0.30267830  0.18112549  1  0  -0.039078  0  3.723522  0  0  -0.015796  0  3.955839  0  0  -0.02522  0  3.977726  0  -0.070992  0  -0.003487  -0.010747  0  3.943879  0
C  C61  1  0.99484082  0.69732570  0.81887562  1  0  -0.038877  0  3.723373  0  0  -0.015634  0  3.955731  0  0  -0.025062  0  3.977616  0  -0.071208  0  -0.003439  -0.010597  0  3.943797  0
C  C62  1  0.09400193  0.33653194  0.28661871  1  0  -0.077058  0  3.621734  0  0  -0.113934  0  3.867936  0  0  -0.111025  0  3.884899  0  0.033814  0  -0.054016  -0.115669  0  3.85719  0
C  C63  1  0.90599754  0.66346930  0.71338781  1  0  -0.077217  0  3.621684  0  0  -0.114036  0  3.867879  0  0  -0.111138  0  3.884844  0  0.033787  0  -0.054163  -0.115782  0  3.857143  0
C  C64  1  0.09989309  0.45975995  0.34085090  1  0  0.146885  0  3.798555  0  0  0.156359  0  4.051162  0  0  0.153529  0  4.07586  0  0.370515  0  0.090557  0.158112  0  4.034334  0
C  C65  1  0.90009908  0.54024129  0.65915111  1  0  0.146981  0  3.798623  0  0  0.156509  0  4.051057  0  0  0.153678  0  4.075763  0  0.370623  0  0.090611  0.158262  0  4.034229  0
C  C66  1  0.02050235  0.54935315  0.28867953  1  0  -0.084187  0  3.653666  0  0  -0.120173  0  3.902317  0  0  -0.118678  0  3.922282  0  -0.049298  0  -0.057196  -0.120853  0  3.888997  0
C  C67  1  0.97949567  0.45064809  0.71132235  1  0  -0.084297  0  3.653628  0  0  -0.120261  0  3.902258  0  0  -0.118765  0  3.922216  0  -0.049036  0  -0.057208  -0.120937  0  3.888937  0
C  C68  1  0.00182036  0.17238791  0.12190685  1  0  0.740539  0  3.839642  0  0  0.693372  0  4.128005  0  0  0.729703  0  4.115926  0  1.597759  0  0.244555  0.66752  0  4.131345  0
C  C69  1  0.99817232  0.82761884  0.87808800  1  0  0.74032  0  3.839998  0  0  0.693118  0  4.12842  0  0  0.729472  0  4.116315  0  1.597901  0  0.244477  0.667266  0  4.131756  0
C  C70  1  0.18110165  0.01885907  0.67704735  1  0  0.433616  0  3.772493  0  0  0.359493  0  4.06477  0  0  0.389011  0  4.0624  0  1.332439  0  0.192272  0.339284  0  4.062125  0
C  C71  1  0.81889749  0.98113850  0.32295473  1  0  0.433577  0  3.77246  0  0  0.359436  0  4.064756  0  0  0.388955  0  4.062392  0  1.332404  0  0.192279  0.339227  0  4.06211  0
C  C72  1  0.04300364  0.84626368  0.53332100  1  0  -0.170512  0  3.626286  0  0  -0.272077  0  3.871978  0  0  -0.268374  0  3.882076  0  0.215894  0  -0.132154  -0.274519  0  3.866161  0
C  C73  1  0.95700142  0.15373481  0.46667814  1  0  -0.170614  0  3.626217  0  0  -0.272141  0  3.871919  0  0  -0.268439  0  3.882014  0  0.215948  0  -0.132136  -0.274584  0  3.866102  0
C  C74  1  0.39664578  0.90762575  0.57288307  1  0  -0.185837  0  3.634616  0  0  -0.286586  0  3.880473  0  0  -0.2835  0  3.890546  0  0.232852  0  -0.132267  -0.288409  0  3.874033  0
C  C75  1  0.60336066  0.09237182  0.42712127  1  0  -0.185772  0  3.634581  0  0  -0.286535  0  3.880416  0  0  -0.283441  0  3.890486  0  0.232806  0  -0.132232  -0.288357  0  3.873978  0
N  N76  1  0.25764052  0.41509897  0.48980081  1  0  -0.149265  0  3.032618  0  0  -0.12383  0  3.316847  0  0  -0.123187  0  3.325927  0  -0.520351  0  -0.145204  -0.124273  0  3.310902  0
N  N77  1  0.74234847  0.58489952  0.51020262  1  0  -0.149226  0  3.032615  0  0  -0.123829  0  3.31686  0  0  -0.123191  0  3.32594  0  -0.520285  0  -0.145252  -0.124272  0  3.310917  0
N  N78  1  0.19053546  0.50136372  0.44767606  1  0  -0.147643  0  2.983123  0  0  -0.126937  0  3.267697  0  0  -0.126495  0  3.277459  0  -0.452987  0  -0.146102  -0.127291  0  3.261355  0
N  N79  1  0.80945784  0.49863384  0.55232990  1  0  -0.147766  0  2.983334  0  0  -0.127049  0  3.267877  0  0  -0.126606  0  3.277638  0  -0.453141  0  -0.146073  -0.127405  0  3.261534  0
N  N80  1  0.20421081  0.93024541  0.59670460  1  0  -0.067895  0  3.488492  0  0  0.036976  0  3.718649  0  0  0.016575  0  3.744065  0  -1.203268  0  -0.273338  0.050279  0  3.702054  0
N  N81  1  0.79579280  0.06975307  0.40329662  1  0  -0.067899  0  3.488434  0  0  0.036979  0  3.718603  0  0  0.016571  0  3.744025  0  -1.20343  0  -0.273387  0.050279  0  3.702011  0
O  O82  1  0.68855452  0.18417357  0.71844499  1  0  -0.716022  0  1.977144  0  0  -0.682904  0  2.226143  0  0  -0.707055  0  2.215773  0  -1.186766  0  -0.385537  -0.655808  0  2.232185  0
O  O83  1  0.31144195  0.81582676  0.28154984  1  0  -0.715984  0  1.977133  0  0  -0.682879  0  2.226165  0  0  -0.707035  0  2.215803  0  -1.187024  0  -0.385539  -0.655777  0  2.2322  0
O  O84  1  0.72374520  0.29675605  0.88092926  1  0  -0.698441  0  1.980462  0  0  -0.661771  0  2.222187  0  0  -0.685915  0  2.212788  0  -1.17564  0  -0.378795  -0.635836  0  2.227866  0
O  O85  1  0.27624981  0.70324427  0.11906915  1  0  -0.698369  0  1.980369  0  0  -0.661715  0  2.222112  0  0  -0.685865  0  2.212713  0  -1.17494  0  -0.378761  -0.635776  0  2.22779  0
O  O86  1  0.61403752  0.73928254  0.91620600  1  0  -0.615021  0  2.00124  0  0  -0.560038  0  2.227485  0  0  -0.584928  0  2.217843  0  -1.185986  0  -0.316291  -0.542887  0  2.23409  0
O  O87  1  0.38595895  0.26071778  0.08379256  1  0  -0.614892  0  2.001289  0  0  -0.559952  0  2.227556  0  0  -0.58484  0  2.217928  0  -1.186419  0  -0.316273  -0.542802  0  2.234161  0
O  O88  1  0.44939198  0.81320629  0.77988361  1  0  -0.61888  0  1.964604  0  0  -0.561068  0  2.183895  0  0  -0.587096  0  2.176437  0  -1.180771  0  -0.319164  -0.543285  0  2.189306  0
O  O89  1  0.55060269  0.18679035  0.22011186  1  0  -0.618897  0  1.964681  0  0  -0.561037  0  2.183935  0  0  -0.587066  0  2.176485  0  -1.18052  0  -0.319167  -0.543253  0  2.18935  0
O  O90  1  0.88724580  0.71605972  0.14928945  1  0  -0.620829  0  2.038856  0  0  -0.585844  0  2.28361  0  0  -0.608479  0  2.274013  0  -1.159151  0  -0.321257  -0.558343  0  2.293109  0
O  O91  1  0.11279061  0.28394612  0.85070759  1  0  -0.620665  0  2.039187  0  0  -0.58571  0  2.283779  0  0  -0.608357  0  2.27425  0  -1.159574  0  -0.321245  -0.558211  0  2.293262  0
O  O92  1  0.68217028  0.56373812  0.04858012  1  0  -0.505015  0  2.126409  0  0  -0.448076  0  2.34134  0  0  -0.468556  0  2.326902  0  -1.130835  0  -0.302307  -0.434593  0  2.352507  0
O  O93  1  0.31784268  0.43626680  0.95141428  1  0  -0.505092  0  2.126214  0  0  -0.44839  0  2.341213  0  0  -0.468853  0  2.326776  0  -1.130893  0  -0.302392  -0.434895  0  2.352385  0
O  O94  1  0.91232551  0.14585595  0.02613517  1  0  -0.7811  0  2.108269  0  0  -0.739957  0  2.369029  0  0  -0.765073  0  2.35362  0  -1.215642  0  -0.40992  -0.707818  0  2.380598  0
O  O95  1  0.08767138  0.85414897  0.97386278  1  0  -0.78101  0  2.108216  0  0  -0.739844  0  2.368969  0  0  -0.764978  0  2.353579  0  -1.215557  0  -0.409866  -0.707696  0  2.380534  0
O  O96  1  0.08370290  0.09516606  0.17040113  1  0  -0.707723  0  2.060109  0  0  -0.665918  0  2.309926  0  0  -0.691565  0  2.298906  0  -1.184217  0  -0.389761  -0.635986  0  2.319912  0
O  O97  1  0.91629570  0.90484162  0.82960124  1  0  -0.707634  0  2.060388  0  0  -0.66582  0  2.310219  0  0  -0.691476  0  2.299187  0  -1.184452  0  -0.38976  -0.635891  0  2.320205  0
O  O98  1  0.59929962  0.03245973  0.86102864  1  0  -0.953316  0  1.88495  0  0  -0.912743  0  2.080101  0  0  -0.932737  0  2.046544  0  -1.285703  0  -0.657372  -0.886507  0  2.110578  0
O  O99  1  0.40069238  0.96753967  0.13896779  1  0  -0.95316  0  1.885028  0  0  -0.912587  0  2.080227  0  0  -0.932591  0  2.04668  0  -1.28569  0  -0.657293  -0.886349  0  2.110717  0
O  O100  1  0.24130721  0.08123806  0.93316357  1  0  -0.926083  0  1.883912  0  0  -0.881685  0  2.074067  0  0  -0.902199  0  2.041522  0  -1.291928  0  -0.617524  -0.85658  0  2.101755  0
O  O101  1  0.75869723  0.91876962  0.06683791  1  0  -0.925909  0  1.883892  0  0  -0.881539  0  2.074144  0  0  -0.902056  0  2.041587  0  -1.291899  0  -0.617436  -0.856428  0  2.101835  0
O  O102  1  0.01886953  0.04311905  0.70174373  1  0  -0.650656  0  2.132893  0  0  -0.613457  0  2.401981  0  0  -0.636472  0  2.391908  0  -1.184147  0  -0.388329  -0.584654  0  2.410401  0
O  O103  1  0.98112969  0.95687944  0.29825554  1  0  -0.65062  0  2.132838  0  0  -0.613401  0  2.401923  0  0  -0.63642  0  2.391863  0  -1.184063  0  -0.388321  -0.584596  0  2.410344  0
