# generated using pymatgen
data_Zn2H19C26SO11
_symmetry_space_group_name_H-M   'P 1'
_cell_length_a   11.10232434
_cell_length_b   16.22579397
_cell_length_c   23.47468257
_cell_angle_alpha   89.97023569
_cell_angle_beta   95.27360225
_cell_angle_gamma   89.90889671
_symmetry_Int_Tables_number   1
_chemical_formula_structural   Zn2H19C26SO11
_chemical_formula_sum   'Zn8 H76 C104 S4 O44'
_cell_volume   4210.91761811
_cell_formula_units_Z   4
loop_
 _symmetry_equiv_pos_site_id
 _symmetry_equiv_pos_as_xyz
  1  'x, y, z'
loop_
 _atom_site_type_symbol
 _atom_site_label
 _atom_site_symmetry_multiplicity
 _atom_site_fract_x
 _atom_site_fract_y
 _atom_site_fract_z
 _atom_site_occupancy
 _atom_site_pbe_bader_charge
 _atom_site_pbe_bader_spin_density
 _atom_site_pbe_cm5_charge
 _atom_site_pbe_ddec_charge
 _atom_site_pbe_ddec_spin_density
 _atom_site_pbe_ddec_sum_bond_order
 _atom_site_pbe_magmom
Zn  Zn0  1  0.94829755  0.48043553  0.15627651  1  1.337964  0  0.694712  0.962975  0  2.308425  0
Zn  Zn1  1  0.15903123  0.33885431  0.24158094  1  1.393422  0  0.679871  1.030873  0  2.208805  0
Zn  Zn2  1  0.84706049  0.83795341  0.26089938  1  1.399054  0  0.679579  1.030299  0  2.204583  0
Zn  Zn3  1  0.04398643  0.51939113  0.84651674  1  1.342908  0  0.69554  0.962212  0  2.307191  0
Zn  Zn4  1  0.85115503  0.65956919  0.75755075  1  1.411822  0  0.685242  1.058106  0  2.193268  0
Zn  Zn5  1  0.95278804  0.01909095  0.65505709  1  1.339792  0  0.695467  0.959913  0  2.308747  0
Zn  Zn6  1  0.15093831  0.15916144  0.74366839  1  1.412104  0  0.68375  1.057505  0  2.20658  0
Zn  Zn7  1  0.05496711  0.98022177  0.34622756  1  1.339275  0  0.695241  0.962979  0  2.313729  0
H  H8  1  0.21439286  0.52124057  0.41339362  1  0.050329  0  0.103852  0.110491  0  1.009553  0
H  H9  1  0.22274201  0.38908507  0.46293233  1  0.090685  0  0.10233  0.108478  0  1.014308  0
H  H10  1  0.49320924  0.74726730  0.40072789  1  0.052071  0  0.10637  0.114282  0  1.002651  0
H  H11  1  0.32325825  0.25849229  0.42929201  1  0.059976  0  0.099499  0.098336  0  1.028771  0
H  H12  1  0.09499776  0.07898139  0.50085173  1  0.12907  0  0.113641  0.128774  0  0.991737  0
H  H13  1  0.28900139  0.25411006  0.61106300  1  0.099344  0  0.106457  0.116914  0  1.003073  0
H  H14  1  0.28743310  0.78164677  0.38274671  1  0.103258  0  0.110728  0.121187  0  0.996006  0
H  H15  1  0.06940869  0.69623494  0.23414520  1  0.142562  0  0.10674  0.110878  0  1.034899  0
H  H16  1  0.30203582  0.52618328  0.33055213  1  0.087735  0  0.10535  0.109307  0  1.033633  0
H  H17  1  0.54499849  0.22160066  0.23376795  1  0.086674  0  0.111851  0.175152  0  0.973717  0
H  H18  1  0.63397477  0.25111917  0.29812645  1  0.091751  0  0.111568  0.170727  0  0.971475  0
H  H19  1  0.59758906  0.32624894  0.24205645  1  0.107725  0  0.11245  0.17551  0  0.970014  0
H  H20  1  0.40869248  0.40597694  0.36081592  1  0.124819  0  0.105083  0.167235  0  1.013704  0
H  H21  1  0.52081953  0.42971031  0.31210948  1  0.102342  0  0.113033  0.175371  0  0.963357  0
H  H22  1  0.55548696  0.35926937  0.37137734  1  0.082863  0  0.110236  0.168312  0  0.971305  0
H  H23  1  0.69924977  0.02564457  0.17130518  1  0.108619  0  0.105811  0.110786  0  1.029686  0
H  H24  1  0.46450221  0.71410567  0.26682663  1  0.083152  0  0.111209  0.174345  0  0.973136  0
H  H25  1  0.37975096  0.74033898  0.20055086  1  0.102673  0  0.111874  0.170808  0  0.970529  0
H  H26  1  0.40765321  0.81748572  0.25590856  1  0.105643  0  0.111796  0.17417  0  0.972102  0
H  H27  1  0.60454302  0.89794046  0.14061456  1  0.088505  0  0.104751  0.167648  0  1.015054  0
H  H28  1  0.48612716  0.92061597  0.18621086  1  0.085623  0  0.113139  0.175288  0  0.9631  0
H  H29  1  0.46043927  0.84841579  0.12737612  1  0.076002  0  0.11028  0.16822  0  0.97158  0
H  H30  1  0.78778752  0.47958919  0.58351678  1  0.078419  0  0.102992  0.109966  0  1.010007  0
H  H31  1  0.77904002  0.61271212  0.53393461  1  0.044477  0  0.101821  0.108403  0  1.013603  0
H  H32  1  0.51016922  0.25349557  0.59568397  1  0.065381  0  0.105899  0.113023  0  1.006541  0
H  H33  1  0.66902506  0.74571082  0.56906382  1  0.030583  0  0.096765  0.09085  0  1.038898  0
H  H34  1  0.91153107  0.91963187  0.50177749  1  0.118969  0  0.11463  0.129142  0  0.989516  0
H  H35  1  0.71876578  0.74689693  0.38878695  1  0.100224  0  0.10726  0.118742  0  1.002231  0
H  H36  1  0.71826343  0.21962445  0.61266209  1  0.098935  0  0.110681  0.120869  0  0.99465  0
H  H37  1  0.93215709  0.30403129  0.76282795  1  0.145586  0  0.110535  0.119786  0  1.021375  0
H  H38  1  0.69592996  0.47328811  0.66741511  1  0.073293  0  0.101076  0.101123  0  1.042146  0
H  H39  1  0.44454875  0.78274259  0.76485496  1  0.075732  0  0.108548  0.170377  0  0.978179  0
H  H40  1  0.35670053  0.75392880  0.70009362  1  0.079767  0  0.112282  0.172527  0  0.966845  0
H  H41  1  0.39242899  0.67819895  0.75576612  1  0.115493  0  0.111825  0.17551  0  0.968274  0
H  H42  1  0.57853376  0.59766683  0.63711670  1  0.069519  0  0.097264  0.147392  0  1.03229  0
H  H43  1  0.46966449  0.57519761  0.68744699  1  0.077399  0  0.113398  0.176993  0  0.959573  0
H  H44  1  0.43258367  0.64532331  0.62828154  1  0.07825  0  0.111967  0.171357  0  0.966266  0
H  H45  1  0.21408060  0.98399813  0.91664952  1  0.084991  0  0.103838  0.110967  0  1.008582  0
H  H46  1  0.22498369  0.11679347  0.96640744  1  0.077366  0  0.101354  0.107786  0  1.017187  0
H  H47  1  0.48502439  0.75333703  0.90702950  1  0.066582  0  0.105445  0.113096  0  1.005913  0
H  H48  1  0.33037552  0.24704583  0.93209952  1  0.056767  0  0.097578  0.09243  0  1.035987  0
H  H49  1  0.08995064  0.42083697  0.00134068  1  0.114659  0  0.114599  0.130247  0  0.989519  0
H  H50  1  0.28963903  0.24951306  0.11324412  1  0.109928  0  0.107353  0.118252  0  1.002598  0
H  H51  1  0.27978681  0.72152826  0.89100470  1  0.088928  0  0.10894  0.118571  0  0.998779  0
H  H52  1  0.06274138  0.80303915  0.74079681  1  0.139515  0  0.111815  0.130767  0  1.009061  0
H  H53  1  0.30206554  0.97348350  0.83241406  1  0.081176  0  0.101586  0.104102  0  1.031452  0
H  H54  1  0.52352061  0.27577919  0.71678507  1  0.09596  0  0.109574  0.171501  0  0.977216  0
H  H55  1  0.62402729  0.26731382  0.78083031  1  0.087633  0  0.11003  0.169846  0  0.97435  0
H  H56  1  0.59057205  0.17749928  0.73643728  1  0.072601  0  0.111458  0.174252  0  0.968796  0
H  H57  1  0.43240064  0.12110652  0.87033954  1  0.083588  0  0.09843  0.149399  0  1.027519  0
H  H58  1  0.54081672  0.09244684  0.82127539  1  0.09581  0  0.11199  0.174239  0  0.964784  0
H  H59  1  0.57013777  0.17841626  0.86979992  1  0.07381  0  0.112175  0.171704  0  0.966246  0
H  H60  1  0.78683250  0.01899444  0.08814530  1  0.086978  0  0.103375  0.11001  0  1.009807  0
H  H61  1  0.77574404  0.88660910  0.03895524  1  0.068993  0  0.101778  0.107724  0  1.015011  0
H  H62  1  0.51254614  0.24813419  0.10029807  1  0.075491  0  0.105334  0.112202  0  1.005394  0
H  H63  1  0.67871904  0.75806425  0.07345185  1  0.059802  0  0.099358  0.098725  0  1.03153  0
H  H64  1  0.90108680  0.57646598  0.99976972  1  0.145104  0  0.113915  0.128848  0  0.99064  0
H  H65  1  0.70005850  0.75028844  0.89086753  1  0.071791  0  0.103494  0.109159  0  1.012414  0
H  H66  1  0.71810509  0.28033377  0.11773383  1  0.119766  0  0.110562  0.120458  0  0.996279  0
H  H67  1  0.93634887  0.19409500  0.26622868  1  0.107441  0  0.10579  0.110421  0  1.036743  0
H  H68  1  0.20165650  0.12661158  0.85747689  1  0.606888  0  0.308162  0.382983  0  0.922459  0
H  H69  1  0.10649440  0.32213823  0.72218609  1  0.626809  0  0.318093  0.402614  0  0.885424  0
H  H70  1  0.16865660  0.22334260  0.85257247  1  0.656656  0  0.285982  0.379696  0  0.968192  0
H  H71  1  0.16421912  0.31967826  0.78633960  1  0.662372  0  0.291092  0.391549  0  0.94587  0
H  H72  1  0.80054333  0.62775456  0.64331621  1  0.597188  0  0.308601  0.384485  0  0.921123  0
H  H73  1  0.83362176  0.81993707  0.71668222  1  0.659457  0  0.296764  0.396827  0  0.934636  0
H  H74  1  0.82756029  0.72526735  0.64974360  1  0.669624  0  0.285889  0.38145  0  0.966971  0
H  H75  1  0.78681504  0.81322993  0.77884622  1  0.60716  0  0.327071  0.404615  0  0.868534  0
H  H76  1  0.05909468  0.34312827  0.33014365  1  0.640159  0  0.318003  0.410758  0  0.873941  0
H  H77  1  0.15840755  0.27577992  0.34791955  1  0.670986  0  0.286343  0.380322  0  0.96735  0
H  H78  1  0.11157234  0.17571144  0.21925523  1  0.619959  0  0.31919  0.406819  0  0.877876  0
H  H79  1  0.16526070  0.17750445  0.28402872  1  0.655466  0  0.289927  0.390373  0  0.947852  0
H  H80  1  0.94068915  0.84630265  0.16957218  1  0.5923  0  0.319981  0.411443  0  0.869624  0
H  H81  1  0.84535256  0.77589934  0.15341119  1  0.653094  0  0.286237  0.379356  0  0.968957  0
H  H82  1  0.84334939  0.67724784  0.21748034  1  0.663938  0  0.289729  0.390206  0  0.949058  0
H  H83  1  0.90079639  0.67473100  0.28149283  1  0.607993  0  0.317433  0.40553  0  0.881941  0
C  C84  1  0.29653100  0.50381183  0.43952846  1  -0.056272  0  -0.09447  -0.134182  0  4.030446  0
C  C85  1  0.30077624  0.42992867  0.46750593  1  -0.037216  0  -0.093691  -0.130781  0  4.026295  0
C  C86  1  0.40533701  0.40519429  0.50353832  1  -0.039408  0  -0.01003  0.024669  0  4.009378  0
C  C87  1  0.49801625  0.53994610  0.48446068  1  -0.009495  0  -0.001273  0.002273  0  3.923829  0
C  C88  1  0.39708898  0.55933438  0.44414911  1  -0.023574  0  -0.008554  0.023794  0  3.992225  0
C  C89  1  0.39913193  0.63335322  0.41167659  1  0.030329  0  -0.006375  0.027131  0  3.986268  0
C  C90  1  0.49302947  0.68953281  0.42458957  1  -0.064334  0  -0.089225  -0.182068  0  3.986128  0
C  C91  1  0.41252791  0.32787031  0.53166329  1  -0.016388  0  -0.004324  0.034348  0  3.994294  0
C  C92  1  0.31872955  0.26378709  0.52134314  1  0.014506  0  -0.01051  0.065641  0  4.027204  0
C  C93  1  0.28426828  0.23292668  0.46643183  1  -0.065376  0  -0.080205  -0.138676  0  3.939665  0
C  C94  1  0.20431398  0.16644845  0.45903588  1  0.02701  0  -0.020525  -0.043142  0  4.003236  0
C  C95  1  0.15583087  0.13149131  0.50645398  1  -0.003072  0  -0.069476  -0.095288  0  3.90814  0
C  C96  1  0.18487232  0.16460811  0.56087365  1  -0.031674  0  -0.017295  -0.029023  0  3.986991  0
C  C97  1  0.26681220  0.22980762  0.56811616  1  -0.09255  0  -0.076736  -0.12999  0  3.918075  0
C  C98  1  0.30746568  0.65148420  0.36355553  1  -0.017972  0  -0.007633  0.064653  0  4.013458  0
C  C99  1  0.26086389  0.73131542  0.35355783  1  -0.041967  0  -0.073483  -0.127127  0  3.892959  0
C  C100  1  0.17712693  0.74774715  0.30648533  1  0.017993  0  -0.021982  -0.036957  0  3.99094  0
C  C101  1  0.13585085  0.68372998  0.27009752  1  -0.137319  0  -0.082985  -0.118251  0  3.95657  0
C  C102  1  0.17879744  0.60370265  0.28038321  1  0.002491  0  -0.02187  -0.035403  0  4.002709  0
C  C103  1  0.26684561  0.58860182  0.32544386  1  -0.060448  0  -0.076368  -0.130795  0  3.92685  0
C  C104  1  0.12525203  0.53294876  0.24579367  1  1.606668  0  0.220786  0.60954  0  4.180069  0
C  C105  1  0.12432378  0.36882157  0.11264454  1  1.564762  0  0.225864  0.613812  0  4.166445  0
C  C106  1  0.88156114  0.33050322  0.20381609  1  1.550487  0  0.209949  0.596015  0  4.202468  0
C  C107  1  0.17198396  0.13054308  0.40073875  1  1.609703  0  0.223519  0.609735  0  4.18195  0
C  C108  1  0.56607558  0.27189333  0.26420851  1  -0.224607  0  -0.223451  -0.499536  0  3.837921  0
C  C109  1  0.48516766  0.38221638  0.33929733  1  -0.266078  0  -0.226511  -0.500602  0  3.815955  0
C  C110  1  0.82457892  0.10234364  0.22084404  1  -0.044287  0  -0.021649  -0.034664  0  4.00133  0
C  C111  1  0.73596001  0.08764908  0.17597656  1  -0.053752  0  -0.076097  -0.130555  0  3.925342  0
C  C112  1  0.87687082  0.03180711  0.25626052  1  1.588045  0  0.220283  0.608923  0  4.179334  0
C  C113  1  0.88238249  0.86701747  0.39036638  1  1.577188  0  0.224961  0.611956  0  4.167796  0
C  C114  1  0.12350162  0.83207290  0.29689356  1  1.573082  0  0.210799  0.597125  0  4.200293  0
C  C115  1  0.83076738  0.62975390  0.10078488  1  1.584151  0  0.222771  0.608069  0  4.180861  0
C  C116  1  0.44378110  0.76321770  0.23534220  1  -0.235004  0  -0.223257  -0.498845  0  3.837699  0
C  C117  1  0.52665830  0.87325274  0.16056614  1  -0.205021  0  -0.227377  -0.501448  0  3.813914  0
C  C118  1  0.70468429  0.49833629  0.55853941  1  -0.052165  0  -0.098184  -0.145145  0  4.049872  0
C  C119  1  0.70007405  0.57251707  0.53078488  1  -0.092344  0  -0.099948  -0.149734  0  4.049864  0
C  C120  1  0.59507364  0.59744610  0.49495597  1  0.052829  0  -0.010708  0.028049  0  4.009418  0
C  C121  1  0.50257398  0.46261177  0.51400334  1  -0.036972  0  -0.001017  0.001606  0  3.923504  0
C  C122  1  0.60398438  0.44280258  0.55390177  1  -0.017512  0  -0.010409  0.026616  0  3.990874  0
C  C123  1  0.60312105  0.36794133  0.58541230  1  0.034144  0  -0.007338  0.026845  0  3.993145  0
C  C124  1  0.50918780  0.31185665  0.57251940  1  -0.059164  0  -0.089954  -0.18496  0  3.993574  0
C  C125  1  0.58825326  0.67445205  0.46643366  1  -0.019227  0  -0.006144  0.031467  0  3.992774  0
C  C126  1  0.68191575  0.73850415  0.47764618  1  -0.054664  0  -0.01033  0.066285  0  4.027835  0
C  C127  1  0.71291560  0.76973367  0.53280143  1  -0.011118  0  -0.082501  -0.141921  0  3.944941  0
C  C128  1  0.79523585  0.83470533  0.54163168  1  0.026422  0  -0.018144  -0.036492  0  3.987988  0
C  C129  1  0.84876143  0.86832194  0.49516115  1  -0.026651  0  -0.068305  -0.093946  0  3.901126  0
C  C130  1  0.82223696  0.83531823  0.44051345  1  -0.00594  0  -0.016621  -0.030132  0  3.988517  0
C  C131  1  0.73859893  0.77123731  0.43188925  1  -0.051522  0  -0.07644  -0.129368  0  3.914785  0
C  C132  1  0.69540277  0.34921196  0.63301633  1  0.043062  0  -0.008932  0.0627  0  4.021671  0
C  C133  1  0.74370211  0.26971146  0.64226111  1  -0.060603  0  -0.073602  -0.125662  0  3.894857  0
C  C134  1  0.82714926  0.25329010  0.68938243  1  -0.002508  0  -0.019911  -0.034896  0  3.987102  0
C  C135  1  0.86658897  0.31699687  0.72658085  1  -0.145657  0  -0.080123  -0.118067  0  3.944421  0
C  C136  1  0.82190344  0.39676677  0.71696185  1  0.001264  0  -0.022537  -0.038424  0  4.005507  0
C  C137  1  0.73395261  0.41155391  0.67182819  1  -0.0449  0  -0.080014  -0.133061  0  3.944746  0
C  C138  1  0.87217068  0.46799044  0.75214809  1  1.595339  0  0.223623  0.614475  0  4.168223  0
C  C139  1  0.86037055  0.62865128  0.88817098  1  1.590867  0  0.224748  0.614245  0  4.167585  0
C  C140  1  0.11670411  0.66898530  0.80577366  1  1.575745  0  0.213454  0.593406  0  4.191858  0
C  C141  1  0.82530662  0.87017856  0.60037939  1  1.598785  0  0.224651  0.611871  0  4.176282  0
C  C142  1  0.42431401  0.73278722  0.73403437  1  -0.222385  0  -0.225163  -0.493907  0  3.83555  0
C  C143  1  0.50423364  0.62240799  0.65970954  1  -0.205291  0  -0.22798  -0.489641  0  3.819485  0
C  C144  1  0.29719265  0.00161175  0.94198710  1  -0.117165  0  -0.09704  -0.141107  0  4.043345  0
C  C145  1  0.30311441  0.07569218  0.96980677  1  -0.025045  0  -0.100583  -0.152002  0  4.054107  0
C  C146  1  0.40816572  0.09936039  0.00598821  1  -0.054202  0  -0.011018  0.025808  0  4.01306  0
C  C147  1  0.49766676  0.96324276  0.98736932  1  0.006457  0  -0.000699  0.003305  0  3.921701  0
C  C148  1  0.39624810  0.94457965  0.94718189  1  -0.046241  0  -0.010471  0.025301  0  3.989187  0
C  C149  1  0.39526050  0.86924388  0.91615998  1  -0.06314  0  -0.007515  0.028356  0  3.991853  0
C  C150  1  0.48743864  0.81194050  0.92988388  1  0.031951  0  -0.090396  -0.184522  0  3.996127  0
C  C151  1  0.41612586  0.17624615  0.03460836  1  -0.011527  0  -0.006614  0.030632  0  3.994545  0
C  C152  1  0.32271685  0.24075116  0.02392421  1  -0.039857  0  -0.009695  0.067269  0  4.027455  0
C  C153  1  0.28859705  0.27143412  0.96886083  1  -0.006138  0  -0.081507  -0.140814  0  3.944951  0
C  C154  1  0.20500791  0.33591571  0.96061528  1  -0.103814  0  -0.018079  -0.036825  0  3.992295  0
C  C155  1  0.15380257  0.36995158  0.00757995  1  0.122103  0  -0.069086  -0.096294  0  3.904143  0
C  C156  1  0.18342094  0.33749327  0.06216098  1  -0.018749  0  -0.017099  -0.030277  0  3.992345  0
C  C157  1  0.26795972  0.27371889  0.07020446  1  -0.063282  0  -0.076691  -0.129563  0  3.915683  0
C  C158  1  0.30276030  0.85030221  0.86867417  1  -0.051587  0  -0.011967  0.057873  0  4.028646  0
C  C159  1  0.25433411  0.77071648  0.86059968  1  -0.01029  0  -0.075087  -0.129115  0  3.901615  0
C  C160  1  0.17058695  0.75319427  0.81384138  1  0.009009  0  -0.019221  -0.035522  0  3.98242  0
C  C161  1  0.13084689  0.81591389  0.77580929  1  -0.021565  0  -0.070997  -0.087795  0  3.907862  0
C  C162  1  0.17605703  0.89559457  0.78409623  1  0.012394  0  -0.021013  -0.038709  0  3.995926  0
C  C163  1  0.26413374  0.91168423  0.82899070  1  -0.089774  0  -0.080402  -0.135657  0  3.947364  0
C  C164  1  0.12590090  0.96558300  0.74756860  1  1.579929  0  0.223881  0.612781  0  4.176829  0
C  C165  1  0.12907854  0.13177150  0.61208301  1  1.590067  0  0.223102  0.610282  0  4.174109  0
C  C166  1  0.88157201  0.16910391  0.69882144  1  1.55841  0  0.210504  0.590561  0  4.202287  0
C  C167  1  0.16976927  0.36987573  0.90188801  1  1.58594  0  0.225173  0.610627  0  4.181952  0
C  C168  1  0.55513049  0.23534588  0.75250190  1  -0.204102  0  -0.224999  -0.495158  0  3.833582  0
C  C169  1  0.50080237  0.14389555  0.84334898  1  -0.229032  0  -0.22761  -0.495493  0  3.82373  0
C  C170  1  0.70439295  0.00236116  0.06203269  1  -0.056822  0  -0.09498  -0.135648  0  4.031043  0
C  C171  1  0.69856352  0.92836538  0.03426931  1  -0.05904  0  -0.09454  -0.132089  0  4.029304  0
C  C172  1  0.59340414  0.90457954  0.99840516  1  -0.003678  0  -0.010871  0.023303  0  4.012953  0
C  C173  1  0.50390567  0.04071122  0.01670552  1  -0.020668  0  -0.000662  0.003272  0  3.921136  0
C  C174  1  0.60499646  0.05902179  0.05717542  1  -0.011137  0  -0.007667  0.028122  0  3.987284  0
C  C175  1  0.60439051  0.13320125  0.08946952  1  -0.010052  0  -0.008108  0.023804  0  3.988194  0
C  C176  1  0.51160371  0.19039003  0.07644694  1  -0.000814  0  -0.089088  -0.180366  0  3.989549  0
C  C177  1  0.58422757  0.82695785  0.97082717  1  -0.036605  0  -0.006529  0.030214  0  3.999841  0
C  C178  1  0.67683584  0.76188347  0.98102730  1  0.004162  0  -0.009294  0.068264  0  4.025921  0
C  C179  1  0.71470404  0.73167152  0.03579860  1  -0.106762  0  -0.080738  -0.14047  0  3.938948  0
C  C180  1  0.79461497  0.66485575  0.04252481  1  0.006597  0  -0.019992  -0.041192  0  3.998062  0
C  C181  1  0.83980723  0.62891453  0.99456291  1  -0.007202  0  -0.069158  -0.094888  0  3.903181  0
C  C182  1  0.80727207  0.66129965  0.94016860  1  -0.046829  0  -0.016724  -0.029145  0  3.985781  0
C  C183  1  0.72527345  0.72665714  0.93374741  1  0.004794  0  -0.077541  -0.127647  0  3.925572  0
C  C184  1  0.69650291  0.15058681  0.13751694  1  -0.075875  0  -0.007026  0.064706  0  4.013601  0
C  C185  1  0.74433329  0.23005151  0.14710485  1  -0.034887  0  -0.074247  -0.126641  0  3.895038  0
C  C186  1  0.82843794  0.24618416  0.19402982  1  -0.026449  0  -0.022354  -0.037107  0  3.993887  0
C  C187  1  0.86919622  0.18201047  0.23052988  1  0.005108  0  -0.083536  -0.119747  0  3.958622  0
S  S188  1  0.42823519  0.29744059  0.29494147  1  1.199035  0  0.297818  0.676539  0  3.964904  0
S  S189  1  0.58333282  0.79047949  0.20692601  1  1.207634  0  0.297668  0.679132  0  3.972244  0
S  S190  1  0.56294925  0.70792376  0.70329521  1  1.214613  0  0.276632  0.629958  0  4.051213  0
S  S191  1  0.42574207  0.21284322  0.79075227  1  1.22485  0  0.289254  0.661203  0  4.007642  0
O  O192  1  0.34958996  0.33647640  0.24555998  1  -1.215898  0  -0.346578  -0.549227  0  2.237979  0
O  O193  1  0.14643557  0.33400927  0.33302092  1  -1.276514  0  -0.570867  -0.751239  0  2.053786  0
O  O194  1  0.17215146  0.20237438  0.24552048  1  -1.24313  0  -0.574393  -0.772208  0  2.081832  0
O  O195  1  0.13164190  0.32259846  0.15666088  1  -1.196186  0  -0.323322  -0.580746  0  2.371111  0
O  O196  1  0.06992193  0.43794865  0.10693830  1  -1.167625  0  -0.314648  -0.54775  0  2.317941  0
O  O197  1  0.96048466  0.34219251  0.24565878  1  -1.201919  0  -0.337421  -0.629548  0  2.311955  0
O  O198  1  0.84328989  0.38593633  0.16752219  1  -1.154963  0  -0.320612  -0.548846  0  2.3084  0
O  O199  1  0.18128583  0.46525471  0.24863096  1  -1.185551  0  -0.31087  -0.560912  0  2.361122  0
O  O200  1  0.02363906  0.54899254  0.21730995  1  -1.173874  0  -0.324064  -0.570435  0  2.379675  0
O  O201  1  0.14452002  0.05430307  0.40037656  1  -1.180399  0  -0.318269  -0.54256  0  2.343154  0
O  O202  1  0.17458450  0.17643624  0.35695724  1  -1.213148  0  -0.315471  -0.582479  0  2.272583  0
O  O203  1  0.65664334  0.83198415  0.25694274  1  -1.22324  0  -0.346932  -0.548722  0  2.22784  0
O  O204  1  0.93672997  0.93602290  0.39661778  1  -1.167755  0  -0.313629  -0.546198  0  2.317043  0
O  O205  1  0.16215688  0.88739287  0.33304769  1  -1.161731  0  -0.320331  -0.548054  0  2.307239  0
O  O206  1  0.82078891  0.96420408  0.25364664  1  -1.187037  0  -0.310751  -0.560339  0  2.352882  0
O  O207  1  0.97760715  0.04807174  0.28531360  1  -1.177883  0  -0.324397  -0.56996  0  2.381504  0
O  O208  1  0.85780851  0.55335434  0.10138259  1  -1.178997  0  -0.317742  -0.541516  0  2.339426  0
O  O209  1  0.83151899  0.67633293  0.14433957  1  -1.200571  0  -0.31574  -0.584211  0  2.278302  0
O  O210  1  0.64476300  0.67144671  0.75226045  1  -1.239427  0  -0.353085  -0.571267  0  2.229704  0
O  O211  1  0.84726081  0.66862740  0.66599654  1  -1.245495  0  -0.570576  -0.750577  0  2.101134  0
O  O212  1  0.84776468  0.79328581  0.75512459  1  -1.223696  0  -0.5587  -0.745493  0  2.116393  0
O  O213  1  0.84448643  0.67262727  0.84330942  1  -1.187423  0  -0.316892  -0.574901  0  2.360021  0
O  O214  1  0.91810264  0.56071136  0.89401380  1  -1.172629  0  -0.318867  -0.555587  0  2.321827  0
O  O215  1  0.03918338  0.65558317  0.76373214  1  -1.200533  0  -0.330497  -0.595283  0  2.334052  0
O  O216  1  0.15312390  0.61422423  0.84306141  1  -1.159998  0  -0.321956  -0.55082  0  2.291073  0
O  O217  1  0.81755208  0.53624932  0.74556021  1  -1.179546  0  -0.312175  -0.565913  0  2.35804  0
O  O218  1  0.96868769  0.45214892  0.78445615  1  -1.175866  0  -0.319899  -0.564835  0  2.374437  0
O  O219  1  0.86119165  0.94461639  0.60125071  1  -1.182521  0  -0.316707  -0.541274  0  2.345929  0
O  O220  1  0.81193618  0.82515298  0.64373609  1  -1.202556  0  -0.316355  -0.586113  0  2.267064  0
O  O221  1  0.34703299  0.15818518  0.75020022  1  -1.233137  0  -0.34828  -0.556789  0  2.243297  0
O  O222  1  0.15165218  0.16697967  0.83576569  1  -1.244006  0  -0.571374  -0.747607  0  2.102459  0
O  O223  1  0.16799961  0.29468228  0.74760774  1  -1.258801  0  -0.572147  -0.767965  0  2.093991  0
O  O224  1  0.14241730  0.17524202  0.65718687  1  -1.193634  0  -0.31905  -0.579067  0  2.359211  0
O  O225  1  0.07184499  0.06386849  0.60529998  1  -1.168889  0  -0.317714  -0.551733  0  2.322001  0
O  O226  1  0.96120055  0.15825381  0.74023681  1  -1.179294  0  -0.328426  -0.593024  0  2.340069  0
O  O227  1  0.84326930  0.11302678  0.66302342  1  -1.1512  0  -0.32224  -0.551955  0  2.297655  0
O  O228  1  0.17610819  0.03494037  0.75534331  1  -1.181711  0  -0.313782  -0.568332  0  2.37973  0
O  O229  1  0.03415050  0.94789658  0.71266872  1  -1.161968  0  -0.318455  -0.557525  0  2.38127  0
O  O230  1  0.13147805  0.44390705  0.90079939  1  -1.178419  0  -0.31729  -0.542738  0  2.350917  0
O  O231  1  0.18057544  0.32408484  0.85877450  1  -1.201062  0  -0.314343  -0.578021  0  2.270944  0
O  O232  1  0.85439772  0.83420954  0.16836323  1  -1.210726  0  -0.570291  -0.751868  0  2.057605  0
O  O233  1  0.83800152  0.70136254  0.25631522  1  -1.246458  0  -0.575247  -0.773994  0  2.088529  0
O  O234  1  0.87570161  0.82152045  0.34605087  1  -1.18422  0  -0.323283  -0.580667  0  2.36707  0
O  O235  1  0.04328138  0.84366726  0.25551995  1  -1.21604  0  -0.337932  -0.628653  0  2.31437  0
