# generated using pymatgen
data_CuH9C16N3ClO4
_symmetry_space_group_name_H-M   'P 1'
_cell_length_a   9.24198016
_cell_length_b   10.20471094
_cell_length_c   12.36861002
_cell_angle_alpha   106.18396734
_cell_angle_beta   94.04208804
_cell_angle_gamma   117.49632719
_symmetry_Int_Tables_number   1
_chemical_formula_structural   CuH9C16N3ClO4
_chemical_formula_sum   'Cu2 H18 C32 N6 Cl2 O8'
_cell_volume   966.19030686
_cell_formula_units_Z   2
loop_
 _symmetry_equiv_pos_site_id
 _symmetry_equiv_pos_as_xyz
  1  'x, y, z'
loop_
 _atom_site_type_symbol
 _atom_site_label
 _atom_site_symmetry_multiplicity
 _atom_site_fract_x
 _atom_site_fract_y
 _atom_site_fract_z
 _atom_site_occupancy
 _atom_site_hle17_ddec_charge
 _atom_site_hle17_ddec_spin_density
 _atom_site_hle17_ddec_sum_bond_order
 _atom_site_hle17_magmom
 _atom_site_hse06_10hf_ddec_charge
 _atom_site_hse06_10hf_ddec_spin_density
 _atom_site_hse06_10hf_ddec_sum_bond_order
 _atom_site_hse06_10hf_magmom
 _atom_site_hse06_ddec_charge
 _atom_site_hse06_ddec_spin_density
 _atom_site_hse06_ddec_sum_bond_order
 _atom_site_hse06_magmom
 _atom_site_pbe_cm5_charge
 _atom_site_pbe_ddec_charge
 _atom_site_pbe_ddec_spin_density
 _atom_site_pbe_ddec_sum_bond_order
 _atom_site_pbe_magmom
Cu  Cu0  1  0.35720499  0.02601863  0.42833486  1  0.772089  0.654121  1.905282  0.477  0.753585  0.75348  2.311055  0.597  0.848984  0.821207  2.231466  0.684  0.645411  0.700186  0.709069  2.361591  0.545
Cu  Cu1  1  0.64279599  0.97398275  0.57166552  1  0.772073  0.654123  1.905277  0.477  0.753569  0.753483  2.311035  0.597  0.848952  0.821208  2.231471  0.684  0.645402  0.700163  0.709074  2.361573  0.545
H  H2  1  0.41130775  0.26880575  0.30530137  1  0.093553  0.000773  0.925438  0.002  0.105154  0.000875  0.97952  0.002  0.107728  0.000609  0.977392  0.001  0.126174  0.103128  0.001105  0.981194  0.002
H  H3  1  0.58868796  0.73118970  0.69469979  1  0.093586  0.000773  0.925392  0.002  0.105148  0.000876  0.979528  0.002  0.107721  0.000609  0.977402  0.001  0.126187  0.103122  0.001104  0.981202  0.002
H  H4  1  0.35334067  0.49567284  0.34015552  1  0.121906  0.001346  0.927493  0.001  0.134392  0.001373  0.978361  0.001  0.138352  0.001039  0.976774  0.0  0.112221  0.131501  0.001631  0.979678  0.001
H  H5  1  0.64665566  0.50432379  0.65984272  1  0.121933  0.001346  0.927463  0.001  0.134433  0.001373  0.978314  0.001  0.138393  0.001039  0.976728  0.0  0.112231  0.131543  0.001631  0.979632  0.001
H  H6  1  0.22756331  0.55652566  0.50143255  1  0.117926  0.000771  0.978962  0.0  0.121162  0.000503  1.049657  0.0  0.125358  0.000337  1.04545  0.0  0.106905  0.118076  0.000637  1.05278  0.0
H  H7  1  0.77243411  0.44347098  0.49856737  1  0.117955  0.000771  0.978873  0.0  0.121118  0.000503  1.049664  0.0  0.125312  0.000337  1.045456  0.0  0.106901  0.118032  0.000637  1.052782  0.0
H  H8  1  0.01652135  0.28722309  0.77982603  1  0.155822  0.000156  0.939464  0.0  0.162805  0.000123  0.999365  0.0  0.16767  7.4e-05  0.994684  0.0  0.128777  0.159143  0.000171  1.003047  0.0
H  H9  1  0.98347355  0.71277703  0.22017456  1  0.155835  0.000159  0.939502  0.0  0.162817  0.000123  0.999419  0.0  0.167681  7.4e-05  0.99474  0.0  0.128786  0.159154  0.000171  1.003104  0.0
H  H10  1  0.00450890  0.04666111  0.80697372  1  0.129535  0.000188  0.932571  0.0  0.142798  1.2e-05  0.983593  0.0  0.146465  -1.4e-05  0.980525  0.0  0.12099  0.140045  4.7e-05  0.985941  0.0
H  H11  1  0.99548059  0.95333073  0.19302549  1  0.129481  0.000191  0.932544  0.0  0.142745  1.2e-05  0.983573  0.0  0.146412  -1.4e-05  0.980505  0.0  0.120978  0.139992  4.7e-05  0.985924  0.0
H  H12  1  0.07634512  0.82905417  0.74215907  1  0.115484  0.000402  0.947761  0.0  0.122202  0.000418  1.009385  0.0  0.126117  0.000314  1.007702  0.0  0.113052  0.119338  0.000507  1.010851  0.001
H  H13  1  0.92365367  0.17094717  0.25783958  1  0.115465  0.000399  0.947779  0.0  0.122204  0.000418  1.009388  0.0  0.126118  0.000315  1.007709  0.0  0.113057  0.119342  0.000507  1.010857  0.001
H  H14  1  0.22480691  0.81991673  0.58129833  1  0.098  0.000647  0.95936  0.002  0.102716  0.000741  1.027853  0.002  0.106022  0.00052  1.023148  0.001  0.114759  0.100159  0.000953  1.031458  0.002
H  H15  1  0.77519920  0.18008824  0.41870476  1  0.097982  0.000647  0.959423  0.002  0.102746  0.000741  1.027866  0.002  0.106049  0.00052  1.023168  0.001  0.114773  0.100187  0.000953  1.031469  0.002
H  H16  1  0.67941880  0.17798138  0.19676577  1  0.090878  0.000649  0.982381  0.0  0.093853  0.000509  1.058114  0.0  0.096817  0.000337  1.056605  0.0  0.093822  0.091881  0.000653  1.059055  0.0
H  H17  1  0.32059196  0.82202834  0.80323704  1  0.090935  0.000648  0.982337  0.0  0.093935  0.000509  1.05802  0.0  0.096898  0.000337  1.056512  0.0  0.093848  0.09196  0.000653  1.058963  0.0
H  H18  1  0.20119110  0.80328403  0.97787053  1  0.108367  -2.8e-05  0.944246  0.0  0.115701  -1.1e-05  1.005829  0.0  0.119733  -1.1e-05  1.002635  0.0  0.102634  0.112854  -2e-06  1.00811  0.0
H  H19  1  0.79881671  0.19672213  0.02212888  1  0.108388  -2.8e-05  0.944231  0.0  0.115674  -1.1e-05  1.005865  0.0  0.119705  -1.1e-05  1.002674  0.0  0.102621  0.11283  -2e-06  1.008147  0.0
C  C20  1  0.35207482  0.29786898  0.37414087  1  0.151353  -0.00946  3.678221  -0.007  0.121988  -0.003443  3.935041  -0.003  0.133193  -0.004843  3.951429  -0.003  0.063649  0.114802  -0.002461  3.92449  -0.002
C  C21  1  0.64792042  0.70212763  0.62585892  1  0.151367  -0.009452  3.678222  -0.007  0.12202  -0.003443  3.935055  -0.003  0.133231  -0.004842  3.951444  -0.003  0.063633  0.11483  -0.002461  3.924505  -0.002
C  C22  1  0.32065318  0.42341835  0.39460554  1  -0.104029  0.007256  3.70169  0.008  -0.11807  0.004546  3.956043  0.005  -0.125299  0.003984  3.974484  0.005  -0.076507  -0.113375  0.005015  3.943733  0.006
C  C23  1  0.67933925  0.57657705  0.60539221  1  -0.104101  0.007252  3.70165  0.008  -0.118135  0.004544  3.955985  0.005  -0.125365  0.003986  3.974422  0.005  -0.076514  -0.11344  0.005015  3.943677  0.006
C  C24  1  0.24931608  0.45788888  0.48536017  1  -0.024318  -0.008405  3.658763  -0.005  -0.056583  -0.003767  3.919619  -0.002  -0.051444  -0.004455  3.932914  -0.003  -0.06192  -0.060164  -0.003357  3.910902  -0.002
C  C25  1  0.75067792  0.54210537  0.51463902  1  -0.024321  -0.008397  3.658633  -0.005  -0.05654  -0.003764  3.919572  -0.002  -0.051398  -0.00446  3.932869  -0.003  -0.061934  -0.060121  -0.003357  3.910854  -0.002
C  C26  1  0.20393441  0.36321730  0.55548058  1  -0.007724  0.003302  3.733243  0.004  0.005517  0.002031  3.965865  0.002  0.003083  0.001736  3.989818  0.002  0.007861  0.007201  0.00227  3.949716  0.003
C  C27  1  0.79606021  0.63677813  0.44451891  1  -0.007688  0.003294  3.733149  0.004  0.00552  0.002029  3.965841  0.002  0.003083  0.001738  3.989794  0.002  0.007871  0.007202  0.00227  3.949686  0.003
C  C28  1  0.12601373  0.37835666  0.65225760  1  0.029809  0.00037  3.642332  0.0  0.018243  0.000343  3.902227  0.0  0.013017  0.000222  3.926237  0.0  0.08055  0.021403  0.000479  3.886401  0.0
C  C29  1  0.87398246  0.62163762  0.34774171  1  0.029588  0.000407  3.642383  0.0  0.018073  0.000341  3.902274  0.0  0.012847  0.000228  3.926284  0.0  0.0805  0.021239  0.000479  3.886435  0.0
C  C30  1  0.08232383  0.27536009  0.71135384  1  -0.082677  0.000868  3.638034  0.001  -0.125823  0.00037  3.902158  0.001  -0.12264  0.000329  3.917381  0.001  -0.050305  -0.12834  0.00048  3.893101  0.001
C  C31  1  0.91766970  0.72463532  0.28864559  1  -0.082492  0.00082  3.638041  0.001  -0.125663  0.000372  3.9022  0.001  -0.122478  0.000323  3.917425  0.001  -0.050243  -0.128183  0.00048  3.893131  0.001
C  C32  1  0.11577752  0.14852079  0.68166035  1  0.034816  0.002868  3.77111  0.003  0.053957  0.001647  4.006653  0.002  0.048539  0.001325  4.029198  0.002  0.004497  0.057223  0.001919  3.991938  0.002
C  C33  1  0.88421430  0.85147343  0.31833872  1  0.034728  0.0029  3.770963  0.003  0.053829  0.001646  4.006578  0.002  0.04841  0.001326  4.029125  0.002  0.004404  0.057096  0.001919  3.991862  0.002
C  C34  1  0.07136010  0.03754549  0.73864862  1  -0.01298  -0.008398  3.616229  -0.005  -0.040134  -0.004053  3.857031  -0.002  -0.034573  -0.004476  3.87189  -0.003  -0.04756  -0.043898  -0.003694  3.84729  -0.002
C  C35  1  0.92863062  0.96244871  0.26134958  1  -0.012923  -0.008472  3.61599  -0.005  -0.040049  -0.004052  3.856798  -0.002  -0.034485  -0.00448  3.871655  -0.003  -0.047545  -0.043813  -0.003695  3.847062  -0.002
C  C36  1  0.10963904  0.91893296  0.70275095  1  -0.106638  0.006073  3.691069  0.007  -0.120217  0.003285  3.947826  0.004  -0.128718  0.002914  3.966456  0.004  -0.073363  -0.114752  0.003576  3.935318  0.004
C  C37  1  0.89036303  0.08106843  0.29724869  1  -0.10658  0.006115  3.691032  0.007  -0.120187  0.003283  3.947805  0.004  -0.128689  0.002915  3.966434  0.004  -0.073321  -0.114725  0.003575  3.935302  0.004
C  C38  1  0.19130685  0.91075090  0.61129343  1  0.185177  -0.009295  3.622972  -0.007  0.149553  -0.003426  3.88487  -0.003  0.164598  -0.00471  3.897683  -0.003  0.069627  0.139815  -0.002405  3.876769  -0.002
C  C39  1  0.80870096  0.08925526  0.38870599  1  0.185139  -0.00932  3.622851  -0.007  0.149462  -0.003425  3.884796  -0.003  0.164505  -0.004713  3.897607  -0.003  0.069567  0.139725  -0.002405  3.87669  -0.002
C  C40  1  0.19590444  0.13092433  0.59005692  1  0.144759  -0.001748  3.752664  -0.001  0.13356  0.000424  3.993653  0.001  0.141259  -0.000614  4.015937  0.0  0.120201  0.128757  0.001214  3.97895  0.001
C  C41  1  0.80409702  0.86907588  0.40994484  1  0.144623  -0.001769  3.752704  -0.001  0.133455  0.000424  3.993678  0.001  0.141155  -0.000614  4.01596  0.0  0.120176  0.128651  0.001214  3.978971  0.001
C  C42  1  0.23910695  0.23729315  0.52723119  1  0.129902  -0.00226  3.756311  -0.002  0.124397  0.000113  3.999121  0.0  0.128566  -0.000993  4.023415  -0.001  0.117484  0.121652  0.000865  3.983236  0.001
C  C43  1  0.76089109  0.76270467  0.47276902  1  0.130092  -0.002253  3.756234  -0.002  0.124556  0.000114  3.999088  0.0  0.128732  -0.000997  4.023383  -0.001  0.117541  0.12181  0.000864  3.983192  0.001
C  C44  1  0.35964654  0.97840927  0.20101885  1  0.617218  -0.007735  3.917384  -0.009  0.578189  -0.001897  4.217698  -0.003  0.615982  -0.002469  4.211923  -0.003  0.193214  0.552777  -0.001145  4.220822  -0.003
C  C45  1  0.64035676  0.02159448  0.79898058  1  0.617249  -0.007736  3.917361  -0.009  0.578229  -0.001896  4.217599  -0.003  0.616023  -0.002467  4.211819  -0.003  0.193232  0.552809  -0.001144  4.220718  -0.003
C  C46  1  0.43351425  0.99014254  0.09767707  1  -0.051446  0.009301  3.757605  0.01  -0.027148  0.005403  3.981478  0.006  -0.034157  0.003645  4.004163  0.004  -0.020112  -0.022362  0.006718  3.965726  0.008
C  C47  1  0.56649369  0.00986597  0.90232289  1  -0.051249  0.009285  3.757487  0.01  -0.026829  0.005401  3.981173  0.006  -0.033838  0.003647  4.003857  0.004  -0.019983  -0.022041  0.006718  3.965414  0.008
C  C48  1  0.60186996  0.10059072  0.11008677  1  -0.087453  0.000133  3.757779  0.0  -0.110437  0.000469  4.010535  0.0  -0.111791  0.000215  4.032974  0.0  -0.096284  -0.10923  0.000723  3.994858  0.001
C  C49  1  0.39813922  0.89942014  0.88991622  1  -0.087724  0.000154  3.757878  0.0  -0.110778  0.00047  4.010646  0.0  -0.112134  0.00021  4.033086  0.0  -0.096424  -0.10957  0.000723  3.994963  0.001
C  C50  1  0.33161619  0.88939162  0.98670408  1  -0.074345  0.000187  3.739657  0.001  -0.098058  0.000404  3.986851  0.001  -0.100584  0.000173  4.00929  0.0  -0.088301  -0.096203  0.000598  3.971388  0.001
C  C51  1  0.66839333  0.11061574  0.01329893  1  -0.074437  0.000207  3.739623  0.001  -0.098153  0.000405  3.986787  0.001  -0.100677  0.000169  4.009223  0.0  -0.088289  -0.096299  0.000598  3.971326  0.001
N  N52  1  0.31288794  0.20814935  0.43950300  1  -0.315134  0.060527  3.331945  0.077  -0.271296  0.050853  3.626548  0.069  -0.300715  0.042404  3.648124  0.062  -0.333619  -0.254593  0.0559  3.61465  0.072
N  N53  1  0.68710777  0.79184610  0.56049575  1  -0.31523  0.060523  3.331994  0.077  -0.271366  0.050854  3.626587  0.069  -0.300797  0.042405  3.648175  0.062  -0.333621  -0.254661  0.055901  3.61468  0.072
N  N54  1  0.23215474  0.01315188  0.55588208  1  -0.331172  0.059564  3.338016  0.076  -0.282509  0.047133  3.630242  0.063  -0.315623  0.039631  3.651892  0.057  -0.340276  -0.263521  0.051292  3.618319  0.066
N  N55  1  0.76784952  0.98684955  0.44411767  1  -0.331127  0.059578  3.337792  0.076  -0.282443  0.047132  3.629999  0.063  -0.31555  0.039632  3.651645  0.057  -0.340277  -0.263453  0.051292  3.618068  0.066
N  N56  1  0.08570852  0.50485846  0.69321300  1  0.505994  0.00031  3.895775  0.0  0.531379  0.000337  4.196943  0.0  0.553197  0.000211  4.20478  0.0  0.058878  0.516765  0.000492  4.191611  0.001
N  N57  1  0.91429061  0.49513938  0.30678566  1  0.506035  0.000323  3.896076  0.0  0.531425  0.000335  4.197226  0.0  0.553243  0.000213  4.205064  0.0  0.058961  0.516807  0.000492  4.191895  0.001
Cl  Cl58  1  0.35258737  0.79310286  0.40409852  1  -0.512823  0.114511  0.965203  0.141  -0.521631  0.069174  1.248775  0.091  -0.556533  0.049842  1.222246  0.072  -0.30587  -0.499662  0.081722  1.267109  0.102
Cl  Cl59  1  0.64741812  0.20690093  0.59590346  1  -0.512817  0.114509  0.965186  0.141  -0.521625  0.069173  1.248752  0.091  -0.556525  0.049842  1.222226  0.072  -0.305878  -0.499663  0.08172  1.267095  0.102
O  O60  1  0.46745349  0.05634850  0.30112015  1  -0.57723  0.123914  2.06093  0.166  -0.559612  0.073424  2.349867  0.107  -0.610218  0.054178  2.34757  0.086  -0.332859  -0.527026  0.0852  2.351626  0.118
O  O61  1  0.53254905  0.94365172  0.69888005  1  -0.577191  0.123912  2.06095  0.166  -0.559591  0.073424  2.349876  0.107  -0.610199  0.054178  2.347584  0.086  -0.332828  -0.527003  0.085199  2.351632  0.118
O  O62  1  0.20441701  0.90061574  0.18867916  1  -0.610408  -0.001013  1.951765  0.002  -0.58031  -0.001476  2.183194  0.0  -0.607652  -0.002659  2.17359  -0.001  -0.320866  -0.561078  -0.000402  2.189159  0.002
O  O63  1  0.79558478  0.09938097  0.81131534  1  -0.610447  -0.001012  1.951792  0.002  -0.580365  -0.001476  2.183213  0.0  -0.607705  -0.002658  2.173605  -0.001  -0.320886  -0.561134  -0.000402  2.189179  0.002
O  O64  1  0.08869652  0.58127641  0.62962414  1  -0.371721  -1.6e-05  1.810016  0.0  -0.34379  -5.2e-05  2.028233  0.0  -0.358578  -4.8e-05  2.024825  0.0  -0.11903  -0.333807  -1.3e-05  2.030605  0.0
O  O65  1  0.91129406  0.41871545  0.37037190  1  -0.37167  -2.3e-05  1.809991  0.0  -0.343746  -5.2e-05  2.028227  0.0  -0.35854  -4.6e-05  2.024832  0.0  -0.11904  -0.333763  -1.3e-05  2.030599  0.0
O  O66  1  0.05161995  0.53006841  0.78910888  1  -0.332464  0.000124  1.725486  0.0  -0.315502  0.000133  1.919997  0.0  -0.326114  4.6e-05  1.915411  0.0  -0.11384  -0.308649  0.000241  1.923381  0.0
O  O67  1  0.94838834  0.46993659  0.21089352  1  -0.332483  0.000125  1.725756  0.0  -0.31552  0.000133  1.920264  0.0  -0.326131  4.5e-05  1.915677  0.0  -0.113881  -0.308668  0.000241  1.923651  0.0
