# generated using pymatgen
data_Ag2H5C6SBrO5
_symmetry_space_group_name_H-M   'P 1'
_cell_length_a   9.40491989
_cell_length_b   9.57484882
_cell_length_c   11.03336027
_cell_angle_alpha   89.99992794
_cell_angle_beta   90.00000921
_cell_angle_gamma   102.01912088
_symmetry_Int_Tables_number   1
_chemical_formula_structural   Ag2H5C6SBrO5
_chemical_formula_sum   'Ag8 H20 C24 S4 Br4 O20'
_cell_volume   971.78096491
_cell_formula_units_Z   4
loop_
 _symmetry_equiv_pos_site_id
 _symmetry_equiv_pos_as_xyz
  1  'x, y, z'
loop_
 _atom_site_type_symbol
 _atom_site_label
 _atom_site_symmetry_multiplicity
 _atom_site_fract_x
 _atom_site_fract_y
 _atom_site_fract_z
 _atom_site_occupancy
 _atom_site_pbe_bader_spin_density
 _atom_site_pbe_cm5_charge
 _atom_site_pbe_ddec_charge
 _atom_site_pbe_ddec_spin_density
 _atom_site_pbe_ddec_sum_bond_order
 _atom_site_pbe_magmom
Ag  Ag0  1  0.05059852  0.42922602  0.36742908  1  0  0.424934  0.503571  0  1.812726  0
Ag  Ag1  1  0.44940161  0.57077512  0.86742993  1  0  0.424917  0.503544  0  1.812699  0
Ag  Ag2  1  0.94939768  0.57077641  0.63257041  1  0  0.424927  0.503578  0  1.812705  0
Ag  Ag3  1  0.55060010  0.42922307  0.13257048  1  0  0.424932  0.503573  0  1.812696  0
Ag  Ag4  1  0.11242241  0.24710578  0.62340651  1  0  0.409381  0.493215  0  1.658119  0
Ag  Ag5  1  0.38757496  0.75289251  0.12340717  1  0  0.409375  0.493219  0  1.658158  0
Ag  Ag6  1  0.88757610  0.75289239  0.37659390  1  0  0.409385  0.493231  0  1.658139  0
Ag  Ag7  1  0.61242590  0.24710675  0.87659323  1  0  0.409374  0.493223  0  1.658138  0
H  H8  1  0.11999812  0.96267852  0.65748277  1  0  0.289823  0.398121  0  0.929039  0
H  H9  1  0.38000159  0.03732081  0.15748240  1  0  0.289831  0.398155  0  0.928987  0
H  H10  1  0.88000083  0.03732180  0.34251763  1  0  0.28983  0.398173  0  0.92897  0
H  H11  1  0.62000033  0.96267846  0.84251800  1  0  0.289828  0.398187  0  0.92895  0
H  H12  1  0.12547553  0.04374870  0.78671045  1  0  0.288753  0.388678  0  0.948067  0
H  H13  1  0.37452523  0.95625044  0.28670998  1  0  0.288776  0.388711  0  0.948014  0
H  H14  1  0.87452533  0.95625056  0.21329086  1  0  0.288759  0.388721  0  0.948004  0
H  H15  1  0.62547457  0.04374881  0.71329042  1  0  0.288773  0.388721  0  0.948  0
H  H16  1  0.62608359  0.63276850  0.33374571  1  0  0.094652  0.116347  0  1.048882  0
H  H17  1  0.87391952  0.36723605  0.83374405  1  0  0.094671  0.116367  0  1.048932  0
H  H18  1  0.37391727  0.36723076  0.66625016  1  0  0.094626  0.116346  0  1.048941  0
H  H19  1  0.12607903  0.63276746  0.16625092  1  0  0.094651  0.116352  0  1.048899  0
H  H20  1  0.36858959  0.50744331  0.30639598  1  0  0.098923  0.111943  0  1.03341  0
H  H21  1  0.13141272  0.49256328  0.80639505  1  0  0.098922  0.111938  0  1.033383  0
H  H22  1  0.63140896  0.49256020  0.69360080  1  0  0.098906  0.111898  0  1.033498  0
H  H23  1  0.86858708  0.50743598  0.19360354  1  0  0.098897  0.111911  0  1.033334  0
H  H24  1  0.46848520  0.12916275  0.46931392  1  0  0.111213  0.145161  0  1.025816  0
H  H25  1  0.03151363  0.87083717  0.96931982  1  0  0.111211  0.145126  0  1.025791  0
H  H26  1  0.53151078  0.87083861  0.53068648  1  0  0.111202  0.145139  0  1.025829  0
H  H27  1  0.96848723  0.12916209  0.03068240  1  0  0.111199  0.145132  0  1.025804  0
C  C28  1  0.64670846  0.31027997  0.45388880  1  0  -0.041862  -0.202807  0  3.928306  0
C  C29  1  0.85329034  0.68971903  0.95389222  1  0  -0.041851  -0.202848  0  3.928306  0
C  C30  1  0.35328624  0.68972031  0.54610889  1  0  -0.041879  -0.202805  0  3.928329  0
C  C31  1  0.14671158  0.31028023  0.04610728  1  0  -0.041855  -0.20278  0  3.928268  0
C  C32  1  0.69720894  0.45356127  0.41456797  1  0  0.069044  0.314144  0  4.117474  0
C  C33  1  0.80279328  0.54643889  0.91456882  1  0  0.069104  0.314195  0  4.117324  0
C  C34  1  0.30278744  0.54643690  0.58543062  1  0  0.069088  0.314064  0  4.117701  0
C  C35  1  0.19720886  0.45356144  0.08543068  1  0  0.069057  0.314126  0  4.117382  0
C  C36  1  0.59256017  0.52024884  0.35900825  1  0  -0.1237  -0.20873  0  3.974502  0
C  C37  1  0.90744249  0.47975353  0.85900737  1  0  -0.123718  -0.208754  0  3.974657  0
C  C38  1  0.40743772  0.47975147  0.64099216  1  0  -0.123709  -0.208708  0  3.974582  0
C  C39  1  0.09255987  0.52024787  0.14099122  1  0  -0.1237  -0.208726  0  3.974553  0
C  C40  1  0.44797411  0.44918087  0.34144699  1  0  -0.120593  -0.131239  0  4.070083  0
C  C41  1  0.05202753  0.55082246  0.84144780  1  0  -0.120628  -0.131275  0  4.070238  0
C  C42  1  0.55202272  0.55081943  0.65855251  1  0  -0.120584  -0.131204  0  4.070065  0
C  C43  1  0.94797462  0.44917788  0.15855260  1  0  -0.120566  -0.131173  0  4.07012  0
C  C44  1  0.40465412  0.30759165  0.38099621  1  0  -0.039807  0.069681  0  3.970245  0
C  C45  1  0.09534729  0.69241055  0.88099959  1  0  -0.039865  0.069622  0  3.970422  0
C  C46  1  0.59534314  0.69241078  0.61900329  1  0  -0.039833  0.069585  0  3.970415  0
C  C47  1  0.90465464  0.30758871  0.11900172  1  0  -0.039859  0.069575  0  3.970466  0
C  C48  1  0.50235550  0.23854788  0.43751938  1  0  -0.0995  -0.133649  0  3.997983  0
C  C49  1  0.99764459  0.76145223  0.93752365  1  0  -0.099454  -0.133548  0  3.997976  0
C  C50  1  0.49764111  0.76145135  0.56248012  1  0  -0.099463  -0.133545  0  3.997963  0
C  C51  1  0.00235733  0.23854704  0.06247676  1  0  -0.099484  -0.133616  0  3.997994  0
S  S52  1  0.76606428  0.21358967  0.52382494  1  0  0.505626  1.20085  0  6.119171  0
S  S53  1  0.73393586  0.78641105  0.02382736  1  0  0.505615  1.200996  0  6.118982  0
S  S54  1  0.23393254  0.78641063  0.47617456  1  0  0.50565  1.201047  0  6.11871  0
S  S55  1  0.26606651  0.21359035  0.97617395  1  0  0.505679  1.201103  0  6.11878  0
Br  Br56  1  0.20801920  0.20866481  0.35750930  1  0  0.108133  0.035378  0  1.969482  0
Br  Br57  1  0.29198287  0.79134063  0.85751532  1  0  0.108132  0.035401  0  1.969471  0
Br  Br58  1  0.79197700  0.79133762  0.64249020  1  0  0.108147  0.035394  0  1.96955  0
Br  Br59  1  0.70802118  0.20865865  0.14248780  1  0  0.108147  0.035401  0  1.969509  0
O  O60  1  0.83882376  0.30174847  0.62489202  1  0  -0.350793  -0.627838  0  2.37635  0
O  O61  1  0.66117380  0.69824995  0.12489362  1  0  -0.350772  -0.627872  0  2.376185  0
O  O62  1  0.16117391  0.69825077  0.37510657  1  0  -0.350819  -0.627936  0  2.376169  0
O  O63  1  0.33882685  0.30174824  0.87510588  1  0  -0.350813  -0.627924  0  2.376209  0
O  O64  1  0.08215780  0.03561917  0.70404932  1  0  -0.5886  -0.716223  0  2.173929  0
O  O65  1  0.41784190  0.96438008  0.20404885  1  0  -0.58862  -0.716285  0  2.173874  0
O  O66  1  0.91784221  0.96438115  0.29595199  1  0  -0.58861  -0.716319  0  2.173827  0
O  O67  1  0.58215789  0.03561917  0.79595155  1  0  -0.588633  -0.716345  0  2.173857  0
O  O68  1  0.87176702  0.19190721  0.42927806  1  0  -0.344989  -0.633454  0  2.346123  0
O  O69  1  0.62823498  0.80809185  0.92927770  1  0  -0.345008  -0.633489  0  2.346068  0
O  O70  1  0.12823020  0.80808989  0.57072325  1  0  -0.345001  -0.633511  0  2.346002  0
O  O71  1  0.37176761  0.19191061  0.07072361  1  0  -0.344993  -0.633499  0  2.346055  0
O  O72  1  0.67572900  0.07832473  0.56502823  1  0  -0.326668  -0.580415  0  2.280595  0
O  O73  1  0.82427092  0.92167486  0.06502961  1  0  -0.326653  -0.580456  0  2.28067  0
O  O74  1  0.32426676  0.92167557  0.43497308  1  0  -0.326648  -0.58043  0  2.280501  0
O  O75  1  0.17573336  0.07832548  0.93497352  1  0  -0.32667  -0.580488  0  2.280527  0
O  O76  1  0.83355630  0.52443684  0.42883830  1  0  -0.363959  -0.542726  0  2.547083  0
O  O77  1  0.66644463  0.47556222  0.92883830  1  0  -0.363983  -0.542744  0  2.546958  0
O  O78  1  0.16644115  0.47556133  0.57115938  1  0  -0.363978  -0.542719  0  2.547194  0
O  O79  1  0.33355645  0.52443811  0.07115938  1  0  -0.363972  -0.542762  0  2.547052  0
