# generated using pymatgen
data_UH3C7NO6
_symmetry_space_group_name_H-M   'P 1'
_cell_length_a   5.58222386
_cell_length_b   8.43340123
_cell_length_c   19.74599932
_cell_angle_alpha   90.00023578
_cell_angle_beta   89.99942292
_cell_angle_gamma   90.00005061
_symmetry_Int_Tables_number   1
_chemical_formula_structural   UH3C7NO6
_chemical_formula_sum   'U4 H12 C28 N4 O24'
_cell_volume   929.58504658
_cell_formula_units_Z   4
loop_
 _symmetry_equiv_pos_site_id
 _symmetry_equiv_pos_as_xyz
  1  'x, y, z'
loop_
 _atom_site_type_symbol
 _atom_site_label
 _atom_site_symmetry_multiplicity
 _atom_site_fract_x
 _atom_site_fract_y
 _atom_site_fract_z
 _atom_site_occupancy
 _atom_site_hle17_bader_spin_density
 _atom_site_hle17_ddec_charge
 _atom_site_hle17_ddec_spin_density
 _atom_site_hle17_ddec_sum_bond_order
 _atom_site_hle17_magmom
 _atom_site_hse06_10hf_bader_spin_density
 _atom_site_hse06_10hf_ddec_charge
 _atom_site_hse06_10hf_ddec_spin_density
 _atom_site_hse06_10hf_ddec_sum_bond_order
 _atom_site_hse06_10hf_magmom
 _atom_site_hse06_bader_spin_density
 _atom_site_hse06_ddec_charge
 _atom_site_hse06_ddec_spin_density
 _atom_site_hse06_ddec_sum_bond_order
 _atom_site_hse06_magmom
 _atom_site_pbe_bader_spin_density
 _atom_site_pbe_cm5_charge
 _atom_site_pbe_ddec_charge
 _atom_site_pbe_ddec_spin_density
 _atom_site_pbe_ddec_sum_bond_order
 _atom_site_pbe_magmom
U  U0  1  0.45320798  0.24426873  0.12613094  1  0  2.423485  0  4.203127  0  0  2.473368  0  4.870447  0  0  2.58041  0  4.834671  0  0  2.210175  2.39664  0  4.897711  0
U  U1  1  0.04679149  0.75572540  0.62613047  1  0  2.423593  0  4.20292  0  0  2.473409  0  4.8704  0  0  2.580551  0  4.834459  0  0  2.210222  2.396722  0  4.897557  0
U  U2  1  0.54679026  0.74426869  0.37387055  1  0  2.423613  0  4.203018  0  0  2.473393  0  4.870416  0  0  2.580499  0  4.83454  0  0  2.210167  2.396759  0  4.897526  0
U  U3  1  0.95321224  0.25573049  0.87387107  1  0  2.423638  0  4.202892  0  0  2.473375  0  4.870395  0  0  2.580464  0  4.834526  0  0  2.210212  2.396707  0  4.897534  0
H  H4  1  0.08271615  0.80721163  0.23064579  1  0  0.129519  0  0.920833  0  0  0.138524  0  0.978131  0  0  0.142162  0  0.975995  0  0  0.131799  0.135873  0  0.979889  0
H  H5  1  0.41729930  0.19279536  0.73064378  1  0  0.129522  0  0.920845  0  0  0.138528  0  0.978129  0  0  0.142147  0  0.976014  0  0  0.131795  0.135879  0  0.979885  0
H  H6  1  0.91729112  0.30720976  0.26935479  1  0  0.129466  0  0.920921  0  0  0.13849  0  0.978185  0  0  0.142102  0  0.97608  0  0  0.131785  0.13584  0  0.979939  0
H  H7  1  0.58271151  0.69279315  0.76935664  1  0  0.129473  0  0.920884  0  0  0.138472  0  0.978198  0  0  0.142114  0  0.976056  0  0  0.131775  0.135821  0  0.979955  0
H  H8  1  0.87918205  0.90523349  0.12442424  1  0  0.119388  0  0.947883  0  0  0.126765  0  1.007399  0  0  0.130576  0  1.004466  0  0  0.122637  0.123961  0  1.00967  0
H  H9  1  0.62083829  0.09476922  0.62442239  1  0  0.11932  0  0.947892  0  0  0.126773  0  1.007315  0  0  0.130582  0  1.004386  0  0  0.122664  0.12397  0  1.009585  0
H  H10  1  0.12083073  0.40523218  0.37557500  1  0  0.119354  0  0.947885  0  0  0.126789  0  1.007315  0  0  0.130599  0  1.004384  0  0  0.122659  0.123985  0  1.009584  0
H  H11  1  0.37917240  0.59476910  0.87557684  1  0  0.11935  0  0.94789  0  0  0.12674  0  1.007378  0  0  0.130551  0  1.004445  0  0  0.122636  0.123933  0  1.009649  0
H  H12  1  0.90476502  0.73632486  0.01883406  1  0  0.112134  0  0.946094  0  0  0.120849  0  1.007497  0  0  0.123698  0  1.007116  0  0  0.11538  0.118764  0  1.007909  0
H  H13  1  0.59524116  0.26366972  0.51883106  1  0  0.11214  0  0.946176  0  0  0.120921  0  1.007513  0  0  0.123776  0  1.007125  0  0  0.115402  0.118833  0  1.007923  0
H  H14  1  0.09524037  0.23632929  0.48116589  1  0  0.112145  0  0.946096  0  0  0.120866  0  1.007495  0  0  0.123717  0  1.007109  0  0  0.115393  0.118779  0  1.007905  0
H  H15  1  0.40475900  0.76367300  0.98116796  1  0  0.112147  0  0.946121  0  0  0.12087  0  1.007517  0  0  0.123722  0  1.00713  0  0  0.115383  0.118783  0  1.007928  0
C  C16  1  0.33232955  0.52138046  0.24134204  1  0  0.680769  0  3.836957  0  0  0.64675  0  4.126359  0  0  0.686633  0  4.112237  0  0  0.261825  0.619238  0  4.134918  0
C  C17  1  0.16766581  0.47861597  0.74134073  1  0  0.680636  0  3.836911  0  0  0.646665  0  4.126269  0  0  0.686537  0  4.112172  0  0  0.261824  0.61915  0  4.13483  0
C  C18  1  0.66766122  0.02138071  0.25865906  1  0  0.68057  0  3.837364  0  0  0.646649  0  4.126606  0  0  0.686544  0  4.11246  0  0  0.261841  0.619143  0  4.135174  0
C  C19  1  0.83233284  0.97862210  0.75865918  1  0  0.680636  0  3.837165  0  0  0.646625  0  4.126564  0  0  0.68652  0  4.112422  0  0  0.261864  0.619119  0  4.135127  0
C  C20  1  0.21187150  0.59670325  0.18162537  1  0  0.107522  0  3.727404  0  0  0.112003  0  3.972484  0  0  0.112447  0  3.990323  0  0  0.135504  0.1115  0  3.960485  0
C  C21  1  0.28813494  0.40329379  0.68162308  1  0  0.107436  0  3.727595  0  0  0.111869  0  3.972719  0  0  0.112319  0  3.990559  0  0  0.135464  0.111368  0  3.960726  0
C  C22  1  0.78813011  0.09670415  0.31837485  1  0  0.107513  0  3.72747  0  0  0.111944  0  3.972557  0  0  0.112386  0  3.990389  0  0  0.1355  0.11144  0  3.960575  0
C  C23  1  0.71186719  0.90329806  0.81837568  1  0  0.107502  0  3.727504  0  0  0.111995  0  3.972588  0  0  0.112438  0  3.990426  0  0  0.135491  0.111488  0  3.9606  0
C  C24  1  0.08892057  0.74064989  0.18351567  1  0  -0.047008  0  3.59687  0  0  -0.074025  0  3.843257  0  0  -0.074971  0  3.858938  0  0  -0.038052  -0.073466  0  3.832872  0
C  C25  1  0.41108940  0.25935428  0.68351430  1  0  -0.047051  0  3.596908  0  0  -0.074044  0  3.843289  0  0  -0.074973  0  3.858972  0  0  -0.038049  -0.073486  0  3.832907  0
C  C26  1  0.91107945  0.24064965  0.31648378  1  0  -0.046922  0  3.596953  0  0  -0.073923  0  3.843308  0  0  -0.074848  0  3.858999  0  0  -0.038036  -0.073362  0  3.832919  0
C  C27  1  0.58891792  0.75935253  0.81648472  1  0  -0.046862  0  3.596885  0  0  -0.073915  0  3.843293  0  0  -0.074866  0  3.85897  0  0  -0.038009  -0.073351  0  3.832892  0
C  C28  1  0.97703007  0.79370793  0.12445287  1  0  0.023062  0  3.619929  0  0  0.007442  0  3.86765  0  0  0.009788  0  3.882803  0  0  -0.038551  0.005983  0  3.857402  0
C  C29  1  0.52298130  0.20629596  0.62444998  1  0  0.023249  0  3.619711  0  0  0.007575  0  3.867447  0  0  0.009923  0  3.882595  0  0  -0.038528  0.006117  0  3.857199  0
C  C30  1  0.02297539  0.29370538  0.37554617  1  0  0.023069  0  3.619974  0  0  0.007416  0  3.86771  0  0  0.009763  0  3.882855  0  0  -0.038584  0.005959  0  3.857457  0
C  C31  1  0.47702774  0.70629471  0.87554793  1  0  0.023102  0  3.619946  0  0  0.007524  0  3.867645  0  0  0.009871  0  3.882796  0  0  -0.038529  0.006068  0  3.857389  0
C  C32  1  0.99171517  0.70153251  0.06590420  1  0  -0.073542  0  3.634304  0  0  -0.098004  0  3.876422  0  0  -0.10052  0  3.893872  0  0  -0.05153  -0.096336  0  3.864793  0
C  C33  1  0.50829650  0.29846371  0.56589999  1  0  -0.073562  0  3.634431  0  0  -0.098098  0  3.876559  0  0  -0.100619  0  3.894008  0  0  -0.051544  -0.096422  0  3.864924  0
C  C34  1  0.00829017  0.20153406  0.43409620  1  0  -0.073551  0  3.634456  0  0  -0.098049  0  3.876603  0  0  -0.100564  0  3.894051  0  0  -0.051535  -0.096373  0  3.864966  0
C  C35  1  0.49170729  0.79846659  0.93409808  1  0  -0.073606  0  3.634584  0  0  -0.098103  0  3.87669  0  0  -0.10062  0  3.894137  0  0  -0.051551  -0.096431  0  3.865054  0
C  C36  1  0.11938527  0.55936780  0.06823187  1  0  0.120594  0  3.734487  0  0  0.131444  0  3.970471  0  0  0.132957  0  3.986684  0  0  0.134757  0.130193  0  3.959722  0
C  C37  1  0.38061984  0.44062578  0.56822989  1  0  0.120401  0  3.734513  0  0  0.131279  0  3.970489  0  0  0.132798  0  3.986696  0  0  0.134675  0.130025  0  3.959741  0
C  C38  1  0.88061988  0.05937221  0.43176778  1  0  0.120537  0  3.734567  0  0  0.131419  0  3.970507  0  0  0.132933  0  3.986719  0  0  0.134723  0.130166  0  3.959759  0
C  C39  1  0.61937339  0.94063108  0.93176894  1  0  0.120533  0  3.734683  0  0  0.131421  0  3.970648  0  0  0.132934  0  3.986866  0  0  0.134746  0.130167  0  3.959905  0
C  C40  1  0.14573235  0.44442695  0.01066158  1  0  0.669482  0  3.840299  0  0  0.632982  0  4.137264  0  0  0.67224  0  4.123634  0  0  0.254608  0.606012  0  4.145399  0
C  C41  1  0.35426765  0.55556844  0.51065938  1  0  0.669608  0  3.84006  0  0  0.63307  0  4.137053  0  0  0.672331  0  4.123418  0  0  0.254602  0.606103  0  4.145193  0
C  C42  1  0.85427152  0.94442702  0.48933874  1  0  0.669536  0  3.840247  0  0  0.633037  0  4.137188  0  0  0.672297  0  4.123558  0  0  0.254632  0.606065  0  4.145322  0
C  C43  1  0.64572149  0.05557564  0.98933878  1  0  0.669685  0  3.840139  0  0  0.633105  0  4.137206  0  0  0.672364  0  4.123573  0  0  0.254687  0.606135  0  4.145343  0
N  N44  1  0.22720505  0.50913096  0.12504166  1  0  -0.389774  0  3.320067  0  0  -0.36543  0  3.585892  0  0  -0.383977  0  3.611949  0  0  -0.355337  -0.352207  0  3.567848  0
N  N45  1  0.27279087  0.49086791  0.62503906  1  0  -0.389628  0  3.320065  0  0  -0.36529  0  3.585897  0  0  -0.383852  0  3.611955  0  0  -0.355281  -0.352075  0  3.567856  0
N  N46  1  0.77279466  0.00912883  0.37495891  1  0  -0.389754  0  3.319979  0  0  -0.365417  0  3.585807  0  0  -0.383974  0  3.611869  0  0  -0.355337  -0.352206  0  3.567773  0
N  N47  1  0.72720243  0.99087273  0.87495935  1  0  -0.389778  0  3.320192  0  0  -0.365426  0  3.585994  0  0  -0.383982  0  3.612055  0  0  -0.355321  -0.352215  0  3.567959  0
O  O48  1  0.18509569  0.13966922  0.15061062  1  0  -0.683492  0  1.561278  0  0  -0.699735  0  1.852045  0  0  -0.722127  0  1.840663  0  0  -0.753728  -0.685799  0  1.860783  0
O  O49  1  0.31489754  0.86032989  0.65060906  1  0  -0.683528  0  1.561243  0  0  -0.699788  0  1.852046  0  0  -0.7222  0  1.840644  0  0  -0.753744  -0.685854  0  1.86077  0
O  O50  1  0.81489345  0.63966673  0.34939119  1  0  -0.683474  0  1.561271  0  0  -0.699704  0  1.852062  0  0  -0.722105  0  1.840665  0  0  -0.753732  -0.685787  0  1.860779  0
O  O51  1  0.68510275  0.36033577  0.84939216  1  0  -0.683533  0  1.561057  0  0  -0.699758  0  1.851856  0  0  -0.722159  0  1.840462  0  0  -0.753713  -0.685826  0  1.860584  0
O  O52  1  0.71402920  0.36106856  0.10566425  1  0  -0.680621  0  1.585064  0  0  -0.698217  0  1.876812  0  0  -0.720993  0  1.866697  0  0  -0.753091  -0.684031  0  1.884663  0
O  O53  1  0.78597030  0.63892922  0.60566390  1  0  -0.680598  0  1.584954  0  0  -0.698189  0  1.876723  0  0  -0.720985  0  1.866588  0  0  -0.753097  -0.684004  0  1.884563  0
O  O54  1  0.28596560  0.86106975  0.39433896  1  0  -0.680638  0  1.58493  0  0  -0.698249  0  1.876744  0  0  -0.721038  0  1.866617  0  0  -0.75305  -0.68408  0  1.884576  0
O  O55  1  0.21402611  0.13893052  0.89433744  1  0  -0.680641  0  1.585035  0  0  -0.698206  0  1.876813  0  0  -0.720988  0  1.866688  0  0  -0.753107  -0.68402  0  1.884649  0
O  O56  1  0.42699979  0.38645267  0.23167451  1  0  -0.628488  0  2.038873  0  0  -0.613524  0  2.295653  0  0  -0.647472  0  2.290336  0  0  -0.335618  -0.588785  0  2.2981  0
O  O57  1  0.07298876  0.61354247  0.73167169  1  0  -0.628482  0  2.038842  0  0  -0.6135  0  2.295579  0  0  -0.647459  0  2.290266  0  0  -0.335675  -0.588769  0  2.298022  0
O  O58  1  0.57299326  0.88645282  0.26832672  1  0  -0.62841  0  2.039039  0  0  -0.613445  0  2.295737  0  0  -0.647407  0  2.290413  0  0  -0.335615  -0.588718  0  2.29818  0
O  O59  1  0.92700583  0.11354890  0.76832606  1  0  -0.628415  0  2.038868  0  0  -0.613417  0  2.295635  0  0  -0.647377  0  2.290309  0  0  -0.335638  -0.588689  0  2.298082  0
O  O60  1  0.32747748  0.59238885  0.29798447  1  0  -0.638812  0  2.099168  0  0  -0.621825  0  2.372985  0  0  -0.655373  0  2.361993  0  0  -0.366743  -0.596891  0  2.379048  0
O  O61  1  0.17251766  0.40760812  0.79798252  1  0  -0.638701  0  2.099252  0  0  -0.621733  0  2.373064  0  0  -0.655274  0  2.362077  0  0  -0.366719  -0.596794  0  2.379125  0
O  O62  1  0.67251159  0.09238620  0.20201625  1  0  -0.638686  0  2.099329  0  0  -0.621778  0  2.373131  0  0  -0.65532  0  2.362136  0  0  -0.36674  -0.596817  0  2.379181  0
O  O63  1  0.82748806  0.90761370  0.70201676  1  0  -0.638741  0  2.099374  0  0  -0.621796  0  2.373234  0  0  -0.655354  0  2.362236  0  0  -0.366745  -0.596851  0  2.379291  0
O  O64  1  0.27174274  0.32260669  0.02404325  1  0  -0.621233  0  2.085495  0  0  -0.610775  0  2.353375  0  0  -0.646192  0  2.348765  0  0  -0.337722  -0.584704  0  2.355107  0
O  O65  1  0.22825678  0.67738765  0.52404364  1  0  -0.621282  0  2.085557  0  0  -0.610765  0  2.353402  0  0  -0.646202  0  2.348791  0  0  -0.337671  -0.584704  0  2.355135  0
O  O66  1  0.72825918  0.82260892  0.47595635  1  0  -0.621296  0  2.0856  0  0  -0.610813  0  2.353455  0  0  -0.646241  0  2.348842  0  0  -0.337745  -0.584758  0  2.355188  0
O  O67  1  0.77173073  0.17739479  0.97595777  1  0  -0.621333  0  2.085566  0  0  -0.610825  0  2.353473  0  0  -0.646251  0  2.34886  0  0  -0.337779  -0.584765  0  2.355202  0
O  O68  1  0.04508005  0.47082650  0.95414350  1  0  -0.623037  0  1.963807  0  0  -0.60861  0  2.21429  0  0  -0.639318  0  2.204852  0  0  -0.336317  -0.585998  0  2.219587  0
O  O69  1  0.45492565  0.52917078  0.45414143  1  0  -0.623096  0  1.963696  0  0  -0.608665  0  2.214188  0  0  -0.639374  0  2.204749  0  0  -0.336369  -0.586054  0  2.219483  0
O  O70  1  0.95492397  0.97082710  0.54585690  1  0  -0.623031  0  1.963698  0  0  -0.608623  0  2.214188  0  0  -0.639337  0  2.204749  0  0  -0.336316  -0.586007  0  2.219483  0
O  O71  1  0.54506513  0.02917366  0.04585715  1  0  -0.623123  0  1.96366  0  0  -0.608681  0  2.214161  0  0  -0.639379  0  2.204721  0  0  -0.336377  -0.586056  0  2.219464  0
