# generated using pymatgen
data_FeH14PtC20(N5O)2
_symmetry_space_group_name_H-M   'P 1'
_cell_length_a   6.96099560
_cell_length_b   7.25006217
_cell_length_c   21.70641948
_cell_angle_alpha   99.57013335
_cell_angle_beta   89.99902038
_cell_angle_gamma   89.99983251
_symmetry_Int_Tables_number   1
_chemical_formula_structural   FeH14PtC20(N5O)2
_chemical_formula_sum   'Fe2 H28 Pt2 C40 N20 O4'
_cell_volume   1080.22613535
_cell_formula_units_Z   2
loop_
 _symmetry_equiv_pos_site_id
 _symmetry_equiv_pos_as_xyz
  1  'x, y, z'
loop_
 _atom_site_type_symbol
 _atom_site_label
 _atom_site_symmetry_multiplicity
 _atom_site_fract_x
 _atom_site_fract_y
 _atom_site_fract_z
 _atom_site_occupancy
 _atom_site_hle17_bader_spin_density
 _atom_site_hle17_ddec_charge
 _atom_site_hle17_ddec_spin_density
 _atom_site_hle17_ddec_sum_bond_order
 _atom_site_hle17_magmom
 _atom_site_hse06_10hf_bader_spin_density
 _atom_site_hse06_10hf_ddec_charge
 _atom_site_hse06_10hf_ddec_spin_density
 _atom_site_hse06_10hf_ddec_sum_bond_order
 _atom_site_hse06_10hf_magmom
 _atom_site_hse06_bader_spin_density
 _atom_site_hse06_ddec_charge
 _atom_site_hse06_ddec_spin_density
 _atom_site_hse06_ddec_sum_bond_order
 _atom_site_hse06_magmom
 _atom_site_pbe_bader_spin_density
 _atom_site_pbe_cm5_charge
 _atom_site_pbe_ddec_charge
 _atom_site_pbe_ddec_spin_density
 _atom_site_pbe_ddec_sum_bond_order
 _atom_site_pbe_magmom
Fe  Fe0  1  0.99997334  0.50002722  0.50000067  1  0  0.592805  0  3.521534  0  0  0.582236  0  3.994279  0  0  0.608039  0  3.950201  0  0  0.918459  0.574648  0  4.013998  0
Fe  Fe1  1  0.50001545  0.49999528  0.99999963  1  0  0.592919  0  3.521866  0  0  0.582349  0  3.994557  0  0  0.608113  0  3.95054  0  0  0.918754  0.574723  0  4.014498  0
H  H2  1  0.01952018  0.28678160  0.61804606  1  0  0.118886  0  0.912127  0  0  0.130053  0  0.968795  0  0  0.132274  0  0.965612  0  0  0.152622  0.128499  0  0.971008  0
H  H3  1  0.51950980  0.71323097  0.88194983  1  0  0.119034  0  0.911998  0  0  0.130229  0  0.968604  0  0  0.132456  0  0.965411  0  0  0.152666  0.128666  0  0.970836  0
H  H4  1  0.98045317  0.71324340  0.38194623  1  0  0.119169  0  0.912086  0  0  0.130308  0  0.968744  0  0  0.132529  0  0.965561  0  0  0.15269  0.128749  0  0.970965  0
H  H5  1  0.48049803  0.28676896  0.11805123  1  0  0.118954  0  0.912117  0  0  0.130153  0  0.968718  0  0  0.132376  0  0.96553  0  0  0.152642  0.128596  0  0.970949  0
H  H6  1  0.03546344  0.73574823  0.79965566  1  0  0.100413  0  0.992984  0  0  0.109485  0  1.059182  0  0  0.112965  0  1.057  0  0  0.100458  0.106954  0  1.060924  0
H  H7  1  0.53546429  0.26422935  0.70034422  1  0  0.100321  0  0.9929  0  0  0.109357  0  1.059152  0  0  0.112836  0  1.056971  0  0  0.100431  0.106833  0  1.0609  0
H  H8  1  0.96455445  0.26421674  0.20034349  1  0  0.100269  0  0.992891  0  0  0.109368  0  1.059086  0  0  0.112846  0  1.056907  0  0  0.100443  0.106842  0  1.060834  0
H  H9  1  0.46453061  0.73576920  0.29965768  1  0  0.100395  0  0.992767  0  0  0.109447  0  1.059006  0  0  0.112926  0  1.056828  0  0  0.100479  0.10692  0  1.060751  0
H  H10  1  0.90279386  0.17360314  0.70788614  1  0  0.129597  0  0.934423  0  0  0.144017  0  0.987714  0  0  0.14752  0  0.985663  0  0  0.113676  0.141463  0  0.989405  0
H  H11  1  0.40277160  0.82637514  0.79211135  1  0  0.12956  0  0.934407  0  0  0.143972  0  0.987698  0  0  0.147475  0  0.985647  0  0  0.11369  0.141415  0  0.989382  0
H  H12  1  0.09719674  0.82637854  0.29210793  1  0  0.129576  0  0.93435  0  0  0.143992  0  0.98765  0  0  0.147497  0  0.985594  0  0  0.113672  0.141441  0  0.989335  0
H  H13  1  0.59725922  0.17363318  0.20788878  1  0  0.129591  0  0.934521  0  0  0.143952  0  0.987868  0  0  0.147459  0  0.985814  0  0  0.113644  0.141393  0  0.989553  0
H  H14  1  0.91346052  0.82579900  0.72154240  1  0  0.108066  0  0.963072  0  0  0.11585  0  1.026121  0  0  0.118176  0  1.023551  0  0  0.136293  0.114249  0  1.027846  0
H  H15  1  0.41350417  0.17417654  0.77846594  1  0  0.108115  0  0.96279  0  0  0.115738  0  1.026085  0  0  0.11805  0  1.023509  0  0  0.136278  0.11414  0  1.027807  0
H  H16  1  0.08652863  0.17418987  0.27847049  1  0  0.108099  0  0.962839  0  0  0.115845  0  1.025972  0  0  0.118171  0  1.023402  0  0  0.136275  0.114241  0  1.027707  0
H  H17  1  0.58651228  0.82581780  0.22153481  1  0  0.10818  0  0.962949  0  0  0.115834  0  1.026159  0  0  0.118156  0  1.023588  0  0  0.136321  0.114234  0  1.027881  0
H  H18  1  0.95783206  0.29698628  0.90842604  1  0  0.114656  0  0.974362  0  0  0.123115  0  1.04092  0  0  0.125576  0  1.040229  0  0  0.103143  0.121329  0  1.041691  0
H  H19  1  0.45781965  0.70298051  0.59157237  1  0  0.114696  0  0.974179  0  0  0.123141  0  1.040732  0  0  0.125625  0  1.040021  0  0  0.103165  0.121356  0  1.041501  0
H  H20  1  0.04216571  0.70297026  0.09157035  1  0  0.114613  0  0.974255  0  0  0.123075  0  1.04079  0  0  0.125558  0  1.040079  0  0  0.103149  0.121292  0  1.041561  0
H  H21  1  0.54219536  0.29700679  0.40842431  1  0  0.11465  0  0.974247  0  0  0.123116  0  1.040797  0  0  0.125601  0  1.040082  0  0  0.103127  0.121335  0  1.041558  0
H  H22  1  0.02506861  0.62829081  0.90242130  1  0  0.089559  0  0.979487  0  0  0.096471  0  1.047324  0  0  0.098466  0  1.045796  0  0  0.096627  0.095024  0  1.048599  0
H  H23  1  0.52507042  0.37169245  0.59758218  1  0  0.089636  0  0.979407  0  0  0.096536  0  1.047277  0  0  0.098543  0  1.045709  0  0  0.096636  0.095087  0  1.048551  0
H  H24  1  0.97494928  0.37167696  0.09757939  1  0  0.089704  0  0.97943  0  0  0.096592  0  1.047296  0  0  0.098594  0  1.045736  0  0  0.096667  0.095141  0  1.048577  0
H  H25  1  0.47493597  0.62830333  0.40242234  1  0  0.089634  0  0.979409  0  0  0.096578  0  1.047216  0  0  0.098583  0  1.04565  0  0  0.096661  0.095124  0  1.048493  0
H  H26  1  0.87853352  0.01668308  0.85417519  1  0  0.384668  0  0.823306  0  0  0.363105  0  0.894382  0  0  0.372483  0  0.88236  0  0  0.329239  0.355968  0  0.90378  0
H  H27  1  0.37850439  0.98329956  0.64582544  1  0  0.384775  0  0.823205  0  0  0.363247  0  0.894212  0  0  0.372621  0  0.882202  0  0  0.329301  0.356114  0  0.903597  0
H  H28  1  0.12146425  0.98329721  0.14581927  1  0  0.384609  0  0.823336  0  0  0.363062  0  0.894392  0  0  0.37244  0  0.882375  0  0  0.329201  0.355926  0  0.903791  0
H  H29  1  0.62151493  0.01669894  0.35417232  1  0  0.384673  0  0.823201  0  0  0.363164  0  0.894177  0  0  0.372534  0  0.882178  0  0  0.329302  0.356029  0  0.903562  0
Pt  Pt30  1  0.49997234  0.00003383  0.50000676  1  0  0.046268  0  4.125127  0  0  0.046171  0  4.740149  0  0  0.046483  0  4.689485  0  0  0.50795  0.044131  0  4.781932  0
Pt  Pt31  1  0.00001295  0.99999431  0.99999653  1  0  0.046131  0  4.125293  0  0  0.046114  0  4.740222  0  0  0.046428  0  4.689548  0  0  0.508045  0.044031  0  4.782251  0
C  C32  1  0.69486866  0.80003360  0.49607674  1  0  0.055568  0  3.582799  0  0  0.032959  0  3.940389  0  0  0.044736  0  3.942629  0  0  -0.007546  0.025234  0  3.940502  0
C  C33  1  0.19489700  0.19999437  0.00392310  1  0  0.055739  0  3.583216  0  0  0.033111  0  3.940805  0  0  0.044894  0  3.943044  0  0  -0.007409  0.025344  0  3.941098  0
C  C34  1  0.30508458  0.20003350  0.50393119  1  0  0.055503  0  3.583889  0  0  0.032877  0  3.941474  0  0  0.04466  0  3.943712  0  0  -0.007521  0.02508  0  3.941694  0
C  C35  1  0.80511370  0.79999154  0.99607443  1  0  0.055612  0  3.583324  0  0  0.032985  0  3.940911  0  0  0.044762  0  3.943148  0  0  -0.007445  0.025232  0  3.941193  0
C  C36  1  0.99364321  0.43542551  0.63056975  1  0  0.152878  0  3.578808  0  0  0.090172  0  3.848552  0  0  0.104403  0  3.859776  0  0  0.163644  0.081027  0  3.840656  0
C  C37  1  0.49364194  0.56459280  0.86942759  1  0  0.15286  0  3.578155  0  0  0.090182  0  3.847877  0  0  0.104417  0  3.859098  0  0  0.163683  0.081045  0  3.840005  0
C  C38  1  0.00633302  0.56460373  0.36942646  1  0  0.152629  0  3.578475  0  0  0.089995  0  3.848257  0  0  0.104231  0  3.859477  0  0  0.163724  0.080852  0  3.840358  0
C  C39  1  0.50636445  0.43541271  0.13057193  1  0  0.152793  0  3.578391  0  0  0.090137  0  3.848135  0  0  0.104366  0  3.859359  0  0  0.16369  0.080998  0  3.840269  0
C  C40  1  0.96922537  0.46247729  0.74771300  1  0  0.204202  0  3.80945  0  0  0.194195  0  4.066627  0  0  0.202691  0  4.088191  0  0  0.090801  0.188464  0  4.052138  0
C  C41  1  0.46923343  0.53749648  0.75228942  1  0  0.204288  0  3.809551  0  0  0.194151  0  4.066857  0  0  0.202654  0  4.088419  0  0  0.090881  0.188424  0  4.052371  0
C  C42  1  0.03076954  0.53749465  0.25228469  1  0  0.20421  0  3.809556  0  0  0.194205  0  4.066704  0  0  0.202709  0  4.088259  0  0  0.090819  0.188474  0  4.052211  0
C  C43  1  0.53079882  0.46250068  0.24771333  1  0  0.204089  0  3.809653  0  0  0.194105  0  4.066767  0  0  0.202604  0  4.088331  0  0  0.090848  0.188377  0  4.052273  0
C  C44  1  0.29670712  0.80960343  0.49949096  1  0  0.045742  0  3.596136  0  0  0.025519  0  3.951304  0  0  0.037489  0  3.952775  0  0  -0.010641  0.016897  0  3.953128  0
C  C45  1  0.79673774  0.19042681  0.00051213  1  0  0.045949  0  3.595397  0  0  0.025739  0  3.950528  0  0  0.037721  0  3.95198  0  0  -0.010472  0.017139  0  3.952437  0
C  C46  1  0.70322889  0.19048610  0.50052141  1  0  0.046077  0  3.59655  0  0  0.025872  0  3.951655  0  0  0.03784  0  3.953129  0  0  -0.01043  0.017271  0  3.953447  0
C  C47  1  0.20328733  0.80954931  0.99948440  1  0  0.045772  0  3.596349  0  0  0.025562  0  3.951434  0  0  0.037533  0  3.952899  0  0  -0.010518  0.016956  0  3.953359  0
C  C48  1  0.00316361  0.59067775  0.80223329  1  0  -0.19771  0  3.771122  0  0  -0.227994  0  4.037762  0  0  -0.234222  0  4.057853  0  0  -0.114391  -0.223891  0  4.02432  0
C  C49  1  0.50315554  0.40930003  0.69776863  1  0  -0.197563  0  3.770892  0  0  -0.227756  0  4.037552  0  0  -0.233994  0  4.057656  0  0  -0.11432  -0.223639  0  4.024049  0
C  C50  1  0.99684566  0.40929562  0.19776725  1  0  -0.197546  0  3.770734  0  0  -0.227836  0  4.037373  0  0  -0.234074  0  4.057476  0  0  -0.114354  -0.223733  0  4.023908  0
C  C51  1  0.49685085  0.59069152  0.30223289  1  0  -0.197545  0  3.770978  0  0  -0.227797  0  4.037616  0  0  -0.234029  0  4.057709  0  0  -0.114354  -0.223701  0  4.024178  0
C  C52  1  0.93246217  0.27415490  0.74996596  1  0  -0.276752  0  3.687552  0  0  -0.306427  0  3.944602  0  0  -0.313432  0  3.961701  0  0  -0.10895  -0.301851  0  3.933268  0
C  C53  1  0.43244106  0.72581762  0.75003198  1  0  -0.276779  0  3.687547  0  0  -0.306377  0  3.944583  0  0  -0.313388  0  3.961691  0  0  -0.10902  -0.301782  0  3.933223  0
C  C54  1  0.06752843  0.72581840  0.25002812  1  0  -0.276884  0  3.687485  0  0  -0.306531  0  3.94451  0  0  -0.313537  0  3.96161  0  0  -0.109032  -0.30195  0  3.933164  0
C  C55  1  0.56758257  0.27417948  0.24996569  1  0  -0.276638  0  3.687667  0  0  -0.306292  0  3.944626  0  0  -0.313294  0  3.961732  0  0  -0.108997  -0.301701  0  3.933274  0
C  C56  1  0.92825149  0.21711875  0.80850848  1  0  0.336675  0  3.832313  0  0  0.331802  0  4.095862  0  0  0.34307  0  4.1121  0  0  0.078794  0.324027  0  4.08475  0
C  C57  1  0.42822766  0.78284262  0.69149026  1  0  0.336722  0  3.832314  0  0  0.331863  0  4.095798  0  0  0.343132  0  4.112039  0  0  0.078839  0.324088  0  4.084695  0
C  C58  1  0.07174916  0.78285176  0.19148637  1  0  0.336777  0  3.831991  0  0  0.331883  0  4.095553  0  0  0.343154  0  4.111786  0  0  0.078859  0.324109  0  4.084443  0
C  C59  1  0.57179310  0.21714052  0.30850942  1  0  0.336419  0  3.832841  0  0  0.331686  0  4.09617  0  0  0.342942  0  4.112429  0  0  0.078886  0.323912  0  4.08506  0
C  C60  1  0.94241163  0.71421780  0.68282644  1  0  0.135789  0  3.6731  0  0  0.079519  0  3.952784  0  0  0.08913  0  3.966981  0  0  0.149246  0.073528  0  3.942563  0
C  C61  1  0.44243559  0.28577714  0.81718188  1  0  0.135989  0  3.672957  0  0  0.079779  0  3.952713  0  0  0.089419  0  3.966889  0  0  0.149346  0.073778  0  3.942498  0
C  C62  1  0.05757897  0.28579620  0.31718276  1  0  0.135726  0  3.673083  0  0  0.07943  0  3.952804  0  0  0.089047  0  3.967002  0  0  0.149156  0.073431  0  3.942579  0
C  C63  1  0.55757655  0.71421721  0.18282025  1  0  0.135747  0  3.673165  0  0  0.079563  0  3.952863  0  0  0.089181  0  3.967058  0  0  0.149292  0.07357  0  3.942644  0
C  C64  1  0.96152809  0.34373986  0.86332717  1  0  -0.190429  0  3.718943  0  0  -0.215935  0  3.969554  0  0  -0.222614  0  3.991206  0  0  -0.105122  -0.211566  0  3.955128  0
C  C65  1  0.46152199  0.65623810  0.63667183  1  0  -0.190434  0  3.718999  0  0  -0.215953  0  3.969666  0  0  -0.222654  0  3.991295  0  0  -0.105146  -0.211595  0  3.95526  0
C  C66  1  0.03847112  0.65622646  0.13666883  1  0  -0.190325  0  3.718716  0  0  -0.215855  0  3.969415  0  0  -0.222551  0  3.991039  0  0  -0.10513  -0.21149  0  3.954995  0
C  C67  1  0.53850739  0.34375059  0.36332355  1  0  -0.190497  0  3.719227  0  0  -0.21609  0  3.969894  0  0  -0.222787  0  3.991529  0  0  -0.105255  -0.211725  0  3.955474  0
C  C68  1  0.99857290  0.52990346  0.85971708  1  0  -0.005868  0  3.774291  0  0  -0.019643  0  4.02894  0  0  -0.017013  0  4.048744  0  0  -0.087533  -0.021246  0  4.015411  0
C  C69  1  0.49856141  0.47007152  0.64028340  1  0  -0.005972  0  3.774371  0  0  -0.019737  0  4.029018  0  0  -0.017107  0  4.048851  0  0  -0.087547  -0.021334  0  4.015497  0
C  C70  1  0.00144067  0.47006428  0.14027992  1  0  -0.006051  0  3.774309  0  0  -0.019812  0  4.028988  0  0  -0.017187  0  4.048825  0  0  -0.087573  -0.021409  0  4.015464  0
C  C71  1  0.50144355  0.52992282  0.35971689  1  0  -0.005939  0  3.774404  0  0  -0.019751  0  4.029038  0  0  -0.017121  0  4.048877  0  0  -0.087509  -0.021353  0  4.015513  0
N  N72  1  0.18405816  0.68994496  0.50006331  1  0  -0.316485  0  3.321475  0  0  -0.289776  0  3.629152  0  0  -0.304067  0  3.641536  0  0  -0.384344  -0.28144  0  3.618643  0
N  N73  1  0.68405837  0.31008493  0.99993955  1  0  -0.316727  0  3.321301  0  0  -0.290053  0  3.629024  0  0  -0.304335  0  3.64139  0  0  -0.384652  -0.281727  0  3.618628  0
N  N74  1  0.81588789  0.31011654  0.49994340  1  0  -0.316761  0  3.322163  0  0  -0.290063  0  3.629821  0  0  -0.304353  0  3.642199  0  0  -0.384495  -0.281742  0  3.619333  0
N  N75  1  0.31595233  0.68990940  0.00006028  1  0  -0.316377  0  3.322224  0  0  -0.289685  0  3.629867  0  0  -0.303969  0  3.642248  0  0  -0.384459  -0.281353  0  3.619465  0
N  N76  1  0.96877288  0.53064188  0.68990101  1  0  -0.125609  0  3.594076  0  0  -0.034161  0  3.806407  0  0  -0.051936  0  3.83181  0  0  -0.217003  -0.022268  0  3.788893  0
N  N77  1  0.46878231  0.46934582  0.81009756  1  0  -0.125989  0  3.594318  0  0  -0.034479  0  3.806654  0  0  -0.052264  0  3.832053  0  0  -0.217204  -0.022582  0  3.789152  0
N  N78  1  0.03122346  0.46935522  0.31009713  1  0  -0.125747  0  3.594172  0  0  -0.034249  0  3.806414  0  0  -0.05203  0  3.831813  0  0  -0.217083  -0.02235  0  3.788891  0
N  N79  1  0.53123126  0.53065269  0.18990157  1  0  -0.125634  0  3.594214  0  0  -0.034191  0  3.806513  0  0  -0.051966  0  3.831914  0  0  -0.217123  -0.022297  0  3.78901  0
N  N80  1  0.80671637  0.67904626  0.49504255  1  0  -0.319215  0  3.31218  0  0  -0.290985  0  3.618814  0  0  -0.306032  0  3.632038  0  0  -0.384801  -0.282408  0  3.607903  0
N  N81  1  0.30676010  0.32099229  0.00495910  1  0  -0.319352  0  3.312491  0  0  -0.291105  0  3.619088  0  0  -0.30615  0  3.63232  0  0  -0.384997  -0.282505  0  3.608247  0
N  N82  1  0.19322537  0.32101381  0.50496085  1  0  -0.31914  0  3.313155  0  0  -0.290886  0  3.61972  0  0  -0.305937  0  3.632956  0  0  -0.384799  -0.282277  0  3.60877  0
N  N83  1  0.69326066  0.67900483  0.99504042  1  0  -0.3193  0  3.31279  0  0  -0.291061  0  3.619401  0  0  -0.306102  0  3.63263  0  0  -0.384961  -0.282466  0  3.608566  0
N  N84  1  0.98384091  0.55571067  0.59095374  1  0  -0.131672  0  3.314378  0  0  -0.092907  0  3.612032  0  0  -0.110442  0  3.629841  0  0  -0.23486  -0.082044  0  3.598938  0
N  N85  1  0.48386371  0.44430775  0.90904919  1  0  -0.131793  0  3.313752  0  0  -0.093158  0  3.611591  0  0  -0.11069  0  3.629403  0  0  -0.23502  -0.082292  0  3.59854  0
N  N86  1  0.01612813  0.44433123  0.40905052  1  0  -0.131803  0  3.313791  0  0  -0.093251  0  3.61173  0  0  -0.110777  0  3.629521  0  0  -0.235193  -0.082395  0  3.598635  0
N  N87  1  0.51614987  0.55569359  0.09095241  1  0  -0.131734  0  3.313719  0  0  -0.093147  0  3.611605  0  0  -0.110673  0  3.629409  0  0  -0.235037  -0.082284  0  3.598559  0
N  N88  1  0.95193483  0.73255416  0.62373319  1  0  -0.215161  0  2.898017  0  0  -0.204729  0  3.184213  0  0  -0.211887  0  3.19956  0  0  -0.222351  -0.199493  0  3.173448  0
N  N89  1  0.45197718  0.26745890  0.87627468  1  0  -0.215126  0  2.897889  0  0  -0.204625  0  3.184083  0  0  -0.211789  0  3.199424  0  0  -0.222294  -0.199378  0  3.173325  0
N  N90  1  0.04803134  0.26747805  0.37627976  1  0  -0.21492  0  2.897432  0  0  -0.204387  0  3.183634  0  0  -0.211548  0  3.198976  0  0  -0.222113  -0.199139  0  3.172858  0
N  N91  1  0.54803927  0.73254522  0.12372568  1  0  -0.215102  0  2.897843  0  0  -0.204598  0  3.184025  0  0  -0.211758  0  3.199367  0  0  -0.222283  -0.19935  0  3.173265  0
O  O92  1  0.88773309  0.03258780  0.81038025  1  0  -0.51736  0  2.105246  0  0  -0.467898  0  2.309692  0  0  -0.484604  0  2.299762  0  0  -0.350224  -0.455821  0  2.316661  0
O  O93  1  0.38770737  0.96737239  0.68961726  1  0  -0.517545  0  2.10499  0  0  -0.468111  0  2.309457  0  0  -0.484798  0  2.299479  0  0  -0.350317  -0.456044  0  2.316439  0
O  O94  1  0.11225894  0.96737989  0.18961214  1  0  -0.517278  0  2.105023  0  0  -0.467846  0  2.309505  0  0  -0.484554  0  2.299569  0  0  -0.350161  -0.455769  0  2.316477  0
O  O95  1  0.61231770  0.03261490  0.31037804  1  0  -0.51721  0  2.105245  0  0  -0.467831  0  2.309662  0  0  -0.484524  0  2.299717  0  0  -0.350227  -0.455758  0  2.316626  0
