# generated using pymatgen
data_CaH10C10(SO4)2
_symmetry_space_group_name_H-M   'P 1'
_cell_length_a   7.81916984
_cell_length_b   8.09826603
_cell_length_c   11.27913878
_cell_angle_alpha   73.73834213
_cell_angle_beta   82.90630940
_cell_angle_gamma   84.01816676
_symmetry_Int_Tables_number   1
_chemical_formula_structural   CaH10C10(SO4)2
_chemical_formula_sum   'Ca2 H20 C20 S4 O16'
_cell_volume   678.57258560
_cell_formula_units_Z   2
loop_
 _symmetry_equiv_pos_site_id
 _symmetry_equiv_pos_as_xyz
  1  'x, y, z'
loop_
 _atom_site_type_symbol
 _atom_site_label
 _atom_site_symmetry_multiplicity
 _atom_site_fract_x
 _atom_site_fract_y
 _atom_site_fract_z
 _atom_site_occupancy
 _atom_site_pbe_bader_spin_density
 _atom_site_pbe_cm5_charge
 _atom_site_pbe_ddec_charge
 _atom_site_pbe_ddec_spin_density
 _atom_site_pbe_ddec_sum_bond_order
 _atom_site_pbe_magmom
Ca  Ca0  1  0.22577762  0.24234421  0.00236219  1  0  0.937162  1.476959  0  1.443279  0
Ca  Ca1  1  0.77422153  0.75765613  0.99764005  1  0  0.937158  1.476955  0  1.443262  0
H  H2  1  0.04175856  0.91363044  0.13021010  1  0  0.307247  0.400804  0  0.931721  0
H  H3  1  0.95824198  0.08636862  0.86979050  1  0  0.307255  0.400812  0  0.931712  0
H  H4  1  0.93021834  0.08124856  0.14621608  1  0  0.301161  0.387979  0  0.952084  0
H  H5  1  0.06978210  0.91875179  0.85378339  1  0  0.301169  0.387974  0  0.952078  0
H  H6  1  0.34043246  0.59614739  0.86861300  1  0  0.303846  0.401414  0  0.930193  0
H  H7  1  0.65956550  0.40385166  0.13138782  1  0  0.303845  0.401413  0  0.930199  0
H  H8  1  0.50421729  0.46261141  0.86318986  1  0  0.306863  0.410511  0  0.917112  0
H  H9  1  0.49578196  0.53738764  0.13681175  1  0  0.306831  0.410441  0  0.917212  0
H  H10  1  0.63626871  0.70857218  0.30920391  1  0  0.116718  0.118191  0  1.012313  0
H  H11  1  0.36373173  0.29142817  0.69079467  1  0  0.116708  0.118167  0  1.012345  0
H  H12  1  0.62111745  0.54839512  0.53383772  1  0  0.103487  0.104266  0  1.020549  0
H  H13  1  0.37888418  0.45160653  0.46616138  1  0  0.103456  0.104236  0  1.020566  0
H  H14  1  0.53611263  0.69965442  0.69349796  1  0  0.105738  0.101754  0  1.062571  0
H  H15  1  0.46388900  0.30034723  0.30649759  1  0  0.105764  0.101767  0  1.06262  0
H  H16  1  0.04662403  0.76977302  0.69873582  1  0  0.114452  0.12132  0  1.024055  0
H  H17  1  0.95337820  0.23022089  0.30126656  1  0  0.114463  0.121315  0  1.024043  0
H  H18  1  0.15725397  0.91118512  0.48048033  1  0  0.104542  0.106536  0  1.002772  0
H  H19  1  0.84274667  0.08881266  0.51952230  1  0  0.104538  0.106512  0  1.002785  0
H  H20  1  0.14721729  0.77049461  0.31589453  1  0  0.107443  0.111513  0  1.037985  0
H  H21  1  0.85277799  0.22950571  0.68410627  1  0  0.107491  0.111545  0  1.037906  0
C  C22  1  0.55811400  0.95303328  0.34531988  1  0  -0.014306  -0.145568  0  3.929657  0
C  C23  1  0.44188902  0.04696708  0.65467759  1  0  -0.014312  -0.145567  0  3.92963  0
C  C24  1  0.59693554  0.77685369  0.37985732  1  0  -0.074524  -0.073582  0  3.973362  0
C  C25  1  0.40306608  0.22314795  0.62014001  1  0  -0.074519  -0.073521  0  3.973317  0
C  C26  1  0.58730472  0.68673849  0.50671131  1  0  -0.085214  -0.065713  0  3.99372  0
C  C27  1  0.41269443  0.31326185  0.49328472  1  0  -0.085153  -0.0657  0  3.993708  0
C  C28  1  0.53882225  0.77213230  0.59661726  1  0  -0.082302  -0.114243  0  3.950964  0
C  C29  1  0.46117670  0.22787062  0.40338004  1  0  -0.082364  -0.11428  0  3.95103  0
C  C30  1  0.50471231  0.04740698  0.43534964  1  0  0.001374  0.063384  0  3.962063  0
C  C31  1  0.49528922  0.95259596  0.56464655  1  0  0.001351  0.063366  0  3.962081  0
C  C32  1  0.97648904  0.54639143  0.65533502  1  0  -0.01303  -0.145529  0  3.939847  0
C  C33  1  0.02351268  0.45360893  0.34466522  1  0  -0.013013  -0.145505  0  3.939725  0
C  C34  1  0.04223636  0.70614238  0.62623655  1  0  -0.076719  -0.076442  0  3.973271  0
C  C35  1  0.95776696  0.29385411  0.37376610  1  0  -0.076771  -0.076461  0  3.973109  0
C  C36  1  0.10374807  0.78591957  0.50266440  1  0  -0.08423  -0.062511  0  3.993961  0
C  C37  1  0.89625000  0.21407819  0.49733756  1  0  -0.084187  -0.062459  0  3.993842  0
C  C38  1  0.09771860  0.70668819  0.41020309  1  0  -0.084234  -0.123813  0  3.955294  0
C  C39  1  0.90228205  0.29330958  0.58979865  1  0  -0.08425  -0.123803  0  3.955249  0
C  C40  1  0.96905319  0.45776544  0.56302690  1  0  0.001106  0.064073  0  3.966344  0
C  C41  1  0.03094617  0.54223232  0.43697407  1  0  0.001144  0.064134  0  3.96623  0
S  S42  1  0.58577174  0.06198909  0.18417675  1  0  0.56182  1.23336  0  6.129845  0
S  S43  1  0.41422870  0.93801126  0.81582272  1  0  0.561803  1.233255  0  6.130025  0
S  S44  1  0.89660598  0.45534677  0.81268378  1  0  0.555705  1.226798  0  6.126312  0
S  S45  1  0.10339059  0.54465356  0.18731691  1  0  0.555724  1.226902  0  6.126312  0
O  O46  1  0.72486415  0.17948208  0.16827894  1  0  -0.311505  -0.603078  0  2.239234  0
O  O47  1  0.27513619  0.82051956  0.83172028  1  0  -0.311495  -0.603039  0  2.239275  0
O  O48  1  0.42136459  0.15892654  0.15115696  1  0  -0.379627  -0.657183  0  2.273306  0
O  O49  1  0.57863436  0.84107638  0.84884300  1  0  -0.379628  -0.657167  0  2.27344  0
O  O50  1  0.63456527  0.92858264  0.11894168  1  0  -0.378808  -0.658299  0  2.282134  0
O  O51  1  0.36543141  0.07141640  0.88105926  1  0  -0.378782  -0.658256  0  2.282126  0
O  O52  1  0.71901202  0.41407389  0.81360774  1  0  -0.313896  -0.584077  0  2.202938  0
O  O53  1  0.28098465  0.58592515  0.18639497  1  0  -0.313895  -0.584095  0  2.202907  0
O  O54  1  0.01116740  0.29718606  0.85924354  1  0  -0.37212  -0.683079  0  2.288826  0
O  O55  1  0.98882907  0.70281556  0.14075956  1  0  -0.372082  -0.683087  0  2.288873  0
O  O56  1  0.91608995  0.58429029  0.87816076  1  0  -0.37473  -0.651494  0  2.283535  0
O  O57  1  0.08390771  0.41571262  0.12183665  1  0  -0.374755  -0.651563  0  2.283599  0
O  O58  1  0.05035783  0.03446675  0.12996415  1  0  -0.641072  -0.836256  0  1.978207  0
O  O59  1  0.94964271  0.96553231  0.87003646  1  0  -0.641083  -0.836248  0  1.978227  0
O  O60  1  0.37742170  0.47242108  0.88219234  1  0  -0.642387  -0.848045  0  1.957594  0
O  O61  1  0.62257616  0.52757925  0.11780912  1  0  -0.642372  -0.847993  0  1.957632  0
