# generated using pymatgen
data_KZnFePH27C25S(BrO)3
_symmetry_space_group_name_H-M   'P 1'
_cell_length_a   8.77913376
_cell_length_b   9.28380429
_cell_length_c   18.24630000
_cell_angle_alpha   88.44077282
_cell_angle_beta   80.25303251
_cell_angle_gamma   85.66845633
_symmetry_Int_Tables_number   1
_chemical_formula_structural   KZnFePH27C25S(BrO)3
_chemical_formula_sum   'K2 Zn2 Fe2 P2 H54 C50 S2 Br6 O6'
_cell_volume   1461.33136510
_cell_formula_units_Z   2
loop_
 _symmetry_equiv_pos_site_id
 _symmetry_equiv_pos_as_xyz
  1  'x, y, z'
loop_
 _atom_site_type_symbol
 _atom_site_label
 _atom_site_symmetry_multiplicity
 _atom_site_fract_x
 _atom_site_fract_y
 _atom_site_fract_z
 _atom_site_occupancy
 _atom_site_hle17_bader_spin_density
 _atom_site_hle17_ddec_charge
 _atom_site_hle17_ddec_spin_density
 _atom_site_hle17_ddec_sum_bond_order
 _atom_site_hle17_magmom
 _atom_site_hse06_10hf_bader_spin_density
 _atom_site_hse06_10hf_ddec_charge
 _atom_site_hse06_10hf_ddec_spin_density
 _atom_site_hse06_10hf_ddec_sum_bond_order
 _atom_site_hse06_10hf_magmom
 _atom_site_hse06_bader_spin_density
 _atom_site_hse06_ddec_charge
 _atom_site_hse06_ddec_spin_density
 _atom_site_hse06_ddec_sum_bond_order
 _atom_site_hse06_magmom
 _atom_site_pbe_bader_charge
 _atom_site_pbe_bader_spin_density
 _atom_site_pbe_cm5_charge
 _atom_site_pbe_ddec_charge
 _atom_site_pbe_ddec_spin_density
 _atom_site_pbe_ddec_sum_bond_order
 _atom_site_pbe_magmom
K  K0  1  0.22851506  0.41471476  0.96206237  1  0  0.899588  0  0.503055  0  0  0.847019  0  0.698006  0  0  0.860894  0  0.67458  0  0.874555  0  0.68951  0.83664  0  0.714689  0
K  K1  1  0.77147569  0.58527337  0.03793477  1  0  0.899622  0  0.503101  0  0  0.84704  0  0.698106  0  0  0.860912  0  0.67468  0  0.874533  0  0.689576  0.836658  0  0.714792  0
Zn  Zn2  1  0.19308752  0.32564127  0.75645338  1  0  0.555617  0  2.302084  0  0  0.405712  0  2.78117  0  0  0.439579  0  2.745173  0  0.845229  0  0.374388  0.381929  0  2.807213  0
Zn  Zn3  1  0.80691147  0.67435982  0.24354675  1  0  0.555648  0  2.301989  0  0  0.405742  0  2.781063  0  0  0.439612  0  2.745065  0  0.845235  0  0.374402  0.381965  0  2.807097  0
Fe  Fe4  1  0.64114808  0.02527579  0.72465359  1  0  0.111532  0  3.596222  0  0  0.21894  0  3.996445  0  0  0.224677  0  3.982787  0  0.715244  0  0.535981  0.222052  0  3.998806  0
Fe  Fe5  1  0.35885083  0.97472639  0.27534323  1  0  0.111611  0  3.595889  0  0  0.218977  0  3.996279  0  0  0.224701  0  3.982614  0  0.715225  0  0.535987  0.22206  0  3.998641  0
P  P6  1  0.32338817  0.19049749  0.65094736  1  0  0.341932  0  3.625365  0  0  0.310274  0  4.036069  0  0  0.31969  0  4.035142  0  1.415653  0  0.050738  0.303463  0  4.037702  0
P  P7  1  0.67660967  0.80950360  0.34905395  1  0  0.341992  0  3.62533  0  0  0.310321  0  4.035998  0  0  0.319734  0  4.035074  0  1.415658  0  0.050755  0.303513  0  4.037629  0
H  H8  1  0.89416772  0.98595335  0.79813092  1  0  0.115438  0  0.967934  0  0  0.126595  0  1.031899  0  0  0.129116  0  1.031616  0  0.115597  0  0.098971  0.12486  0  1.032135  0
H  H9  1  0.10582739  0.01405315  0.20187109  1  0  0.115431  0  0.96796  0  0  0.126586  0  1.031917  0  0  0.129113  0  1.031639  0  0.115579  0  0.098936  0.124849  0  1.032158  0
H  H10  1  0.77028418  0.74798219  0.75538205  1  0  0.116249  0  0.953966  0  0  0.128853  0  1.011754  0  0  0.131772  0  1.010697  0  0.099826  0  0.101666  0.126748  0  1.012649  0
H  H11  1  0.22971926  0.25202106  0.24461933  1  0  0.116215  0  0.953944  0  0  0.128804  0  1.011757  0  0  0.131722  0  1.010699  0  0.099725  0  0.101653  0.126699  0  1.012651  0
H  H12  1  0.45909452  0.79598631  0.78185863  1  0  0.115581  0  0.961004  0  0  0.128207  0  1.019562  0  0  0.130982  0  1.018586  0  0.09273  0  0.098767  0.126407  0  1.020133  0
H  H13  1  0.54090514  0.20400614  0.21813992  1  0  0.115442  0  0.961166  0  0  0.128089  0  1.019708  0  0  0.130861  0  1.018731  0  0.092338  0  0.098726  0.126292  0  1.020271  0
H  H14  1  0.38908004  0.06415745  0.84142919  1  0  0.10738  0  1.012661  0  0  0.116578  0  1.082945  0  0  0.120021  0  1.081058  0  0.132768  0  0.087277  0.114224  0  1.084363  0
H  H15  1  0.61092061  0.93583716  0.15856869  1  0  0.107417  0  1.012669  0  0  0.116649  0  1.0829  0  0  0.12007  0  1.081041  0  0.13279  0  0.087286  0.114295  0  1.084319  0
H  H16  1  0.62291206  0.32235270  0.69409878  1  0  0.115977  0  0.97264  0  0  0.127615  0  1.036599  0  0  0.130713  0  1.035152  0  0.090227  0  0.096073  0.125533  0  1.037628  0
H  H17  1  0.37708462  0.67764840  0.30590207  1  0  0.115976  0  0.972621  0  0  0.127613  0  1.036583  0  0  0.130707  0  1.035143  0  0.090266  0  0.09608  0.125534  0  1.037618  0
H  H18  1  0.89921643  0.16825316  0.65856890  1  0  0.10859  0  0.963194  0  0  0.120264  0  1.025844  0  0  0.122855  0  1.025278  0  0.095624  0  0.098693  0.118375  0  1.026497  0
H  H19  1  0.10077935  0.83174469  0.34143262  1  0  0.108553  0  0.963195  0  0  0.120259  0  1.025818  0  0  0.12285  0  1.025252  0  0.096509  0  0.098679  0.118367  0  1.026469  0
H  H20  1  0.84745454  0.91221970  0.60289163  1  0  0.108732  0  0.96928  0  0  0.123844  0  1.024424  0  0  0.125968  0  1.024915  0  0.107172  0  0.104407  0.12226  0  1.024292  0
H  H21  1  0.15254008  0.08777815  0.39710780  1  0  0.108814  0  0.969158  0  0  0.123893  0  1.024344  0  0  0.126017  0  1.024833  0  0.107162  0  0.104432  0.122308  0  1.024212  0
H  H22  1  0.53923132  0.90858650  0.60227150  1  0  0.114059  0  0.975459  0  0  0.127686  0  1.034337  0  0  0.129918  0  1.034948  0  0.122015  0  0.103463  0.126146  0  1.03397  0
H  H23  1  0.46076412  0.09141568  0.39772560  1  0  0.113962  0  0.97553  0  0  0.12762  0  1.034378  0  0  0.129852  0  1.034989  0  0.121887  0  0.10344  0.12608  0  1.034009  0
H  H24  1  0.58560138  0.30309876  0.84178616  1  0  0.137106  0  0.94935  0  0  0.144428  0  1.017683  0  0  0.147391  0  1.01552  0  0.137027  0  0.107473  0.142142  0  1.019573  0
H  H25  1  0.41438704  0.69690449  0.15821754  1  0  0.137147  0  0.949242  0  0  0.144427  0  1.017612  0  0  0.147388  0  1.015454  0  0.136802  0  0.107469  0.142148  0  1.019498  0
H  H26  1  0.78572625  0.25001702  0.84343947  1  0  0.140541  0  0.951453  0  0  0.14623  0  1.019602  0  0  0.149198  0  1.01826  0  0.146176  0  0.101172  0.144027  0  1.020867  0
H  H27  1  0.21427316  0.74997867  0.15656234  1  0  0.140521  0  0.951499  0  0  0.146196  0  1.019653  0  0  0.149177  0  1.018295  0  0.146369  0  0.101169  0.143996  0  1.020917  0
H  H28  1  0.57489854  0.25095584  0.52690805  1  0  0.093709  0  0.981155  0  0  0.106807  0  1.039248  0  0  0.108464  0  1.040727  0  0.068871  0  0.099615  0.105662  0  1.038176  0
H  H29  1  0.42510368  0.74903337  0.47309252  1  0  0.09363  0  0.981318  0  0  0.106762  0  1.039374  0  0  0.108418  0  1.040857  0  0.068806  0  0.099597  0.105619  0  1.038296  0
H  H30  1  0.57410505  0.36402274  0.40257144  1  0  0.08993  0  0.960639  0  0  0.099386  0  1.023722  0  0  0.101437  0  1.024407  0  0.092385  0  0.098549  0.097897  0  1.023412  0
H  H31  1  0.42589618  0.63596431  0.59742979  1  0  0.08996  0  0.960607  0  0  0.099417  0  1.023695  0  0  0.101474  0  1.024358  0  0.092488  0  0.098555  0.097931  0  1.023373  0
H  H32  1  0.32469025  0.45844286  0.36510572  1  0  0.088849  0  0.961103  0  0  0.098285  0  1.024497  0  0  0.101323  0  1.022798  0  0.087794  0  0.096655  0.096026  0  1.025791  0
H  H33  1  0.67531733  0.54155175  0.63489434  1  0  0.08886  0  0.961048  0  0  0.098276  0  1.024469  0  0  0.101311  0  1.022774  0  0.087762  0  0.096662  0.096002  0  1.025777  0
H  H34  1  0.07950167  0.44943385  0.45449566  1  0  0.08133  0  0.984007  0  0  0.093489  0  1.046179  0  0  0.095635  0  1.045786  0  0.060839  0  0.097148  0.09191  0  1.046552  0
H  H35  1  0.92049789  0.55057480  0.54550486  1  0  0.081331  0  0.984005  0  0  0.0935  0  1.04616  0  0  0.095639  0  1.045775  0  0.060832  0  0.097152  0.091921  0  1.046532  0
H  H36  1  0.07930887  0.34116261  0.58100063  1  0  0.081493  0  0.977137  0  0  0.089577  0  1.047975  0  0  0.092481  0  1.046368  0  0.075482  0  0.091634  0.087349  0  1.049471  0
H  H37  1  0.92070061  0.65883740  0.41900030  1  0  0.081516  0  0.977076  0  0  0.08957  0  1.047963  0  0  0.092476  0  1.046356  0  0.075373  0  0.091624  0.087341  0  1.049461  0
H  H38  1  0.23319165  0.05408322  0.52092417  1  0  0.088222  0  0.994493  0  0  0.100285  0  1.055411  0  0  0.101937  0  1.056663  0  0.084451  0  0.096784  0.098825  0  1.055173  0
H  H39  1  0.76681097  0.94591571  0.47907678  1  0  0.088214  0  0.994535  0  0  0.10027  0  1.055459  0  0  0.101922  0  1.056712  0  0.084373  0  0.096761  0.098811  0  1.055221  0
H  H40  1  0.12786167  0.81950437  0.50576238  1  0  0.089696  0  0.954118  0  0  0.10428  0  1.008264  0  0  0.106522  0  1.008464  0  0.048421  0  0.099358  0.102735  0  1.008179  0
H  H41  1  0.87213865  0.18049456  0.49423931  1  0  0.089704  0  0.954087  0  0  0.104296  0  1.00823  0  0  0.106538  0  1.008429  0  0.048391  0  0.099362  0.102751  0  1.008143  0
H  H42  1  0.07395040  0.65112481  0.61589225  1  0  0.077998  0  0.989744  0  0  0.082785  0  1.06369  0  0  0.085368  0  1.062701  0  0.073321  0  0.088236  0.080937  0  1.064524  0
H  H43  1  0.92604743  0.34887628  0.38410742  1  0  0.077951  0  0.989817  0  0  0.08276  0  1.063734  0  0  0.085344  0  1.062748  0  0.073331  0  0.088234  0.080914  0  1.064566  0
H  H44  1  0.12218930  0.72138406  0.73807126  1  0  0.079244  0  0.996945  0  0  0.085321  0  1.068926  0  0  0.087873  0  1.068438  0  0.092491  0  0.087086  0.083386  0  1.069526  0
H  H45  1  0.87781465  0.27861271  0.26192578  1  0  0.079233  0  0.997087  0  0  0.085291  0  1.069083  0  0  0.087841  0  1.068601  0  0.092504  0  0.087093  0.083361  0  1.069675  0
H  H46  1  0.22230266  0.96110538  0.75465193  1  0  0.086338  0  0.982915  0  0  0.097729  0  1.047405  0  0  0.100383  0  1.046136  0  0.106589  0  0.091508  0.09571  0  1.048588  0
H  H47  1  0.77770501  0.03888815  0.24534869  1  0  0.086311  0  0.98293  0  0  0.097727  0  1.047383  0  0  0.100382  0  1.046113  0  0.106316  0  0.091501  0.095697  0  1.048592  0
H  H48  1  0.84927738  0.07703843  0.96732990  1  0  0.160154  0  0.95065  0  0  0.175132  0  1.013768  0  0  0.177894  0  1.012565  0  0.094086  0  0.101515  0.173066  0  1.014695  0
H  H49  1  0.15072706  0.92296699  0.03267246  1  0  0.160189  0  0.950598  0  0  0.175118  0  1.013776  0  0  0.177881  0  1.012572  0  0.094104  0  0.101523  0.173053  0  1.0147  0
H  H50  1  0.67668404  0.97635447  0.97857393  1  0  0.183807  0  0.943244  0  0  0.200222  0  0.996474  0  0  0.203695  0  0.99534  0  0.154074  0  0.115483  0.197741  0  0.997334  0
H  H51  1  0.32331884  0.02364122  0.02143033  1  0  0.18385  0  0.943254  0  0  0.200247  0  0.996501  0  0  0.203719  0  0.995367  0  0.154024  0  0.115478  0.197764  0  0.997365  0
H  H52  1  0.71112122  0.08487202  0.05316815  1  0  0.169375  0  0.931378  0  0  0.188539  0  0.985955  0  0  0.190624  0  0.985975  0  0.138898  0  0.114046  0.186935  0  0.986145  0
H  H53  1  0.28888380  0.91512583  0.94683153  1  0  0.169366  0  0.93135  0  0  0.18855  0  0.985902  0  0  0.190636  0  0.985921  0  0.139089  0  0.114041  0.186947  0  0.986093  0
H  H54  1  0.96444140  0.54146316  0.86008859  1  0  0.349399  0  0.920863  0  0  0.326777  0  0.999415  0  0  0.336225  0  0.987681  0  0.607835  0  0.279164  0.32004  0  1.007615  0
H  H55  1  0.03556081  0.45854117  0.13991232  1  0  0.349348  0  0.920927  0  0  0.326719  0  0.999496  0  0  0.33617  0  0.987757  0  0.60781  0  0.279138  0.319983  0  1.007695  0
H  H56  1  0.93236807  0.79499023  0.88275594  1  0  0.075148  0  0.961665  0  0  0.096025  0  1.021949  0  0  0.096626  0  1.022595  0  0.043973  0  0.092825  0.095669  0  1.021  0
H  H57  1  0.06763546  0.20501195  0.11724324  1  0  0.07513  0  0.961689  0  0  0.096007  0  1.02197  0  0  0.096607  0  1.022618  0  0.043876  0  0.092811  0.095651  0  1.021022  0
H  H58  1  0.13247375  0.73056701  0.85823615  1  0  0.073063  0  0.957545  0  0  0.088012  0  1.02861  0  0  0.089051  0  1.027677  0  0.043778  0  0.088998  0.087161  0  1.029303  0
H  H59  1  0.86753077  0.26943733  0.14176184  1  0  0.073062  0  0.957547  0  0  0.088003  0  1.028613  0  0  0.089045  0  1.027673  0  0.043832  0  0.089019  0.087155  0  1.029303  0
H  H60  1  0.04877683  0.75548952  0.95343745  1  0  0.071874  0  0.963231  0  0  0.088342  0  1.034096  0  0  0.088795  0  1.034335  0  0.044431  0  0.097735  0.087918  0  1.033845  0
H  H61  1  0.95122157  0.24451914  0.04656206  1  0  0.0719  0  0.963221  0  0  0.088303  0  1.034139  0  0  0.088757  0  1.034376  0  0.044435  0  0.097751  0.087884  0  1.033887  0
C  C62  1  0.64697257  0.07237349  0.83162956  1  0  0.080644  0  3.757978  0  0  0.091792  0  4.011875  0  0  0.089032  0  4.036057  0  -0.11664  0  -0.082205  0.092966  0  3.996072  0
C  C63  1  0.35302279  0.92762976  0.16836973  1  0  0.080581  0  3.758064  0  0  0.091751  0  4.011913  0  0  0.088989  0  4.036094  0  -0.116261  0  -0.082273  0.092933  0  3.996106  0
C  C64  1  0.77181730  0.96823891  0.80366368  1  0  -0.164289  0  3.704075  0  0  -0.196705  0  3.973354  0  0  -0.201645  0  3.992427  0  -0.188782  0  -0.155911  -0.194155  0  3.960943  0
C  C65  1  0.22817764  0.03176975  0.19633557  1  0  -0.164286  0  3.704061  0  0  -0.196705  0  3.973314  0  0  -0.201653  0  3.992395  0  -0.18871  0  -0.155789  -0.194152  0  3.960897  0
C  C66  1  0.70608816  0.84379704  0.78074167  1  0  -0.092185  0  3.706702  0  0  -0.119143  0  3.973978  0  0  -0.122171  0  3.99166  0  -0.110428  0  -0.14696  -0.117714  0  3.9627  0
C  C67  1  0.29391050  0.15620837  0.21925459  1  0  -0.092024  0  3.706666  0  0  -0.118971  0  3.973943  0  0  -0.121996  0  3.991623  0  -0.110583  0  -0.146948  -0.117541  0  3.962661  0
C  C68  1  0.54090937  0.86987876  0.79461319  1  0  -0.100672  0  3.708886  0  0  -0.128236  0  3.979608  0  0  -0.131233  0  3.996992  0  -0.153396  0  -0.151206  -0.126864  0  3.968207  0
C  C69  1  0.45908996  0.13011801  0.20538368  1  0  -0.100576  0  3.708977  0  0  -0.128158  0  3.979726  0  0  -0.13115  0  3.997101  0  -0.153066  0  -0.15116  -0.126783  0  3.968321  0
C  C70  1  0.50411580  0.01054526  0.82610594  1  0  -0.166424  0  3.703433  0  0  -0.202647  0  3.978865  0  0  -0.207357  0  3.99705  0  -0.15058  0  -0.160204  -0.20009  0  3.966813  0
C  C71  1  0.49588452  0.98945367  0.17389191  1  0  -0.166463  0  3.703527  0  0  -0.202723  0  3.97897  0  0  -0.207411  0  3.997166  0  -0.150789  0  -0.160245  -0.200158  0  3.966896  0
C  C72  1  0.52337229  0.13160456  0.65041213  1  0  -0.142002  0  3.772171  0  0  -0.119265  0  4.043954  0  0  -0.125157  0  4.062203  0  -0.681166  0  -0.091972  -0.115742  0  4.031348  0
C  C73  1  0.47662712  0.86839113  0.34959077  1  0  -0.141992  0  3.772125  0  0  -0.119263  0  4.043935  0  0  -0.125155  0  4.062183  0  -0.68122  0  -0.091908  -0.115736  0  4.031323  0
C  C74  1  0.64251226  0.21678016  0.66859322  1  0  -0.123944  0  3.702954  0  0  -0.161357  0  3.978466  0  0  -0.16365  0  3.995189  0  -0.125136  0  -0.154015  -0.159949  0  3.966575  0
C  C75  1  0.35748352  0.78321769  0.33140941  1  0  -0.123993  0  3.703034  0  0  -0.161405  0  3.978557  0  0  -0.163697  0  3.995276  0  -0.125217  0  -0.154026  -0.160003  0  3.966669  0
C  C76  1  0.78822349  0.13537605  0.64894625  1  0  -0.104865  0  3.709512  0  0  -0.131613  0  3.981391  0  0  -0.134535  0  3.998  0  -0.144361  0  -0.153758  -0.130332  0  3.970168  0
C  C77  1  0.21177336  0.86462288  0.35105353  1  0  -0.104829  0  3.709611  0  0  -0.131593  0  3.981478  0  0  -0.134513  0  3.998085  0  -0.145262  0  -0.153751  -0.130304  0  3.970246  0
C  C78  1  0.76038321  0.99964674  0.61973709  1  0  -0.103087  0  3.721533  0  0  -0.130468  0  3.991935  0  0  -0.13277  0  4.007519  0  -0.13238  0  -0.152448  -0.129397  0  3.981558  0
C  C79  1  0.23961363  0.00035219  0.38026433  1  0  -0.103194  0  3.721436  0  0  -0.130558  0  3.991867  0  0  -0.132858  0  4.007447  0  -0.132402  0  -0.152473  -0.129483  0  3.981484  0
C  C80  1  0.59764639  0.99678058  0.62026690  1  0  -0.124859  0  3.70444  0  0  -0.161055  0  3.97864  0  0  -0.162335  0  3.993546  0  -0.169566  0  -0.151546  -0.160947  0  3.968757  0
C  C81  1  0.40234724  0.00321511  0.37973702  1  0  -0.124735  0  3.704378  0  0  -0.160944  0  3.978559  0  0  -0.162221  0  3.993464  0  -0.169269  0  -0.151492  -0.160831  0  3.968668  0
C  C82  1  0.66663073  0.21782377  0.85960287  1  0  -0.32699  0  3.627957  0  0  -0.35687  0  3.861366  0  0  -0.360905  0  3.869495  0  -0.246041  0  -0.14609  -0.354171  0  3.856477  0
C  C83  1  0.33336455  0.78218056  0.14039860  1  0  -0.327112  0  3.627984  0  0  -0.356896  0  3.861286  0  0  -0.360941  0  3.869399  0  -0.245974  0  -0.146115  -0.354207  0  3.856402  0
C  C84  1  0.32715783  0.28625724  0.56194503  1  0  -0.093861  0  3.74541  0  0  -0.055752  0  3.979787  0  0  -0.06115  0  4.005412  0  -0.522279  0  -0.024991  -0.052339  0  3.963142  0
C  C85  1  0.67284595  0.71374169  0.43805473  1  0  -0.093955  0  3.745463  0  0  -0.055769  0  3.979742  0  0  -0.061167  0  4.005367  0  -0.522427  0  -0.025052  -0.052356  0  3.963097  0
C  C86  1  0.46603614  0.29502641  0.51161331  1  0  -0.065422  0  3.722417  0  0  -0.085051  0  3.959576  0  0  -0.085605  0  3.981321  0  -0.014302  0  -0.080839  -0.084582  0  3.944911  0
C  C87  1  0.53396815  0.70496604  0.48838815  1  0  -0.065262  0  3.722521  0  0  -0.084925  0  3.959625  0  0  -0.085479  0  3.98137  0  -0.014125  0  -0.080777  -0.084456  0  3.944961  0
C  C88  1  0.46548916  0.35837793  0.44135410  1  0  -0.062786  0  3.750327  0  0  -0.072713  0  3.994359  0  0  -0.075273  0  4.01551  0  -0.108976  0  -0.086033  -0.071002  0  3.979884  0
C  C89  1  0.53451281  0.64161452  0.55864700  1  0  -0.062969  0  3.750497  0  0  -0.072918  0  3.994562  0  0  -0.075474  0  4.015717  0  -0.10888  0  -0.086114  -0.071204  0  3.980088  0
C  C90  1  0.32610960  0.41224832  0.42055805  1  0  -0.047582  0  3.73285  0  0  -0.060318  0  3.974182  0  0  -0.060682  0  3.99418  0  0.011171  0  -0.082262  -0.059737  0  3.960203  0
C  C91  1  0.67388857  0.58774845  0.57944384  1  0  -0.047486  0  3.732723  0  0  -0.060195  0  3.974042  0  0  -0.06056  0  3.994041  0  0.011073  0  -0.082265  -0.059605  0  3.96007  0
C  C92  1  0.18780690  0.40663701  0.47102443  1  0  -0.077021  0  3.76745  0  0  -0.086512  0  4.008226  0  0  -0.089708  0  4.031076  0  -0.103432  0  -0.093011  -0.084368  0  3.992628  0
C  C93  1  0.81219119  0.59336085  0.52897527  1  0  -0.077062  0  3.767422  0  0  -0.086559  0  4.008192  0  0  -0.089751  0  4.031045  0  -0.103329  0  -0.092992  -0.084412  0  3.992588  0
C  C94  1  0.18766778  0.34524092  0.54172788  1  0  -0.088496  0  3.76776  0  0  -0.106754  0  4.011217  0  0  -0.108127  0  4.033246  0  -0.02223  0  -0.088918  -0.105886  0  3.997227  0
C  C95  1  0.81233501  0.65475586  0.45827145  1  0  -0.088484  0  3.767795  0  0  -0.106752  0  4.011247  0  0  -0.108127  0  4.033271  0  -0.022199  0  -0.088871  -0.105883  0  3.997257  0
C  C96  1  0.23547359  0.02291199  0.63856187  1  0  -0.091762  0  3.748659  0  0  -0.05228  0  3.982461  0  0  -0.058093  0  4.008591  0  -0.48403  0  -0.023954  -0.048427  0  3.964485  0
C  C97  1  0.76451698  0.97709343  0.36143888  1  0  -0.091623  0  3.748456  0  0  -0.052164  0  3.982286  0  0  -0.057972  0  4.008404  0  -0.483982  0  -0.023929  -0.048318  0  3.964323  0
C  C98  1  0.20748071  0.98251893  0.56887948  1  0  -0.073733  0  3.733614  0  0  -0.09424  0  3.972442  0  0  -0.094809  0  3.994088  0  -0.126223  0  -0.085631  -0.093102  0  3.957241  0
C  C99  1  0.79251845  0.01748001  0.43112120  1  0  -0.073737  0  3.733517  0  0  -0.094222  0  3.972335  0  0  -0.09479  0  3.993983  0  -0.126324  0  -0.085594  -0.093081  0  3.957136  0
C  C100  1  0.14856969  0.84954016  0.56045372  1  0  -0.070457  0  3.760352  0  0  -0.078573  0  4.001688  0  0  -0.080934  0  4.021614  0  -0.004279  0  -0.089132  -0.076887  0  3.987438  0
C  C101  1  0.85143310  0.15045661  0.43954670  1  0  -0.070562  0  3.760345  0  0  -0.078691  0  4.001682  0  0  -0.081054  0  4.021609  0  -0.004255  0  -0.089178  -0.077003  0  3.98743  0
C  C102  1  0.11864023  0.75588385  0.62145856  1  0  -0.061761  0  3.761067  0  0  -0.074843  0  4.006308  0  0  -0.075213  0  4.025938  0  -0.031722  0  -0.087277  -0.073774  0  3.992138  0
C  C103  1  0.88136132  0.24411401  0.37854140  1  0  -0.061704  0  3.761066  0  0  -0.074797  0  4.006293  0  0  -0.075169  0  4.025925  0  -0.031714  0  -0.087278  -0.07373  0  3.992125  0
C  C104  1  0.14545142  0.79608786  0.69113103  1  0  -0.066797  0  3.76197  0  0  -0.076775  0  4.005826  0  0  -0.079778  0  4.027796  0  -0.097928  0  -0.091451  -0.074893  0  3.990859  0
C  C105  1  0.85455220  0.20391323  0.30886762  1  0  -0.066734  0  3.762074  0  0  -0.076701  0  4.005942  0  0  -0.079706  0  4.027914  0  -0.098024  0  -0.091416  -0.074819  0  3.990972  0
C  C106  1  0.20284079  0.92929998  0.70008198  1  0  -0.075129  0  3.734694  0  0  -0.093186  0  3.973193  0  0  -0.094162  0  3.994974  0  -0.043849  0  -0.084776  -0.092473  0  3.958618  0
C  C107  1  0.79715688  0.07070327  0.29991877  1  0  -0.07518  0  3.734746  0  0  -0.09325  0  3.973257  0  0  -0.094224  0  3.995034  0  -0.043367  0  -0.084808  -0.092539  0  3.958685  0
C  C108  1  0.72683788  0.07444343  0.99260327  1  0  -0.492165  0  3.535804  0  0  -0.563774  0  3.773434  0  0  -0.570251  0  3.775566  0  -0.293208  0  -0.228601  -0.559007  0  3.772158  0
C  C109  1  0.27316425  0.92556198  0.00739873  1  0  -0.492235  0  3.535754  0  0  -0.563814  0  3.773413  0  0  -0.570288  0  3.775539  0  -0.293405  0  -0.228593  -0.559047  0  3.772137  0
C  C110  1  0.02593197  0.72227859  0.89928036  1  0  -0.040137  0  3.69227  0  0  -0.129682  0  3.957454  0  0  -0.124276  0  3.962001  0  0.38103  0  -0.166333  -0.132816  0  3.953587  0
C  C111  1  0.97407371  0.27772574  0.10071917  1  0  -0.040182  0  3.692339  0  0  -0.129652  0  3.957558  0  0  -0.124248  0  3.962108  0  0.38112  0  -0.166381  -0.132794  0  3.953696  0
S  S112  1  0.62459844  0.22731462  0.95950501  1  0  1.231841  0  5.105226  0  0  1.178368  0  5.602083  0  0  1.214403  0  5.589811  0  2.430763  0  0.473693  1.153331  0  5.610031  0
S  S113  1  0.37539857  0.77268215  0.04049698  1  0  1.232  0  5.105019  0  0  1.178544  0  5.601839  0  0  1.214579  0  5.589563  0  2.430481  0  0.473689  1.15351  0  5.609791  0
Br  Br114  1  0.95081064  0.45420898  0.73733773  1  0  -0.480473  0  1.003812  0  0  -0.410535  0  1.284895  0  0  -0.427376  0  1.262724  0  -0.602736  0  -0.230998  -0.398405  0  1.300842  0
Br  Br115  1  0.04918976  0.54578887  0.26266233  1  0  -0.480469  0  1.003801  0  0  -0.410531  0  1.284883  0  0  -0.427374  0  1.262716  0  -0.602745  0  -0.230986  -0.398403  0  1.300831  0
Br  Br116  1  0.37471955  0.49133833  0.78514498  1  0  -0.524354  0  0.981264  0  0  -0.45974  0  1.257796  0  0  -0.475821  0  1.235711  0  -0.61229  0  -0.263696  -0.448636  0  1.273707  0
Br  Br117  1  0.62528382  0.50866601  0.21484378  1  0  -0.524387  0  0.981209  0  0  -0.459796  0  1.257771  0  0  -0.475873  0  1.235683  0  -0.612268  0  -0.263741  -0.448696  0  1.273686  0
Br  Br118  1  0.10471046  0.16937456  0.86485775  1  0  -0.540397  0  1.011778  0  0  -0.475095  0  1.301167  0  0  -0.4909  0  1.279244  0  -0.628665  0  -0.262401  -0.46407  0  1.315588  0
Br  Br119  1  0.89527648  0.83063302  0.13514326  1  0  -0.540388  0  1.011748  0  0  -0.475066  0  1.30109  0  0  -0.490869  0  1.279168  0  -0.628664  0  -0.262388  -0.464042  0  1.315514  0
O  O120  1  0.45865192  0.21412251  0.98354858  1  0  -0.665677  0  1.921165  0  0  -0.61299  0  2.159613  0  0  -0.633595  0  2.149152  0  -1.32744  0  -0.39116  -0.598388  0  2.166549  0
O  O121  1  0.54136267  0.78588615  0.01645400  1  0  -0.665886  0  1.920671  0  0  -0.613218  0  2.159114  0  0  -0.633826  0  2.148651  0  -1.32722  0  -0.391208  -0.598616  0  2.166052  0
O  O122  1  0.68759780  0.35732351  0.98137645  1  0  -0.676572  0  1.930398  0  0  -0.630953  0  2.179334  0  0  -0.650684  0  2.166325  0  -1.329682  0  -0.42081  -0.61717  0  2.188258  0
O  O123  1  0.31241323  0.64268622  0.01862367  1  0  -0.67648  0  1.93072  0  0  -0.630874  0  2.179663  0  0  -0.650603  0  2.166654  0  -1.329594  0  -0.420712  -0.617093  0  2.188586  0
O  O124  1  0.98299301  0.57568746  0.90831434  1  0  -0.596554  0  2.158499  0  0  -0.536286  0  2.389237  0  0  -0.552363  0  2.378438  0  -1.158779  0  -0.530087  -0.524766  0  2.39596  0
O  O125  1  0.01700441  0.42431904  0.09168693  1  0  -0.59648  0  2.15857  0  0  -0.536201  0  2.389281  0  0  -0.552279  0  2.378481  0  -1.158821  0  -0.530047  -0.524681  0  2.396007  0
