# generated using pymatgen
data_ZnH8C16N3Cl3O4
_symmetry_space_group_name_H-M   'P 1'
_cell_length_a   13.76425687
_cell_length_b   14.23394830
_cell_length_c   15.22102497
_cell_angle_alpha   91.34887669
_cell_angle_beta   90.77664109
_cell_angle_gamma   95.40567270
_symmetry_Int_Tables_number   1
_chemical_formula_structural   ZnH8C16N3Cl3O4
_chemical_formula_sum   'Zn2 H16 C32 N6 Cl6 O8'
_cell_volume   2967.64111267
_cell_formula_units_Z   2
loop_
 _symmetry_equiv_pos_site_id
 _symmetry_equiv_pos_as_xyz
  1  'x, y, z'
loop_
 _atom_site_type_symbol
 _atom_site_label
 _atom_site_symmetry_multiplicity
 _atom_site_fract_x
 _atom_site_fract_y
 _atom_site_fract_z
 _atom_site_occupancy
 _atom_site_pbe_bader_charge
 _atom_site_pbe_bader_spin_density
 _atom_site_pbe_cm5_charge
 _atom_site_pbe_ddec_charge
 _atom_site_pbe_ddec_spin_density
 _atom_site_pbe_ddec_sum_bond_order
 _atom_site_pbe_magmom
Zn  Zn0  1  0.51623673  0.39619065  0.49811912  1  1.315156  0  0.676778  0.878499  0  2.306719  0
Zn  Zn1  1  0.49251432  0.60499976  0.50093796  1  1.311407  0  0.678569  0.875595  0  2.316587  0
H  H2  1  0.54271801  0.35830044  0.05760938  1  0.073506  0  0.09866  0.096612  0  1.008882  0
H  H3  1  0.66215534  0.79124285  0.64294128  1  0.448592  0  0.318253  0.314101  0  0.915153  0
H  H4  1  0.37886268  0.29984057  0.39989875  1  0.523828  0  0.305561  0.329198  0  0.973077  0
H  H5  1  0.33508754  0.18907213  0.36542363  1  0.44702  0  0.316008  0.305982  0  0.929293  0
H  H6  1  0.59392926  0.90705651  0.70227846  1  0.466961  0  0.315646  0.306875  0  0.946464  0
H  H7  1  0.58442307  0.01758486  0.66040855  1  0.434574  0  0.310231  0.31306  0  0.935562  0
H  H8  1  0.43367787  0.98524319  0.32980698  1  0.464216  0  0.316977  0.320167  0  0.92085  0
H  H9  1  0.41840086  0.09633643  0.29282878  1  0.466179  0  0.323892  0.31651  0  0.927528  0
H  H10  1  0.53530750  0.64367852  0.94414509  1  0.071241  0  0.099641  0.09758  0  1.00752  0
H  H11  1  0.54249370  0.35951778  0.22152517  1  0.114739  0  0.102253  0.108559  0  1.003659  0
H  H12  1  0.54420849  0.64291957  0.78137256  1  0.073666  0  0.098459  0.098604  0  1.025707  0
H  H13  1  0.43296946  0.63161983  0.22566243  1  0.077339  0  0.101921  0.106349  0  1.0048  0
H  H14  1  0.45738528  0.34516841  0.77099507  1  0.086155  0  0.105683  0.111256  0  0.996301  0
H  H15  1  0.42960705  0.63054225  0.06167023  1  0.078507  0  0.099616  0.097924  0  1.005239  0
H  H16  1  0.44336865  0.34566861  0.93411589  1  0.059092  0  0.099591  0.097348  0  1.006675  0
H  H17  1  0.58366554  0.68943255  0.63822123  1  0.516135  0  0.300419  0.3225  0  0.996738  0
C  C18  1  0.49206646  0.49619914  0.33148979  1  1.544863  0  0.214949  0.594932  0  4.163219  0
C  C19  1  0.59600063  0.20650445  0.52642389  1  0.560803  0  0.100388  0.175775  0  4.164182  0
C  C20  1  0.53535798  0.80296900  0.57594458  1  1.02326  0  0.226464  0.361881  0  4.024568  0
C  C21  1  0.46454379  0.19503549  0.42986209  1  1.039974  0  0.230669  0.362559  0  4.028306  0
C  C22  1  0.53934737  0.90412144  0.57816907  1  0.514283  0  0.106192  0.146671  0  4.011065  0
C  C23  1  0.47068520  0.09492121  0.41836741  1  0.489355  0  0.107132  0.147103  0  4.020045  0
C  C24  1  0.49319105  0.94980951  0.50851116  1  0.030701  0  -0.018296  -0.044219  0  3.949812  0
C  C25  1  0.51722368  0.04800084  0.48641993  1  0.023935  0  -0.020076  -0.044292  0  3.950845  0
C  C26  1  0.31606403  0.46531201  0.50570166  1  1.696714  0  0.221219  0.664042  0  4.246245  0
C  C27  1  0.68874354  0.55348163  0.49097794  1  1.701538  0  0.217266  0.657664  0  4.251799  0
C  C28  1  0.79434876  0.56539388  0.48865394  1  0.052307  0  -0.023316  -0.116895  0  3.880081  0
C  C29  1  0.51083131  0.49236631  0.66834135  1  1.560709  0  0.219969  0.605491  0  4.148257  0
C  C30  1  0.21069126  0.45783472  0.50043266  1  -0.413163  0  -0.025219  -0.127252  0  3.888638  0
C  C31  1  0.98299204  0.55562191  0.49102961  1  0.173944  0  0.022503  0.106022  0  4.100837  0
C  C32  1  0.02238470  0.47020211  0.49339459  1  0.220522  0  0.021255  0.099863  0  4.099906  0
C  C33  1  0.12250142  0.46157585  0.49631918  1  0.224718  0  -0.045386  -0.06301  0  4.170019  0
C  C34  1  0.88286778  0.56387468  0.48902013  1  -0.226365  0  -0.049136  -0.07347  0  4.176422  0
C  C35  1  0.51681824  0.41768897  0.09410897  1  -0.026361  0  -0.093679  -0.138573  0  3.998268  0
C  C36  1  0.51657378  0.57821629  0.90639519  1  -0.101406  0  -0.092895  -0.137248  0  3.991332  0
C  C37  1  0.51770253  0.41823144  0.18542844  1  -0.098371  0  -0.086801  -0.0887  0  3.996854  0
C  C38  1  0.52290190  0.57780303  0.81529786  1  -0.039133  0  -0.087086  -0.086074  0  3.994473  0
C  C39  1  0.48831715  0.49572538  0.23325126  1  0.013462  0  -0.020295  -0.035811  0  3.968795  0
C  C40  1  0.45575063  0.57142239  0.09647450  1  -0.097602  0  -0.092886  -0.137885  0  3.988731  0
C  C41  1  0.50282639  0.49357150  0.76609550  1  -0.005922  0  -0.020095  -0.039579  0  3.972488  0
C  C42  1  0.45677051  0.57215232  0.18793805  1  0.043969  0  -0.083654  -0.082303  0  3.981885  0
C  C43  1  0.47443421  0.41003617  0.80983993  1  -0.037382  0  -0.083113  -0.08224  0  3.982943  0
C  C44  1  0.46748629  0.41066402  0.90088105  1  -0.05791  0  -0.091667  -0.13691  0  3.989533  0
C  C45  1  0.48645068  0.49451825  0.04789206  1  -0.110756  0  -0.004705  0.073129  0  4.002933  0
C  C46  1  0.48942304  0.49455434  0.95098116  1  0.074072  0  -0.002746  0.076907  0  3.998077  0
C  C47  1  0.41063642  0.88986005  0.47104647  1  0.071221  0  -0.01836  -0.045397  0  4.035713  0
C  C48  1  0.59797549  0.10947727  0.52595759  1  0.121694  0  -0.023553  -0.055572  0  4.04284  0
C  C49  1  0.40799530  0.79229379  0.47473121  1  0.645072  0  0.105066  0.183435  0  4.142554  0
N  N50  1  0.47600478  0.74913091  0.52010034  1  -1.218714  0  -0.333551  -0.35026  0  3.464466  0
N  N51  1  0.52340514  0.24891213  0.48600773  1  -1.201781  0  -0.336309  -0.358496  0  3.453207  0
N  N52  1  0.59207072  0.76198563  0.63612844  1  -1.251096  0  -0.583617  -0.63223  0  3.299017  0
N  N53  1  0.39536547  0.23367182  0.38066711  1  -1.238019  0  -0.575833  -0.605956  0  3.279155  0
N  N54  1  0.58807916  0.94772510  0.64894032  1  -1.221344  0  -0.582134  -0.576307  0  3.43312  0
N  N55  1  0.42631051  0.05386546  0.34446322  1  -1.239671  0  -0.577492  -0.577465  0  3.434887  0
Cl  Cl56  1  0.94462497  0.36710190  0.49342533  1  -0.155366  0  0.00164  -0.050573  0  1.449089  0
Cl  Cl57  1  0.06098884  0.65860961  0.49100262  1  -0.16205  0  1.5e-05  -0.054123  0  1.46289  0
Cl  Cl58  1  0.30190075  0.93529250  0.44513017  1  -0.181896  0  -0.005827  -0.060974  0  1.657269  0
Cl  Cl59  1  0.70979773  0.06655203  0.54499487  1  -0.177278  0  -0.007426  -0.059857  0  1.640411  0
Cl  Cl60  1  0.31471443  0.72113993  0.42485791  1  -0.147892  0  0.016484  -0.043459  0  1.655116  0
Cl  Cl61  1  0.68860615  0.27923349  0.57515460  1  -0.149693  0  0.015828  -0.03963  0  1.643443  0
O  O62  1  0.51757468  0.42185661  0.36692434  1  -1.171193  0  -0.318599  -0.549401  0  2.353127  0
O  O63  1  0.53080122  0.57111159  0.63072463  1  -1.197167  0  -0.315543  -0.570713  0  2.3855  0
O  O64  1  0.46951618  0.57035795  0.37208285  1  -1.167837  0  -0.32041  -0.558805  0  2.363629  0
O  O65  1  0.49686599  0.41253536  0.62839915  1  -1.155064  0  -0.313364  -0.541232  0  2.342531  0
O  O66  1  0.35943920  0.39370665  0.48224473  1  -1.169986  0  -0.308519  -0.559133  0  2.28466  0
O  O67  1  0.64232701  0.62587733  0.48116993  1  -1.148417  0  -0.31772  -0.541684  0  2.24042  0
O  O68  1  0.35570437  0.54465865  0.53365518  1  -1.140362  0  -0.307012  -0.537556  0  2.311444  0
O  O69  1  0.65400664  0.46922792  0.50379603  1  -1.146231  0  -0.308879  -0.548911  0  2.352443  0
