# generated using pymatgen
data_ZnH10C24N5O8
_symmetry_space_group_name_H-M   'P 1'
_cell_length_a   13.89936930
_cell_length_b   15.25176331
_cell_length_c   19.46449075
_cell_angle_alpha   89.53774572
_cell_angle_beta   89.98534789
_cell_angle_gamma   89.94796208
_symmetry_Int_Tables_number   1
_chemical_formula_structural   ZnH10C24N5O8
_chemical_formula_sum   'Zn2 H20 C48 N10 O16'
_cell_volume   4126.13914599
_cell_formula_units_Z   2
loop_
 _symmetry_equiv_pos_site_id
 _symmetry_equiv_pos_as_xyz
  1  'x, y, z'
loop_
 _atom_site_type_symbol
 _atom_site_label
 _atom_site_symmetry_multiplicity
 _atom_site_fract_x
 _atom_site_fract_y
 _atom_site_fract_z
 _atom_site_occupancy
 _atom_site_pbe_bader_charge
 _atom_site_pbe_bader_spin_density
 _atom_site_pbe_cm5_charge
 _atom_site_pbe_ddec_charge
 _atom_site_pbe_ddec_spin_density
 _atom_site_pbe_ddec_sum_bond_order
 _atom_site_pbe_magmom
Zn  Zn0  1  0.39796105  0.50001167  0.50017683  1  1.277157  0  0.668101  0.819755  0  2.425513  0
Zn  Zn1  1  0.60203882  0.49998552  0.49982619  1  1.260546  0  0.668062  0.819684  0  2.425586  0
H  H2  1  0.34515136  0.49845409  0.27864196  1  0.154028  0  0.124456  0.140835  0  0.983582  0
H  H3  1  0.65485139  0.50154834  0.72136105  1  0.153978  0  0.124457  0.140859  0  0.983533  0
H  H4  1  0.34518224  0.49773323  0.72148366  1  0.157272  0  0.124263  0.140433  0  0.985597  0
H  H5  1  0.65481907  0.50226593  0.27851730  1  0.156922  0  0.124269  0.1404  0  0.985601  0
H  H6  1  0.34667292  0.77759834  0.51252632  1  0.099665  0  0.102589  0.109691  0  1.008277  0
H  H7  1  0.65332767  0.22240017  0.48747362  1  0.099684  0  0.102604  0.109725  0  1.00823  0
H  H8  1  0.25692411  0.91876843  0.52124620  1  0.056793  0  0.102403  0.104111  0  0.993678  0
H  H9  1  0.74307432  0.08123205  0.47875477  1  0.056946  0  0.102395  0.104069  0  0.99372  0
H  H10  1  0.25688266  0.08102510  0.52125315  1  0.056058  0  0.10168  0.103208  0  0.994528  0
H  H11  1  0.74311578  0.91897405  0.47875039  1  0.056088  0  0.101698  0.103223  0  0.994519  0
H  H12  1  0.24681285  0.59630988  0.42438294  1  0.132449  0  0.131295  0.110408  0  0.971496  0
H  H13  1  0.75318774  0.40369191  0.57561750  1  0.132457  0  0.131307  0.110433  0  0.971489  0
H  H14  1  0.24701866  0.40377722  0.57559373  1  0.115109  0  0.13018  0.108648  0  0.974007  0
H  H15  1  0.75298265  0.59622064  0.42440518  1  0.115142  0  0.130186  0.10867  0  0.974032  0
H  H16  1  0.08914149  0.34237519  0.62497799  1  0.100371  0  0.118341  0.121883  0  0.971803  0
H  H17  1  0.91085838  0.65762660  0.37502194  1  0.100337  0  0.118347  0.121916  0  0.97178  0
H  H18  1  0.08888514  0.65756898  0.37495722  1  0.103904  0  0.119688  0.12403  0  0.969803  0
H  H19  1  0.91111545  0.34243281  0.62504322  1  0.103927  0  0.119673  0.124023  0  0.969793  0
H  H20  1  0.65338581  0.77773796  0.48716023  1  0.098206  0  0.101341  0.107327  0  1.012042  0
H  H21  1  0.34661550  0.22226382  0.51284124  1  0.098187  0  0.101364  0.107377  0  1.012057  0
C  C22  1  0.49997731  0.32926626  0.50100939  1  1.489908  0  0.216232  0.597988  0  4.157659  0
C  C23  1  0.50002472  0.67073356  0.49899158  1  1.489712  0  0.216155  0.597873  0  4.157698  0
C  C24  1  0.50014047  0.50118681  0.36474411  1  1.55964  0  0.217586  0.589567  0  4.180213  0
C  C25  1  0.49985797  0.49880842  0.63525585  1  1.559695  0  0.21765  0.589614  0  4.1803  0
C  C26  1  0.41330175  0.49961453  0.25117977  1  0.075117  0  -0.056329  -0.113493  0  3.900463  0
C  C27  1  0.58669956  0.50038464  0.74882120  1  0.075166  0  -0.056308  -0.113476  0  3.900588  0
C  C28  1  0.41334837  0.49837856  0.74890879  1  0.080847  0  -0.056326  -0.113653  0  3.901683  0
C  C29  1  0.58665366  0.50161668  0.25109065  1  0.08113  0  -0.056245  -0.113458  0  3.901463  0
C  C30  1  0.41452913  0.49798212  0.17980538  1  0.126149  0  0.092998  0.056571  0  3.892553  0
C  C31  1  0.58547291  0.50201705  0.82019559  1  0.125857  0  0.093026  0.056697  0  3.892538  0
C  C32  1  0.41467652  0.49671483  0.82029061  1  0.119331  0  0.092586  0.057343  0  3.891007  0
C  C33  1  0.58532551  0.50328107  0.17970883  1  0.119281  0  0.092462  0.057168  0  3.890968  0
C  C34  1  0.49990590  0.50056411  0.14141144  1  0.109842  0  0.027558  -0.040856  0  3.929185  0
C  C35  1  0.50009613  0.49943375  0.85858902  1  0.109807  0  0.027566  -0.040821  0  3.929099  0
C  C36  1  0.49998517  0.50074348  0.28730796  1  0.049501  0  0.002188  0.01205  0  3.927285  0
C  C37  1  0.50001902  0.49925240  0.71269250  1  0.04943  0  0.002178  0.011986  0  3.927582  0
C  C38  1  0.50004556  0.49967183  0.93476826  1  1.108703  0  0.249508  0.253505  0  4.038814  0
C  C39  1  0.49995287  0.50032604  0.06523066  1  1.108728  0  0.24955  0.25364  0  4.038648  0
C  C40  1  0.58666787  0.81469257  0.49240648  1  -0.002275  0  -0.083801  -0.144988  0  3.939544  0
C  C41  1  0.41333128  0.18530791  0.50759397  1  -0.002281  0  -0.083813  -0.145032  0  3.93954  0
C  C42  1  0.49996409  0.76894295  0.49933802  1  -0.062473  0  -0.022089  -0.030647  0  4.012393  0
C  C43  1  0.50003506  0.23105753  0.50066140  1  -0.062494  0  -0.022145  -0.030682  0  4.012427  0
C  C44  1  0.41328755  0.81460910  0.50682782  1  0.003867  0  -0.083272  -0.144814  0  3.937564  0
C  C45  1  0.58671160  0.18539007  0.49317263  1  0.003874  0  -0.083295  -0.144887  0  3.937486  0
C  C46  1  0.41158486  0.90648721  0.50748088  1  0.000707  0  -0.007912  0.076452  0  4.04671  0
C  C47  1  0.58841357  0.09351196  0.49252112  1  0.000702  0  -0.007896  0.076523  0  4.046727  0
C  C48  1  0.49998673  0.95345329  0.49990562  1  -0.081233  0  0.005548  0.005696  0  3.910419  0
C  C49  1  0.50001170  0.04654784  0.50009688  1  0.077815  0  0.005558  0.005701  0  3.910425  0
C  C50  1  0.58840163  0.90656389  0.49224223  1  -0.003093  0  -0.007776  0.077099  0  4.046447  0
C  C51  1  0.41159824  0.09343592  0.50776079  1  -0.003034  0  -0.007795  0.07707  0  4.046439  0
C  C52  1  0.32399464  0.95519005  0.51528073  1  0.039895  0  -0.091121  -0.133435  0  4.025598  0
C  C53  1  0.67600451  0.04480976  0.48472332  1  0.039746  0  -0.091105  -0.133388  0  4.025625  0
C  C54  1  0.32400119  0.04468157  0.51534389  1  -0.133043  0  -0.092012  -0.134669  0  4.025926  0
C  C55  1  0.67599868  0.95532021  0.48466015  1  -0.13302  0  -0.092014  -0.134669  0  4.025874  0
C  C56  1  0.20264448  0.55432855  0.45728881  1  0.458718  0  0.065412  0.049343  0  3.861325  0
C  C57  1  0.79735899  0.44567061  0.54271267  1  0.458663  0  0.065329  0.049222  0  3.86133  0
C  C58  1  0.20272332  0.44571771  0.54269330  1  0.472876  0  0.064793  0.050052  0  3.863995  0
C  C59  1  0.79727799  0.55428278  0.45730561  1  0.472808  0  0.06477  0.049943  0  3.863974  0
C  C60  1  0.10199316  0.44273036  0.54511361  1  0.062736  0  0.004647  0.03868  0  4.038554  0
C  C61  1  0.89800815  0.55726882  0.45488428  1  0.062701  0  0.004646  0.038762  0  4.038501  0
C  C62  1  0.10190078  0.55726413  0.45485573  1  0.037127  0  0.005079  0.041364  0  4.033742  0
C  C63  1  0.89809981  0.44273570  0.54514369  1  0.03706  0  0.005105  0.041482  0  4.033684  0
C  C64  1  0.05091228  0.49999872  0.49998745  1  -0.047903  0  0.017489  0.022797  0  3.932535  0
C  C65  1  0.94908688  0.50000111  0.50001095  1  0.115185  0  0.017494  0.022815  0  3.932434  0
C  C66  1  0.04928498  0.38566113  0.59033292  1  0.027188  0  -0.07103  -0.110686  0  3.973821  0
C  C67  1  0.95071633  0.61433870  0.40966650  1  0.027237  0  -0.071052  -0.110806  0  3.973814  0
C  C68  1  0.04909051  0.61432292  0.40962810  1  -0.146966  0  -0.070444  -0.110016  0  3.969994  0
C  C69  1  0.95091152  0.38567691  0.59037183  1  -0.146943  0  -0.070418  -0.110065  0  3.969916  0
N  N70  1  0.54613184  0.43351241  0.03450469  1  -0.470711  0  -0.149993  -0.130204  0  3.168155  0
N  N71  1  0.45386731  0.56648676  0.96549473  1  -0.470679  0  -0.149945  -0.130157  0  3.168151  0
N  N72  1  0.54621082  0.43315370  0.96670946  1  -0.589369  0  -0.149785  -0.12682  0  3.168357  0
N  N73  1  0.45378978  0.56684416  0.03329048  1  -0.589387  0  -0.149767  -0.126806  0  3.168293  0
N  N74  1  0.25036879  0.50003728  0.50000280  1  -1.235496  0  -0.316653  -0.183899  0  3.56112  0
N  N75  1  0.74963108  0.49996320  0.49999765  1  -1.235299  0  -0.316587  -0.183803  0  3.560895  0
N  N76  1  0.32055371  0.48903190  0.14475898  1  0.422392  0  0.062762  0.513921  0  4.216363  0
N  N77  1  0.67944760  0.51096988  0.85524300  1  0.422686  0  0.062691  0.513745  0  4.216704  0
N  N78  1  0.32075714  0.48693863  0.85548279  1  0.39103  0  0.062232  0.512171  0  4.21845  0
N  N79  1  0.67924776  0.51306120  0.14451663  1  0.390795  0  0.062253  0.512109  0  4.218316  0
O  O80  1  0.41835668  0.36753501  0.50179869  1  -1.164981  0  -0.319948  -0.551378  0  2.337394  0
O  O81  1  0.58164895  0.63246677  0.49820535  1  -1.164884  0  -0.319917  -0.551349  0  2.337316  0
O  O82  1  0.41845251  0.63246674  0.49959094  1  -1.166511  0  -0.319827  -0.551209  0  2.334965  0
O  O83  1  0.58155384  0.36753046  0.50040850  1  -1.166619  0  -0.319842  -0.551266  0  2.334913  0
O  O84  1  0.41836159  0.50094265  0.39385896  1  -1.16189  0  -0.312255  -0.540958  0  2.307429  0
O  O85  1  0.58163756  0.49905457  0.60613688  1  -1.161872  0  -0.312304  -0.540991  0  2.307276  0
O  O86  1  0.41790534  0.49825118  0.60647950  1  -1.164964  0  -0.312433  -0.540361  0  2.310772  0
O  O87  1  0.58209597  0.50174208  0.39352200  1  -1.164897  0  -0.312347  -0.540304  0  2.310379  0
O  O88  1  0.31801064  0.44296699  0.09274284  1  -0.432557  0  -0.114851  -0.300552  0  1.895046  0
O  O89  1  0.25120393  0.52656016  0.17144473  1  -0.43704  0  -0.129389  -0.321342  0  1.855318  0
O  O90  1  0.68199211  0.55703152  0.90725710  1  -0.432575  0  -0.114733  -0.300361  0  1.895323  0
O  O91  1  0.74880169  0.47344296  0.82855263  1  -0.437099  0  -0.12942  -0.321384  0  1.855261  0
O  O92  1  0.31895239  0.44117500  0.90828103  1  -0.423731  0  -0.116159  -0.302255  0  1.896584  0
O  O93  1  0.25075077  0.52311586  0.82814782  1  -0.415004  0  -0.127628  -0.318772  0  1.857413  0
O  O94  1  0.68105539  0.55882811  0.09171838  1  -0.423456  0  -0.116191  -0.302233  0  1.896536  0
O  O95  1  0.74925486  0.47688397  0.17185006  1  -0.415092  0  -0.127579  -0.318709  0  1.857397  0
