# generated using pymatgen
data_Zn2H24C45N2O15
_symmetry_space_group_name_H-M   'P 1'
_cell_length_a   16.48997311
_cell_length_b   17.89518934
_cell_length_c   33.19653598
_cell_angle_alpha   90.24049321
_cell_angle_beta   89.78948519
_cell_angle_gamma   89.91846539
_symmetry_Int_Tables_number   1
_chemical_formula_structural   Zn2H24C45N2O15
_chemical_formula_sum   'Zn4 H48 C90 N4 O30'
_cell_volume   9795.84279356
_cell_formula_units_Z   2
loop_
 _symmetry_equiv_pos_site_id
 _symmetry_equiv_pos_as_xyz
  1  'x, y, z'
loop_
 _atom_site_type_symbol
 _atom_site_label
 _atom_site_symmetry_multiplicity
 _atom_site_fract_x
 _atom_site_fract_y
 _atom_site_fract_z
 _atom_site_occupancy
 _atom_site_pbe_bader_charge
 _atom_site_pbe_bader_spin_density
 _atom_site_pbe_cm5_charge
 _atom_site_pbe_ddec_charge
 _atom_site_pbe_ddec_spin_density
 _atom_site_pbe_ddec_sum_bond_order
 _atom_site_pbe_magmom
Zn  Zn0  1  0.58386304  0.49912073  0.50076741  1  1.25767  0  0.665003  0.812735  0  2.450218  0
Zn  Zn1  1  0.41556931  0.50104345  0.50028000  1  1.274712  0  0.66431  0.813428  0  2.43681  0
Zn  Zn2  1  0.41619424  0.50145059  0.96136702  1  1.258212  0  0.664871  0.813362  0  2.449476  0
Zn  Zn3  1  0.58443175  0.50306741  0.96184337  1  1.277319  0  0.66415  0.81305  0  2.435469  0
H  H4  1  0.28931798  0.58289242  0.54524378  1  0.117544  0  0.131326  0.116591  0  0.966649  0
H  H5  1  0.13669245  0.58895172  0.54822727  1  0.091383  0  0.119398  0.128393  0  0.973855  0
H  H6  1  0.28468330  0.41844131  0.45682983  1  0.149293  0  0.140005  0.133354  0  0.951812  0
H  H7  1  0.71507462  0.58262009  0.54348858  1  0.127055  0  0.138731  0.131985  0  0.954014  0
H  H8  1  0.70960523  0.41726408  0.45560646  1  0.117177  0  0.132218  0.113407  0  0.969814  0
H  H9  1  0.86222213  0.41123489  0.45224048  1  0.111979  0  0.11879  0.127652  0  0.975103  0
H  H10  1  0.63156470  0.73476693  0.50074951  1  0.102145  0  0.102553  0.111973  0  1.008081  0
H  H11  1  0.63627221  0.87471691  0.50010196  1  0.082672  0  0.103386  0.105223  0  0.990154  0
H  H12  1  0.37087004  0.74186824  0.50042783  1  0.111521  0  0.111654  0.136179  0  0.987653  0
H  H13  1  0.62984220  0.25758683  0.50006754  1  0.113651  0  0.111445  0.1358  0  0.987751  0
H  H14  1  0.36918756  0.26613492  0.49987129  1  0.106804  0  0.10284  0.111816  0  1.007499  0
H  H15  1  0.36359576  0.12619180  0.49967402  1  0.033203  0  0.103385  0.104875  0  0.990552  0
H  H16  1  0.37091021  0.50107441  0.62783071  1  0.057911  0  0.098076  0.089896  0  1.048579  0
H  H17  1  0.62764538  0.50011675  0.62698808  1  0.065742  0  0.098825  0.091133  0  1.04691  0
H  H18  1  0.62903173  0.50177187  0.83424025  1  0.057843  0  0.097874  0.089382  0  1.048612  0
H  H19  1  0.37227404  0.50118219  0.83512075  1  0.060838  0  0.098621  0.090829  0  1.047485  0
H  H20  1  0.36828143  0.50287834  0.08823103  1  0.088923  0  0.101751  0.110647  0  1.009902  0
H  H21  1  0.36307744  0.50234120  0.16371453  1  0.072401  0  0.102538  0.103848  0  0.991496  0
H  H22  1  0.62896304  0.50234704  0.09183117  1  0.1161  0  0.112614  0.137967  0  0.985547  0
H  H23  1  0.37100894  0.50002693  0.37034229  1  0.11558  0  0.112753  0.137824  0  0.986247  0
H  H24  1  0.63169988  0.50037743  0.37391364  1  0.085716  0  0.101567  0.110277  0  1.010063  0
H  H25  1  0.63684717  0.50118282  0.29842599  1  0.076742  0  0.102597  0.104  0  0.991154  0
H  H26  1  0.71033955  0.58499537  0.91709212  1  0.133234  0  0.131343  0.113092  0  0.971056  0
H  H27  1  0.86295443  0.59128756  0.91416670  1  0.070553  0  0.119181  0.12845  0  0.973989  0
H  H28  1  0.71574801  0.42122136  0.00513660  1  0.138458  0  0.140366  0.134055  0  0.951675  0
H  H29  1  0.28487085  0.58454781  0.91864437  1  0.145988  0  0.138771  0.131667  0  0.95487  0
H  H30  1  0.29058530  0.41997339  0.00619952  1  0.108467  0  0.132446  0.114371  0  0.969447  0
H  H31  1  0.13797462  0.41426412  0.00957658  1  0.104622  0  0.118786  0.127455  0  0.974567  0
H  H32  1  0.36823195  0.73756782  0.96087494  1  0.097186  0  0.102547  0.111521  0  1.008569  0
H  H33  1  0.36392134  0.87758419  0.96099719  1  0.038767  0  0.103585  0.105678  0  0.98945  0
H  H34  1  0.62897169  0.74343546  0.96120687  1  0.112382  0  0.111347  0.135703  0  0.988278  0
H  H35  1  0.37036294  0.26002902  0.96173322  1  0.104891  0  0.11127  0.135599  0  0.989072  0
H  H36  1  0.63101775  0.26792568  0.96169534  1  0.078398  0  0.102433  0.111777  0  1.007349  0
H  H37  1  0.63661529  0.12794182  0.96148809  1  0.072316  0  0.103374  0.105194  0  0.990903  0
H  H38  1  0.06838860  0.41325463  0.45337413  1  0.644246  0  0.330741  0.358086  0  0.894128  0
H  H39  1  0.93135801  0.58689985  0.54711790  1  0.592288  0  0.331657  0.359242  0  0.893  0
H  H40  1  0.37189469  0.94079732  0.49977832  1  0.60432  0  0.317561  0.348379  0  0.917669  0
H  H41  1  0.62750387  0.05865191  0.49990747  1  0.596464  0  0.317425  0.348716  0  0.91792  0
H  H42  1  0.62721735  0.50180809  0.19906671  1  0.589031  0  0.317086  0.347492  0  0.91815  0
H  H43  1  0.37274364  0.50116772  0.26310298  1  0.595448  0  0.317029  0.347554  0  0.919043  0
H  H44  1  0.93202561  0.41642427  0.00866391  1  0.642595  0  0.33083  0.357645  0  0.894132  0
H  H45  1  0.06859091  0.58928957  0.91509886  1  0.593447  0  0.33188  0.359588  0  0.891943  0
H  H46  1  0.62839954  0.94240430  0.96103943  1  0.580799  0  0.318117  0.349678  0  0.91655  0
H  H47  1  0.37266782  0.06112206  0.96127284  1  0.631259  0  0.317254  0.348082  0  0.917338  0
H  H48  1  0.28617290  0.50022123  0.80058570  1  0.599442  0  0.32454  0.349715  0  0.914253  0
H  H49  1  0.28573574  0.49757149  0.66291610  1  0.584927  0  0.322786  0.346839  0  0.918242  0
H  H50  1  0.71426126  0.49803700  0.79912641  1  0.58504  0  0.322848  0.347029  0  0.917954  0
H  H51  1  0.71366852  0.49933646  0.66148596  1  0.603989  0  0.324367  0.349357  0  0.914666  0
C  C52  1  0.49923104  0.64675691  0.50119957  1  1.49907  0  0.214577  0.591417  0  4.164674  0
C  C53  1  0.49914693  0.50079434  0.57971213  1  1.522517  0  0.214273  0.595986  0  4.158681  0
C  C54  1  0.50228437  0.35341214  0.49987274  1  1.493963  0  0.214925  0.591574  0  4.164767  0
C  C55  1  0.49872182  0.49940840  0.42146665  1  1.581  0  0.215044  0.592137  0  4.16508  0
C  C56  1  0.50054829  0.64894953  0.96087369  1  1.568471  0  0.215247  0.593555  0  4.161322  0
C  C57  1  0.50080902  0.50196588  0.88238965  1  1.515991  0  0.214788  0.597018  0  4.155944  0
C  C58  1  0.49791005  0.35556470  0.96207125  1  1.525772  0  0.214815  0.59166  0  4.165209  0
C  C59  1  0.50122990  0.50215473  0.04068577  1  1.595533  0  0.214862  0.593095  0  4.165486  0
C  C60  1  0.25133522  0.54753989  0.52632943  1  0.467146  0  0.047642  0.064567  0  3.950632  0
C  C61  1  0.16746284  0.55052687  0.52773153  1  0.033974  0  -0.071684  -0.14793  0  3.958551  0
C  C62  1  0.12207938  0.50344511  0.50227908  1  0.20963  0  -0.002169  0.033491  0  4.138864  0
C  C63  1  0.16481002  0.45447142  0.47606371  1  0.531907  0  0.103395  0.237509  0  4.044019  0
C  C64  1  0.24960533  0.45509441  0.47663649  1  0.53648  0  0.059845  -0.005357  0  3.863684  0
C  C65  1  0.03656069  0.50277655  0.50167476  1  -0.144016  0  -0.031274  -0.095418  0  4.136599  0
C  C66  1  0.96281802  0.49743670  0.49860439  1  -0.399785  0  -0.032049  -0.098194  0  4.137646  0
C  C67  1  0.87729248  0.49681732  0.49809839  1  0.20423  0  -0.002477  0.034652  0  4.139491  0
C  C68  1  0.83479267  0.54591947  0.52436580  1  0.545076  0  0.102668  0.236557  0  4.047338  0
C  C69  1  0.75001160  0.54548537  0.52387325  1  0.541137  0  0.057318  -0.010831  0  3.871506  0
C  C70  1  0.74780764  0.45269306  0.47436401  1  0.566821  0  0.049048  0.071433  0  3.944622  0
C  C71  1  0.83167600  0.44972338  0.47277609  1  -0.08459  0  -0.071187  -0.148337  0  3.957509  0
C  C72  1  0.50119380  0.73056716  0.50086301  1  0.035367  0  -0.013703  -0.002573  0  3.9801  0
C  C73  1  0.57613397  0.76784662  0.50069546  1  -0.036946  0  -0.098712  -0.12759  0  4.029756  0
C  C74  1  0.57847296  0.84522645  0.50027091  1  -0.083345  0  -0.088471  -0.10959  0  4.007619  0
C  C75  1  0.50602412  0.88728095  0.50004872  1  0.137296  0  -0.022007  0.003611  0  4.148358  0
C  C76  1  0.43057274  0.84898127  0.50018133  1  0.393071  0  0.088184  0.278462  0  4.046601  0
C  C77  1  0.42871160  0.77116595  0.50053974  1  0.130088  0  -0.094989  -0.213135  0  3.938182  0
C  C78  1  0.50461175  0.96608427  0.49974260  1  -0.553524  0  -0.047256  -0.116541  0  4.176744  0
C  C79  1  0.49479913  0.03409583  0.49961916  1  0.085176  0  -0.047125  -0.11604  0  4.175217  0
C  C80  1  0.49373930  0.11291026  0.49960805  1  0.130298  0  -0.021635  0.004895  0  4.145525  0
C  C81  1  0.56945042  0.15079134  0.49970697  1  0.392342  0  0.0883  0.278426  0  4.046998  0
C  C82  1  0.57182223  0.22859483  0.49978878  1  0.125031  0  -0.095305  -0.213586  0  3.938436  0
C  C83  1  0.49959751  0.26961659  0.49974561  1  0.032955  0  -0.013585  -0.002367  0  3.978873  0
C  C84  1  0.42440968  0.23275742  0.49971896  1  -0.053797  0  -0.098717  -0.127043  0  4.027384  0
C  C85  1  0.42156619  0.15537879  0.49964000  1  -0.011748  0  -0.088437  -0.10936  0  4.006198  0
C  C86  1  0.42592633  0.50094573  0.64606952  1  -0.064527  0  -0.097293  -0.160523  0  3.9829  0
C  C87  1  0.42454016  0.50086864  0.68834121  1  0.007223  0  -0.017481  -0.018327  0  4.078604  0
C  C88  1  0.34991881  0.50065186  0.71077332  1  0.559084  0  0.063515  0.139304  0  4.077784  0
C  C89  1  0.57285619  0.50053621  0.64558626  1  -0.132565  0  -0.096749  -0.159598  0  3.980097  0
C  C90  1  0.57479664  0.50072732  0.68782855  1  0.033535  0  -0.017352  -0.017061  0  4.076736  0
C  C91  1  0.64972145  0.50052871  0.70974459  1  0.495606  0  0.064092  0.139072  0  4.079677  0
C  C92  1  0.57399351  0.50158986  0.81601735  1  -0.065017  0  -0.097117  -0.158775  0  3.981054  0
C  C93  1  0.57534437  0.50126014  0.77374451  1  0.013706  0  -0.017447  -0.018951  0  4.078676  0
C  C94  1  0.64994728  0.50065156  0.75129947  1  0.554027  0  0.06333  0.138956  0  4.078617  0
C  C95  1  0.42705882  0.50142828  0.81652255  1  -0.081163  0  -0.096876  -0.158247  0  3.980052  0
C  C96  1  0.42506911  0.50136962  0.77426979  1  0.040832  0  -0.016706  -0.01787  0  4.077199  0
C  C97  1  0.35013165  0.50098762  0.75233983  1  0.489832  0  0.063437  0.138314  0  4.079286  0
C  C98  1  0.49924995  0.50076810  0.62489254  1  0.082414  0  -0.021445  -0.009681  0  4.000077  0
C  C99  1  0.49980792  0.50095874  0.70976395  1  0.00999  0  -0.007677  0.003164  0  3.982039  0
C  C100  1  0.50068030  0.50166187  0.83720975  1  0.028443  0  -0.021499  -0.011432  0  3.999566  0
C  C101  1  0.50006075  0.50123990  0.75233400  1  0.001842  0  -0.00722  0.004184  0  3.981702  0
C  C102  1  0.49870821  0.50218919  0.08586544  1  0.015946  0  -0.013377  -0.002781  0  3.980475  0
C  C103  1  0.42359995  0.50239631  0.10601645  1  -0.0973  0  -0.099337  -0.127864  0  4.029275  0
C  C104  1  0.42097086  0.50218321  0.14774507  1  0.016016  0  -0.088853  -0.110537  0  4.008166  0
C  C105  1  0.49329880  0.50186268  0.17033470  1  0.146272  0  -0.022368  0.004472  0  4.14773  0
C  C106  1  0.56889203  0.50190899  0.14962262  1  0.453486  0  0.089247  0.279658  0  4.046188  0
C  C107  1  0.57103267  0.50207752  0.10768045  1  0.024492  0  -0.094503  -0.213334  0  3.938523  0
C  C108  1  0.49471253  0.50157008  0.21279450  1  -0.044517  0  -0.047603  -0.117747  0  4.179124  0
C  C109  1  0.50518611  0.50129847  0.24938318  1  -0.505258  0  -0.047126  -0.115785  0  4.178221  0
C  C110  1  0.50662740  0.50078009  0.29183370  1  0.178693  0  -0.022568  0.004239  0  4.147377  0
C  C111  1  0.43103994  0.50045102  0.31255117  1  0.462306  0  0.088669  0.278592  0  4.046526  0
C  C112  1  0.42893301  0.49998016  0.35448720  1  0.06188  0  -0.094313  -0.212473  0  3.939519  0
C  C113  1  0.50127216  0.49976566  0.37629201  1  -0.029656  0  -0.013563  -0.002229  0  3.97854  0
C  C114  1  0.57637731  0.50015535  0.35613360  1  -0.099897  0  -0.099001  -0.128259  0  4.028687  0
C  C115  1  0.57897329  0.50068643  0.31440723  1  -0.016896  0  -0.089039  -0.110356  0  4.007316  0
C  C116  1  0.74847818  0.54986066  0.93593434  1  0.459174  0  0.047738  0.067723  0  3.949779  0
C  C117  1  0.83234227  0.55297706  0.93456473  1  0.064814  0  -0.071494  -0.148185  0  3.957324  0
C  C118  1  0.87794374  0.50617399  0.95992181  1  0.217301  0  -0.002463  0.033811  0  4.139244  0
C  C119  1  0.83542165  0.45736904  0.98603471  1  0.510799  0  0.104133  0.238233  0  4.044993  0
C  C120  1  0.75063362  0.45782567  0.98543540  1  0.567473  0  0.058816  -0.008002  0  3.865141  0
C  C121  1  0.96346506  0.50559082  0.96053963  1  -0.594271  0  -0.031223  -0.095805  0  4.137063  0
C  C122  1  0.03724745  0.50029136  0.96347585  1  0.051211  0  -0.031697  -0.097063  0  4.137858  0
C  C123  1  0.12277580  0.49957684  0.96393913  1  0.210337  0  -0.002475  0.033275  0  4.139877  0
C  C124  1  0.16521371  0.54835163  0.93776484  1  0.587267  0  0.102942  0.236889  0  4.047678  0
C  C125  1  0.24999614  0.54766530  0.93820279  1  0.518357  0  0.05747  -0.009565  0  3.871032  0
C  C126  1  0.25234683  0.45532845  0.98752877  1  0.577831  0  0.048536  0.069441  0  3.945201  0
C  C127  1  0.16847779  0.45255297  0.98913140  1  -0.122215  0  -0.071367  -0.14739  0  3.955774  0
C  C128  1  0.49861242  0.73276566  0.96090629  1  -0.012103  0  -0.013778  -0.003495  0  3.979319  0
C  C129  1  0.42374635  0.77038516  0.96087915  1  -0.027577  0  -0.09854  -0.126566  0  4.027161  0
C  C130  1  0.42162853  0.84779177  0.96100298  1  -0.01162  0  -0.088738  -0.111018  0  4.005769  0
C  C131  1  0.49419512  0.88948282  0.96113222  1  0.170186  0  -0.021785  0.005754  0  4.146498  0
C  C132  1  0.56954706  0.85082709  0.96105121  1  0.496522  0  0.088262  0.27842  0  4.044598  0
C  C133  1  0.57120980  0.77301160  0.96101784  1  0.017725  0  -0.094544  -0.212533  0  3.938897  0
C  C134  1  0.49574331  0.96824777  0.96134904  1  -0.68936  0  -0.047593  -0.118047  0  4.179219  0
C  C135  1  0.50547997  0.03623139  0.96145732  1  0.109735  0  -0.046804  -0.115839  0  4.176139  0
C  C136  1  0.50646665  0.11500212  0.96163764  1  0.101447  0  -0.021797  0.007579  0  4.14377  0
C  C137  1  0.43078062  0.15310474  0.96169925  1  0.510289  0  0.088201  0.276649  0  4.047398  0
C  C138  1  0.42840940  0.23091546  0.96186050  1  0.007525  0  -0.094722  -0.212781  0  3.941219  0
C  C139  1  0.50063804  0.27173711  0.96195971  1  -0.000372  0  -0.014175  -0.002845  0  3.979785  0
C  C140  1  0.57581300  0.23465728  0.96180715  1  0.095254  0  -0.098068  -0.126307  0  4.026515  0
C  C141  1  0.57863611  0.15726608  0.96166030  1  -0.078931  0  -0.088444  -0.111147  0  4.006056  0
N  N142  1  0.29083658  0.50054682  0.50117853  1  -1.208388  0  -0.31018  -0.162451  0  3.551638  0
N  N143  1  0.70856383  0.49983358  0.49952389  1  -1.210429  0  -0.310639  -0.161101  0  3.550399  0
N  N144  1  0.70918638  0.50296220  0.96095854  1  -1.22981  0  -0.310067  -0.161031  0  3.548303  0
N  N145  1  0.29151562  0.50218560  0.96246280  1  -1.210828  0  -0.310588  -0.161199  0  3.550124  0
O  O146  1  0.56749495  0.61330350  0.50168174  1  -1.165927  0  -0.318753  -0.550278  0  2.328856  0
O  O147  1  0.42989298  0.61539608  0.50087083  1  -1.15456  0  -0.3185  -0.547966  0  2.320978  0
O  O148  1  0.43047250  0.50234614  0.56226666  1  -1.15913  0  -0.320055  -0.551501  0  2.321109  0
O  O149  1  0.56806292  0.49918439  0.56218537  1  -1.168068  0  -0.320924  -0.549009  0  2.326246  0
O  O150  1  0.43427371  0.38742551  0.50000082  1  -1.155229  0  -0.319127  -0.551251  0  2.332002  0
O  O151  1  0.57186847  0.38421570  0.49989291  1  -1.160512  0  -0.318887  -0.547851  0  2.317654  0
O  O152  1  0.56683922  0.49854480  0.43948803  1  -1.166283  0  -0.318806  -0.551029  0  2.336927  0
O  O153  1  0.42924191  0.50009527  0.43836624  1  -1.163613  0  -0.318916  -0.547747  0  2.313371  0
O  O154  1  0.43231874  0.61559725  0.96048857  1  -1.171131  0  -0.318986  -0.551357  0  2.32828  0
O  O155  1  0.56991074  0.61744264  0.96128442  1  -1.163087  0  -0.318843  -0.54882  0  2.319491  0
O  O156  1  0.56948890  0.50357642  0.89983728  1  -1.159296  0  -0.320535  -0.551647  0  2.317842  0
O  O157  1  0.43191409  0.50054482  0.89992894  1  -1.171453  0  -0.320824  -0.549438  0  2.325782  0
O  O158  1  0.56590239  0.38945290  0.96205847  1  -1.158122  0  -0.319568  -0.551736  0  2.330452  0
O  O159  1  0.42831299  0.38649171  0.96211356  1  -1.161216  0  -0.31828  -0.54768  0  2.320065  0
O  O160  1  0.43310588  0.50139889  0.02266112  1  -1.164365  0  -0.318945  -0.551573  0  2.335615  0
O  O161  1  0.57069301  0.50290681  0.02377372  1  -1.168091  0  -0.319013  -0.548278  0  2.313528  0
O  O162  1  0.12713072  0.40706063  0.45040827  1  -1.145586  0  -0.333458  -0.408525  0  2.255272  0
O  O163  1  0.87262309  0.59326986  0.54999016  1  -1.09635  0  -0.333645  -0.408534  0  2.257449  0
O  O164  1  0.35909124  0.88728914  0.49995060  1  -1.124651  0  -0.356462  -0.437353  0  2.245417  0
O  O165  1  0.64068337  0.11208117  0.49976187  1  -1.119303  0  -0.357206  -0.438523  0  2.245575  0
O  O166  1  0.64023213  0.50171698  0.17020959  1  -1.115877  0  -0.356702  -0.436696  0  2.243762  0
O  O167  1  0.35970837  0.50062459  0.29195511  1  -1.120483  0  -0.356533  -0.436723  0  2.244798  0
O  O168  1  0.87330202  0.41023606  0.01161169  1  -1.147118  0  -0.333635  -0.408024  0  2.255757  0
O  O169  1  0.12731725  0.59559795  0.91226220  1  -1.097423  0  -0.334355  -0.409271  0  2.255504  0
O  O170  1  0.64111746  0.88884481  0.96103496  1  -1.105064  0  -0.357061  -0.438847  0  2.242786  0
O  O171  1  0.35952632  0.11459736  0.96157116  1  -1.15874  0  -0.356768  -0.43744  0  2.244667  0
O  O172  1  0.27663439  0.50081461  0.77165586  1  -1.110669  0  -0.357155  -0.412166  0  2.27034  0
O  O173  1  0.27622496  0.50017328  0.69185846  1  -1.081332  0  -0.358196  -0.412808  0  2.26981  0
O  O174  1  0.72366395  0.50031258  0.77018025  1  -1.08171  0  -0.358204  -0.412898  0  2.270211  0
O  O175  1  0.72319996  0.50014459  0.69041862  1  -1.113063  0  -0.357357  -0.412303  0  2.271287  0
