# generated using pymatgen
data_CdP2H18C20(NO3)2
_symmetry_space_group_name_H-M   'P 1'
_cell_length_a   7.64051729
_cell_length_b   12.24703899
_cell_length_c   12.37529378
_cell_angle_alpha   119.65747288
_cell_angle_beta   98.08672864
_cell_angle_gamma   89.99976770
_symmetry_Int_Tables_number   1
_chemical_formula_structural   CdP2H18C20(NO3)2
_chemical_formula_sum   'Cd2 P4 H36 C40 N4 O12'
_cell_volume   993.03078841
_cell_formula_units_Z   2
loop_
 _symmetry_equiv_pos_site_id
 _symmetry_equiv_pos_as_xyz
  1  'x, y, z'
loop_
 _atom_site_type_symbol
 _atom_site_label
 _atom_site_symmetry_multiplicity
 _atom_site_fract_x
 _atom_site_fract_y
 _atom_site_fract_z
 _atom_site_occupancy
 _atom_site_hle17_bader_spin_density
 _atom_site_hle17_ddec_charge
 _atom_site_hle17_ddec_spin_density
 _atom_site_hle17_ddec_sum_bond_order
 _atom_site_hle17_magmom
 _atom_site_hse06_10hf_bader_spin_density
 _atom_site_hse06_10hf_ddec_charge
 _atom_site_hse06_10hf_ddec_spin_density
 _atom_site_hse06_10hf_ddec_sum_bond_order
 _atom_site_hse06_10hf_magmom
 _atom_site_hse06_bader_spin_density
 _atom_site_hse06_ddec_charge
 _atom_site_hse06_ddec_spin_density
 _atom_site_hse06_ddec_sum_bond_order
 _atom_site_hse06_magmom
 _atom_site_pbe_bader_spin_density
 _atom_site_pbe_cm5_charge
 _atom_site_pbe_ddec_charge
 _atom_site_pbe_ddec_spin_density
 _atom_site_pbe_ddec_sum_bond_order
 _atom_site_pbe_magmom
Cd  Cd0  1  0.74999885  0.15665493  0.00000048  1  0  1.267314  0  1.688565  0  0  1.082947  0  2.149249  0  0  1.13246  0  2.095734  0  0  0.816119  1.047582  0  2.186103  0
Cd  Cd1  1  0.25000147  0.84334574  0.99999940  1  0  1.267309  0  1.688561  0  0  1.082962  0  2.149232  0  0  1.132473  0  2.095719  0  0  0.816127  1.047597  0  2.186087  0
P  P2  1  0.56961334  0.83462682  0.81759788  1  0  1.519714  0  4.795976  0  0  1.365514  0  5.2942  0  0  1.414319  0  5.256415  0  0  0.353538  1.33145  0  5.319727  0
P  P3  1  0.93038654  0.01702903  0.18240199  1  0  1.519753  0  4.79587  0  0  1.36556  0  5.29408  0  0  1.414366  0  5.256297  0  0  0.353548  1.331494  0  5.31961  0
P  P4  1  0.43038687  0.16537290  0.18240233  1  0  1.519767  0  4.795863  0  0  1.365595  0  5.294073  0  0  1.414401  0  5.256281  0  0  0.353572  1.331531  0  5.319601  0
P  P5  1  0.06961092  0.98296975  0.81759591  1  0  1.519814  0  4.795859  0  0  1.365611  0  5.294085  0  0  1.414417  0  5.256296  0  0  0.353579  1.331545  0  5.319613  0
H  H6  1  0.87439219  0.84673119  0.86231607  1  0  0.436854  0  0.871795  0  0  0.401914  0  0.941832  0  0  0.413627  0  0.925039  0  0  0.304992  0.393703  0  0.953574  0
H  H7  1  0.62560842  0.98441439  0.13768482  1  0  0.436835  0  0.871816  0  0  0.401901  0  0.941845  0  0  0.413613  0  0.925053  0  0  0.305  0.393691  0  0.953586  0
H  H8  1  0.12560803  0.15326853  0.13768333  1  0  0.436852  0  0.871795  0  0  0.401913  0  0.94183  0  0  0.413625  0  0.925038  0  0  0.304997  0.393702  0  0.953572  0
H  H9  1  0.37439058  0.01558627  0.86231494  1  0  0.436857  0  0.871784  0  0  0.401914  0  0.941828  0  0  0.413627  0  0.925035  0  0  0.305011  0.393704  0  0.953568  0
H  H10  1  0.49035148  0.10042451  0.73550611  1  0  0.079417  0  0.933716  0  0  0.088964  0  0.997175  0  0  0.090991  0  0.995216  0  0  0.117173  0.087429  0  0.99864  0
H  H11  1  0.00965138  0.36491586  0.26449446  1  0  0.079371  0  0.933682  0  0  0.088882  0  0.997186  0  0  0.090908  0  0.995227  0  0  0.117142  0.087353  0  0.998651  0
H  H12  1  0.50965138  0.89957521  0.26449432  1  0  0.079393  0  0.933722  0  0  0.088949  0  0.997175  0  0  0.090976  0  0.995216  0  0  0.117164  0.087415  0  0.998641  0
H  H13  1  0.99034894  0.63508480  0.73550541  1  0  0.079373  0  0.933677  0  0  0.088879  0  0.997202  0  0  0.090905  0  0.995243  0  0  0.117145  0.08735  0  0.998666  0
H  H14  1  0.38715263  0.21275181  0.61823091  1  0  0.096884  0  0.961105  0  0  0.108043  0  1.020063  0  0  0.109918  0  1.021383  0  0  0.102743  0.106708  0  1.019226  0
H  H15  1  0.11284720  0.59451804  0.38176838  1  0  0.096873  0  0.961141  0  0  0.108049  0  1.020083  0  0  0.109927  0  1.021397  0  0  0.102741  0.106715  0  1.019248  0
H  H16  1  0.61285022  0.78724792  0.38176872  1  0  0.096887  0  0.961119  0  0  0.108065  0  1.020059  0  0  0.109941  0  1.021379  0  0  0.10276  0.106731  0  1.019221  0
H  H17  1  0.88715445  0.40548262  0.61823241  1  0  0.096899  0  0.961141  0  0  0.108075  0  1.020076  0  0  0.109953  0  1.021391  0  0  0.10275  0.106741  0  1.019241  0
H  H18  1  0.48288891  0.44378999  0.71685791  1  0  0.104366  0  0.943623  0  0  0.116546  0  1.001582  0  0  0.118575  0  1.001199  0  0  0.109395  0.11507  0  1.001887  0
H  H19  1  0.01711025  0.72692930  0.28314184  1  0  0.10443  0  0.94363  0  0  0.116598  0  1.001593  0  0  0.118627  0  1.001211  0  0  0.109427  0.115122  0  1.001897  0
H  H20  1  0.51711395  0.55620973  0.28314172  1  0  0.104369  0  0.943603  0  0  0.116542  0  1.001568  0  0  0.11857  0  1.001186  0  0  0.109396  0.115065  0  1.001874  0
H  H21  1  0.98289018  0.27307230  0.71686093  1  0  0.104422  0  0.943554  0  0  0.116576  0  1.001536  0  0  0.118605  0  1.001155  0  0  0.109407  0.1151  0  1.00184  0
H  H22  1  0.64998624  0.63770470  0.89787714  1  0  0.124613  0  0.951178  0  0  0.133981  0  1.011693  0  0  0.13717  0  1.010088  0  0  0.110279  0.131647  0  1.012932  0
H  H23  1  0.85001254  0.73982631  0.10212204  1  0  0.124619  0  0.951143  0  0  0.133977  0  1.011672  0  0  0.137168  0  1.010067  0  0  0.11028  0.131642  0  1.01291  0
H  H24  1  0.35001651  0.36229408  0.10212202  1  0  0.124609  0  0.951149  0  0  0.133975  0  1.011668  0  0  0.137164  0  1.010063  0  0  0.110269  0.131639  0  1.012908  0
H  H25  1  0.14998788  0.26017529  0.89787750  1  0  0.124616  0  0.951187  0  0  0.133968  0  1.011716  0  0  0.137159  0  1.010111  0  0  0.110266  0.131634  0  1.012954  0
H  H26  1  0.40584158  0.81394884  0.62996849  1  0  0.119103  0  0.97021  0  0  0.133897  0  1.031212  0  0  0.136086  0  1.030189  0  0  0.100731  0.132275  0  1.032051  0
H  H27  1  0.09415935  0.18398054  0.37002862  1  0  0.119103  0  0.970205  0  0  0.133895  0  1.031212  0  0  0.136086  0  1.030189  0  0  0.100725  0.132272  0  1.032051  0
H  H28  1  0.59415985  0.18604993  0.37003136  1  0  0.119085  0  0.970228  0  0  0.133879  0  1.031234  0  0  0.13607  0  1.030209  0  0  0.100721  0.132257  0  1.032072  0
H  H29  1  0.90584218  0.81601918  0.62997090  1  0  0.119085  0  0.97023  0  0  0.133877  0  1.031236  0  0  0.136067  0  1.030212  0  0  0.100725  0.132255  0  1.032074  0
H  H30  1  0.63521364  0.81724300  0.62555671  1  0  0.12077  0  0.963843  0  0  0.135802  0  1.023864  0  0  0.138059  0  1.022874  0  0  0.100146  0.134142  0  1.024677  0
H  H31  1  0.86478646  0.19168620  0.37444017  1  0  0.12076  0  0.963835  0  0  0.1358  0  1.023843  0  0  0.138058  0  1.022854  0  0  0.100143  0.13414  0  1.024656  0
H  H32  1  0.36478647  0.18275577  0.37444303  1  0  0.120766  0  0.963839  0  0  0.135799  0  1.023862  0  0  0.138058  0  1.022871  0  0  0.100146  0.134139  0  1.024676  0
H  H33  1  0.13521498  0.80831258  0.62555888  1  0  0.120731  0  0.963835  0  0  0.135768  0  1.023848  0  0  0.138024  0  1.022859  0  0  0.100135  0.134108  0  1.024663  0
H  H34  1  0.25824690  0.61313692  0.61541859  1  0  0.092205  0  0.962301  0  0  0.102931  0  1.025879  0  0  0.105886  0  1.024276  0  0  0.097761  0.100783  0  1.027123  0
H  H35  1  0.24175693  0.99772020  0.38458304  1  0  0.09224  0  0.962303  0  0  0.102947  0  1.025895  0  0  0.105901  0  1.024293  0  0  0.09776  0.100798  0  1.027138  0
H  H36  1  0.74175596  0.38686281  0.38458104  1  0  0.092212  0  0.962256  0  0  0.102913  0  1.025861  0  0  0.105865  0  1.024263  0  0  0.097755  0.100763  0  1.027106  0
H  H37  1  0.75824328  0.00227952  0.61541636  1  0  0.092194  0  0.962292  0  0  0.102922  0  1.025874  0  0  0.105876  0  1.024272  0  0  0.097748  0.100774  0  1.027117  0
H  H38  1  0.76858742  0.62002961  0.50868962  1  0  0.081433  0  0.965228  0  0  0.094685  0  1.025193  0  0  0.097312  0  1.024392  0  0  0.093746  0.092725  0  1.025935  0
H  H39  1  0.73141382  0.11134034  0.49130955  1  0  0.081413  0  0.965242  0  0  0.094662  0  1.025213  0  0  0.097287  0  1.024413  0  0  0.093757  0.092702  0  1.025955  0
H  H40  1  0.23141534  0.37996917  0.49131035  1  0  0.081413  0  0.965233  0  0  0.094665  0  1.025199  0  0  0.097291  0  1.024399  0  0  0.093754  0.092705  0  1.025941  0
H  H41  1  0.26858762  0.88865843  0.50869030  1  0  0.081401  0  0.965181  0  0  0.09465  0  1.025155  0  0  0.097277  0  1.024356  0  0  0.093749  0.092695  0  1.025892  0
C  C42  1  0.53267573  0.19951774  0.77364943  1  0  0.154249  0  3.698512  0  0  0.121481  0  3.95573  0  0  0.129094  0  3.973438  0  0  0.059769  0.116568  0  3.94356  0
C  C43  1  0.96732598  0.42586673  0.22635127  1  0  0.154321  0  3.698408  0  0  0.121569  0  3.955644  0  0  0.129184  0  3.97335  0  0  0.059807  0.116648  0  3.943484  0
C  C44  1  0.46732591  0.80048293  0.22635137  1  0  0.154293  0  3.698493  0  0  0.121511  0  3.955718  0  0  0.129124  0  3.973427  0  0  0.059779  0.116597  0  3.943548  0
C  C45  1  0.03267312  0.57413488  0.77364977  1  0  0.154354  0  3.698379  0  0  0.121578  0  3.955624  0  0  0.129193  0  3.97333  0  0  0.059809  0.116657  0  3.943465  0
C  C46  1  0.47485599  0.26336307  0.70860985  1  0  -0.127933  0  3.753853  0  0  -0.137855  0  4.003946  0  0  -0.145521  0  4.027312  0  0  -0.086434  -0.132809  0  3.98803  0
C  C47  1  0.02514373  0.55475120  0.29139088  1  0  -0.127912  0  3.753748  0  0  -0.137855  0  4.003818  0  0  -0.145521  0  4.027183  0  0  -0.086431  -0.132809  0  3.987905  0
C  C48  1  0.52514565  0.73663759  0.29138933  1  0  -0.127957  0  3.753821  0  0  -0.137901  0  4.003908  0  0  -0.145567  0  4.027274  0  0  -0.086444  -0.132855  0  3.987991  0
C  C49  1  0.97485537  0.44525040  0.70861097  1  0  -0.127925  0  3.7538  0  0  -0.137856  0  4.003862  0  0  -0.145523  0  4.027227  0  0  -0.086412  -0.132812  0  3.987949  0
C  C50  1  0.52655084  0.39017896  0.76323970  1  0  -0.045354  0  3.689053  0  0  -0.069797  0  3.935549  0  0  -0.067479  0  3.954505  0  0  -0.062653  -0.071027  0  3.922521  0
C  C51  1  0.97344655  0.62693780  0.23676064  1  0  -0.04543  0  3.688997  0  0  -0.069871  0  3.935474  0  0  -0.067555  0  3.954431  0  0  -0.062689  -0.071101  0  3.922445  0
C  C52  1  0.47345080  0.60982170  0.23676110  1  0  -0.045385  0  3.689019  0  0  -0.069827  0  3.935521  0  0  -0.067513  0  3.954474  0  0  -0.062687  -0.071058  0  3.922493  0
C  C53  1  0.02655123  0.37306380  0.76324109  1  0  -0.045419  0  3.689024  0  0  -0.069832  0  3.93553  0  0  -0.067514  0  3.954487  0  0  -0.062676  -0.071062  0  3.9225  0
C  C54  1  0.63744569  0.45230827  0.88177536  1  0  0.021934  0  3.797006  0  0  0.037232  0  4.030861  0  0  0.035064  0  4.054971  0  0  -0.000676  0.038508  0  4.014633  0
C  C55  1  0.86255575  0.57053262  0.11822367  1  0  0.02187  0  3.797004  0  0  0.037209  0  4.030763  0  0  0.035043  0  4.054874  0  0  -0.000688  0.038484  0  4.014534  0
C  C56  1  0.36255606  0.54769333  0.11822672  1  0  0.021949  0  3.796944  0  0  0.037251  0  4.030779  0  0  0.035095  0  4.05487  0  0  -0.00068  0.038527  0  4.014551  0
C  C57  1  0.13744204  0.42946898  0.88177806  1  0  0.021912  0  3.796969  0  0  0.037147  0  4.030826  0  0  0.034984  0  4.054957  0  0  -0.000686  0.038423  0  4.014598  0
C  C58  1  0.69180597  0.37957996  0.93963350  1  0  0.128765  0  3.750022  0  0  0.123087  0  3.986358  0  0  0.127491  0  4.00771  0  0  0.119891  0.12014  0  3.971908  0
C  C59  1  0.80819361  0.43994549  0.06036516  1  0  0.128798  0  3.749956  0  0  0.123171  0  3.986214  0  0  0.127576  0  4.007565  0  0  0.119913  0.120225  0  3.971763  0
C  C60  1  0.30819161  0.62041975  0.06036729  1  0  0.12878  0  3.74999  0  0  0.123098  0  3.98628  0  0  0.127509  0  4.007637  0  0  0.119921  0.120152  0  3.97183  0
C  C61  1  0.19180560  0.56005706  0.93963635  1  0  0.128799  0  3.749952  0  0  0.123235  0  3.98615  0  0  0.12761  0  4.007544  0  0  0.119907  0.120291  0  3.971699  0
C  C62  1  0.69523781  0.58341303  0.94315818  1  0  -0.086526  0  3.692037  0  0  -0.111022  0  3.94955  0  0  -0.114262  0  3.971857  0  0  -0.080451  -0.108766  0  3.934555  0
C  C63  1  0.80476252  0.64025156  0.05683786  1  0  -0.086583  0  3.692095  0  0  -0.111093  0  3.949623  0  0  -0.114327  0  3.971903  0  0  -0.080503  -0.108839  0  3.934635  0
C  C64  1  0.30476250  0.41658763  0.05684170  1  0  -0.086483  0  3.691885  0  0  -0.110978  0  3.949381  0  0  -0.114221  0  3.971685  0  0  -0.080422  -0.108722  0  3.934387  0
C  C65  1  0.19523505  0.35974815  0.94316131  1  0  -0.086625  0  3.69208  0  0  -0.111098  0  3.949612  0  0  -0.114331  0  3.971894  0  0  -0.080495  -0.108842  0  3.934617  0
C  C66  1  0.52886974  0.77431645  0.64706407  1  0  -0.491495  0  3.73853  0  0  -0.518891  0  3.986054  0  0  -0.527373  0  3.99304  0  0  -0.171924  -0.512823  0  3.981218  0
C  C67  1  0.97113050  0.12725354  0.35293500  1  0  -0.491484  0  3.738487  0  0  -0.518872  0  3.985969  0  0  -0.527365  0  3.992973  0  0  -0.171908  -0.512802  0  3.981133  0
C  C68  1  0.47113169  0.22568232  0.35293578  1  0  -0.491487  0  3.738491  0  0  -0.518889  0  3.985997  0  0  -0.527378  0  3.992996  0  0  -0.171923  -0.512823  0  3.981165  0
C  C69  1  0.02886961  0.87274523  0.64706393  1  0  -0.491444  0  3.738454  0  0  -0.518832  0  3.985945  0  0  -0.527319  0  3.992944  0  0  -0.171904  -0.512761  0  3.981106  0
C  C70  1  0.51361626  0.63349894  0.56943285  1  0  0.142189  0  3.791687  0  0  0.159841  0  4.026139  0  0  0.160961  0  4.051005  0  0  -0.013969  0.158973  0  4.009351  0
C  C71  1  0.98638175  0.06406687  0.43056685  1  0  0.142166  0  3.791675  0  0  0.159834  0  4.026097  0  0  0.160958  0  4.050964  0  0  -0.013943  0.158966  0  4.009308  0
C  C72  1  0.48638252  0.36649983  0.43056677  1  0  0.142154  0  3.791674  0  0  0.159829  0  4.026085  0  0  0.160951  0  4.050952  0  0  -0.013952  0.158962  0  4.009297  0
C  C73  1  0.01361582  0.93593285  0.56943151  1  0  0.142176  0  3.791645  0  0  0.159825  0  4.026098  0  0  0.160946  0  4.050964  0  0  -0.013952  0.158957  0  4.009309  0
C  C74  1  0.36305322  0.56351091  0.56279611  1  0  -0.124555  0  3.755991  0  0  -0.144445  0  4.005561  0  0  -0.146019  0  4.024941  0  0  -0.097684  -0.143349  0  3.992537  0
C  C75  1  0.13694854  0.00071522  0.43720352  1  0  -0.124611  0  3.755995  0  0  -0.144489  0  4.005551  0  0  -0.146064  0  4.024931  0  0  -0.09769  -0.143393  0  3.992528  0
C  C76  1  0.63694822  0.43648787  0.43720455  1  0  -0.124526  0  3.755904  0  0  -0.144388  0  4.005451  0  0  -0.145962  0  4.02483  0  0  -0.097678  -0.143292  0  3.992426  0
C  C77  1  0.86305167  0.99928450  0.56279508  1  0  -0.12455  0  3.756003  0  0  -0.14444  0  4.005567  0  0  -0.146015  0  4.024945  0  0  -0.097675  -0.143344  0  3.992541  0
C  C78  1  0.65043895  0.56777549  0.50579147  1  0  -0.132068  0  3.769466  0  0  -0.150031  0  4.016487  0  0  -0.152516  0  4.036992  0  0  -0.099226  -0.148261  0  4.002679  0
C  C79  1  0.84956157  0.06198674  0.49420948  1  0  -0.132001  0  3.769525  0  0  -0.14997  0  4.016557  0  0  -0.152453  0  4.037061  0  0  -0.099252  -0.1482  0  4.002748  0
C  C80  1  0.34956249  0.43222328  0.49420919  1  0  -0.131973  0  3.769464  0  0  -0.149942  0  4.016482  0  0  -0.152425  0  4.036988  0  0  -0.099219  -0.148172  0  4.002674  0
C  C81  1  0.15043743  0.93801392  0.50579109  1  0  -0.131964  0  3.769388  0  0  -0.149919  0  4.016413  0  0  -0.152404  0  4.036921  0  0  -0.099226  -0.148153  0  4.002602  0
N  N82  1  0.63730640  0.25586029  0.88512559  1  0  -0.343167  0  3.233461  0  0  -0.277871  0  3.499437  0  0  -0.295511  0  3.516746  0  0  -0.316447  -0.265763  0  3.487436  0
N  N83  1  0.86269336  0.37073277  0.11487474  1  0  -0.343182  0  3.233459  0  0  -0.277888  0  3.499401  0  0  -0.295529  0  3.51671  0  0  -0.316433  -0.265781  0  3.4874  0
N  N84  1  0.36269271  0.74414131  0.11487625  1  0  -0.343188  0  3.233456  0  0  -0.277885  0  3.499424  0  0  -0.295526  0  3.516732  0  0  -0.316443  -0.26578  0  3.487424  0
N  N85  1  0.13730442  0.62926883  0.88512618  1  0  -0.343266  0  3.233533  0  0  -0.277956  0  3.499432  0  0  -0.295587  0  3.516749  0  0  -0.316482  -0.265851  0  3.487436  0
O  O86  1  0.75834471  0.79552075  0.84830162  1  0  -0.75602  0  2.032259  0  0  -0.682474  0  2.264812  0  0  -0.703617  0  2.240093  0  0  -0.384265  -0.667595  0  2.28169  0
O  O87  1  0.74165660  0.94722025  0.15169855  1  0  -0.75603  0  2.032256  0  0  -0.682478  0  2.264797  0  0  -0.70362  0  2.240075  0  0  -0.384288  -0.667599  0  2.281675  0
O  O88  1  0.24165550  0.20447897  0.15169778  1  0  -0.756029  0  2.032242  0  0  -0.682487  0  2.264791  0  0  -0.70363  0  2.240069  0  0  -0.384279  -0.667609  0  2.281668  0
O  O89  1  0.25834240  0.05278041  0.84830040  1  0  -0.756039  0  2.032205  0  0  -0.682494  0  2.26476  0  0  -0.703636  0  2.240038  0  0  -0.3843  -0.667614  0  2.281638  0
O  O90  1  0.43349646  0.76954089  0.84851118  1  0  -0.862175  0  1.945808  0  0  -0.783231  0  2.225198  0  0  -0.810689  0  2.205523  0  0  -0.385797  -0.763607  0  2.238022  0
O  O91  1  0.06650422  0.92102942  0.15148865  1  0  -0.862158  0  1.945754  0  0  -0.783238  0  2.225157  0  0  -0.810696  0  2.205482  0  0  -0.385796  -0.763613  0  2.237982  0
O  O92  1  0.56650376  0.23045883  0.15148903  1  0  -0.86219  0  1.945794  0  0  -0.783249  0  2.22518  0  0  -0.810711  0  2.205513  0  0  -0.385792  -0.763618  0  2.237989  0
O  O93  1  0.93349171  0.07896747  0.84850819  1  0  -0.862221  0  1.945756  0  0  -0.783275  0  2.225158  0  0  -0.810733  0  2.20548  0  0  -0.385821  -0.763661  0  2.23801  0
O  O94  1  0.56306057  0.97816706  0.87678085  1  0  -0.886858  0  2.061762  0  0  -0.789798  0  2.331686  0  0  -0.817819  0  2.309241  0  0  -0.378698  -0.769931  0  2.346641  0
O  O95  1  0.93693907  0.10138580  0.12321855  1  0  -0.886883  0  2.061767  0  0  -0.789816  0  2.331678  0  0  -0.817837  0  2.309231  0  0  -0.3787  -0.76995  0  2.346636  0
O  O96  1  0.43693832  0.02183266  0.12321843  1  0  -0.886847  0  2.061724  0  0  -0.789839  0  2.331692  0  0  -0.817861  0  2.309244  0  0  -0.378726  -0.769974  0  2.346647  0
O  O97  1  0.06306114  0.89861392  0.87678085  1  0  -0.88689  0  2.061764  0  0  -0.789818  0  2.33166  0  0  -0.817842  0  2.309215  0  0  -0.378693  -0.769953  0  2.346618  0
