# generated using pymatgen
data_AlH5C12O5F2
_symmetry_space_group_name_H-M   'P 1'
_cell_length_a   6.63391838
_cell_length_b   14.18409161
_cell_length_c   14.83250068
_cell_angle_alpha   90.12804255
_cell_angle_beta   90.71411373
_cell_angle_gamma   89.67787047
_symmetry_Int_Tables_number   1
_chemical_formula_structural   AlH5C12O5F2
_chemical_formula_sum   'Al4 H20 C48 O20 F8'
_cell_volume   1395.54682763
_cell_formula_units_Z   4
loop_
 _symmetry_equiv_pos_site_id
 _symmetry_equiv_pos_as_xyz
  1  'x, y, z'
loop_
 _atom_site_type_symbol
 _atom_site_label
 _atom_site_symmetry_multiplicity
 _atom_site_fract_x
 _atom_site_fract_y
 _atom_site_fract_z
 _atom_site_occupancy
 _atom_site_pbe_bader_charge
 _atom_site_pbe_bader_spin_density
 _atom_site_pbe_cm5_charge
 _atom_site_pbe_ddec_charge
 _atom_site_pbe_ddec_spin_density
 _atom_site_pbe_ddec_sum_bond_order
 _atom_site_pbe_magmom
Al  Al0  1  0.98079122  0.00374674  0.49915949  1  2.50254  0  0.39955  1.646565  0  2.568468  0
Al  Al1  1  0.48079417  0.99564979  0.49635502  1  2.50191  0  0.399263  1.647151  0  2.567374  0
Al  Al2  1  0.99639360  0.49414646  0.00346700  1  2.501554  0  0.400073  1.650414  0  2.564636  0
Al  Al3  1  0.49745602  0.50150507  0.99918387  1  2.503644  0  0.400606  1.649726  0  2.565027  0
H  H4  1  0.71641325  0.11866878  0.46754175  1  0.616244  0  0.355955  0.440123  0  0.844136  0
H  H5  1  0.23402645  0.92263209  0.58661181  1  0.626784  0  0.342949  0.417702  0  0.886611  0
H  H6  1  0.74106169  0.40720592  0.92044066  1  0.623313  0  0.351709  0.434816  0  0.855195  0
H  H7  1  0.24269267  0.59617300  0.07390880  1  0.639173  0  0.352875  0.439513  0  0.848774  0
H  H8  1  0.97148845  0.52126152  0.73217530  1  0.087679  0  0.100943  0.10877  0  1.037339  0
H  H9  1  0.74672425  0.53608908  0.59909042  1  0.061736  0  0.101095  0.099476  0  0.999416  0
H  H10  1  0.98295174  0.27736914  0.49026418  1  0.044339  0  0.105653  0.112283  0  1.006628  0
H  H11  1  0.75391843  0.41455706  0.47730072  1  0.079006  0  0.102009  0.100222  0  1.003235  0
H  H12  1  0.49350162  0.47511597  0.26524546  1  0.084924  0  0.100906  0.109457  0  1.037373  0
H  H13  1  0.24886887  0.46724102  0.38939031  1  0.074751  0  0.101957  0.099394  0  0.999217  0
H  H14  1  0.45693753  0.73475892  0.49065762  1  0.089375  0  0.104695  0.110418  0  1.038501  0
H  H15  1  0.23059869  0.59735192  0.50242845  1  0.079021  0  0.099736  0.095611  0  1.018152  0
H  H16  1  0.13834979  0.64424525  0.88120535  1  0.143929  0  0.115247  0.12439  0  1.05462  0
H  H17  1  0.38850962  0.63520971  0.76159046  1  0.066488  0  0.102338  0.104351  0  0.997392  0
H  H18  1  0.02149664  0.81580035  0.59430960  1  0.0826  0  0.109774  0.110212  0  1.058298  0
H  H19  1  0.31908502  0.71466013  0.61307483  1  0.064449  0  0.100215  0.096432  0  1.030351  0
H  H20  1  0.98455153  0.22726954  0.99060786  1  0.111085  0  0.106725  0.115804  0  1.009137  0
H  H21  1  0.73470513  0.10008178  0.98233864  1  0.08163  0  0.105218  0.102891  0  0.988412  0
H  H22  1  0.94572246  0.99113086  0.23741132  1  0.068604  0  0.10275  0.111871  0  1.027692  0
H  H23  1  0.71248385  0.98219828  0.10679368  1  0.064974  0  0.105148  0.103445  0  0.985967  0
C  C24  1  0.23038185  0.05876334  0.34665224  1  1.608433  0  0.274542  0.667824  0  4.091486  0
C  C25  1  0.23570003  0.15549238  0.56684633  1  1.602916  0  0.270568  0.666074  0  4.087396  0
C  C26  1  0.73801367  0.93143829  0.64772127  1  1.597705  0  0.27311  0.673493  0  4.071917  0
C  C27  1  0.73838521  0.84664025  0.42594072  1  1.601573  0  0.272469  0.661338  0  4.082299  0
C  C28  1  0.25832415  0.34177566  0.06456083  1  1.602288  0  0.270555  0.663732  0  4.088409  0
C  C29  1  0.24098540  0.44320365  0.84641490  1  1.608841  0  0.271239  0.662192  0  4.093212  0
C  C30  1  0.74940622  0.65491457  0.93779245  1  1.591737  0  0.270141  0.663954  0  4.085129  0
C  C31  1  0.75805703  0.55113188  0.15475038  1  1.616049  0  0.275681  0.671483  0  4.082383  0
C  C32  1  0.24697789  0.38196829  0.76420445  1  0.039243  0  -0.01398  -0.179761  0  3.946697  0
C  C33  1  0.10934342  0.38996834  0.68902401  1  0.07937  0  -0.000394  0.068099  0  3.955063  0
C  C34  1  0.38520708  0.30858820  0.76478273  1  0.446726  0  0.102526  0.165731  0  4.067147  0
C  C35  1  0.97387928  0.46741321  0.67988676  1  -0.080985  0  -0.091342  -0.127447  0  3.964022  0
C  C36  1  0.84857064  0.47573417  0.60524839  1  0.01749  0  -0.091804  -0.079521  0  4.029055  0
C  C37  1  0.24702121  0.24031658  0.62690446  1  0.05888  0  -0.010952  -0.169295  0  3.940813  0
C  C38  1  0.38467208  0.23836237  0.69740709  1  0.548406  0  0.103487  0.16746  0  4.0835  0
C  C39  1  0.11140627  0.31912738  0.61933641  1  -0.007071  0  0.00104  0.069898  0  3.960427  0
C  C40  1  0.98070252  0.33032081  0.54346301  1  -0.012854  0  -0.090404  -0.129674  0  3.975331  0
C  C41  1  0.85239724  0.40696883  0.53636965  1  -0.067073  0  -0.090423  -0.07959  0  4.031195  0
C  C42  1  0.76568621  0.61265746  0.23679321  1  0.024846  0  -0.010819  -0.172216  0  3.9486  0
C  C43  1  0.62027199  0.60889067  0.30730353  1  0.07128  0  0.00018  0.067359  0  3.967819  0
C  C44  1  0.90624641  0.68397575  0.23850284  1  0.498913  0  0.102788  0.162512  0  4.070498  0
C  C45  1  0.48617875  0.53170790  0.31471702  1  -0.048396  0  -0.089834  -0.12769  0  3.964051  0
C  C46  1  0.34964022  0.52742270  0.38400585  1  -0.030297  0  -0.09117  -0.077637  0  4.027399  0
C  C47  1  0.75148511  0.76046974  0.36795367  1  0.009952  0  -0.012388  -0.178292  0  3.935299  0
C  C48  1  0.89941170  0.75693788  0.30315846  1  0.558658  0  0.10635  0.171505  0  4.072417  0
C  C49  1  0.61199180  0.68346967  0.37301129  1  0.025885  0  0.002028  0.073926  0  3.954821  0
C  C50  1  0.46721488  0.67721700  0.44240086  1  -0.033264  0  -0.092046  -0.134796  0  3.9731  0
C  C51  1  0.33975230  0.60090703  0.44807968  1  -0.092513  0  -0.09209  -0.082199  0  4.032054  0
C  C52  1  0.77111542  0.73540952  0.87331988  1  0.036737  0  -0.01346  -0.18029  0  3.927782  0
C  C53  1  0.93182464  0.73644324  0.80875305  1  -0.01193  0  0.00359  0.074021  0  3.931504  0
C  C54  1  0.62069065  0.80288133  0.86606124  1  0.525978  0  0.103691  0.168217  0  4.091802  0
C  C55  1  0.11047907  0.68124551  0.81844191  1  -0.045216  0  -0.090186  -0.130478  0  3.944395  0
C  C56  1  0.25107009  0.67651941  0.75090566  1  0.006753  0  -0.092822  -0.080241  0  4.027902  0
C  C57  1  0.75211035  0.86418812  0.72544531  1  0.062456  0  -0.014174  -0.178842  0  3.938886  0
C  C58  1  0.61509627  0.86851031  0.79464773  1  0.512314  0  0.101907  0.166369  0  4.084724  0
C  C59  1  0.91057128  0.79486768  0.73002978  1  0.000433  0  -0.000333  0.070636  0  3.956348  0
C  C60  1  0.04828624  0.78089834  0.65841461  1  -0.002564  0  -0.096522  -0.142223  0  3.976326  0
C  C61  1  0.21454857  0.72306656  0.66852963  1  -0.103003  0  -0.093847  -0.082611  0  4.038683  0
C  C62  1  0.26118703  0.25729640  0.12460066  1  0.035347  0  -0.011052  -0.174247  0  3.936899  0
C  C63  1  0.11287017  0.18385831  0.11915739  1  0.045193  0  0.002583  0.072056  0  3.951015  0
C  C64  1  0.39995526  0.25515994  0.19482847  1  0.510131  0  0.103994  0.16737  0  4.076465  0
C  C65  1  0.97736826  0.17591056  0.04469458  1  -0.078462  0  -0.088194  -0.122014  0  3.96564  0
C  C66  1  0.83666258  0.10470593  0.04046312  1  -0.02467  0  -0.088201  -0.078432  0  4.035115  0
C  C67  1  0.24158481  0.11942957  0.26451357  1  0.057376  0  -0.010864  -0.173241  0  3.947896  0
C  C68  1  0.38961728  0.18751854  0.26391609  1  0.491971  0  0.099759  0.159197  0  4.082589  0
C  C69  1  0.10194990  0.11496621  0.19007047  1  0.017422  0  0.001059  0.068952  0  3.960509  0
C  C70  1  0.95465943  0.04292830  0.18371340  1  -0.024876  0  -0.089692  -0.125053  0  3.963536  0
C  C71  1  0.82455560  0.03808113  0.11059930  1  -0.017006  0  -0.089473  -0.079199  0  4.036529  0
O  O72  1  0.05897901  0.04768766  0.38251681  1  -1.250956  0  -0.226453  -0.580002  0  2.336448  0
O  O73  1  0.40134915  0.12060606  0.54016393  1  -1.244324  0  -0.23633  -0.601857  0  2.356718  0
O  O74  1  0.56396718  0.94762616  0.61390824  1  -1.252016  0  -0.233559  -0.596886  0  2.34076  0
O  O75  1  0.90416443  0.88354878  0.45095917  1  -1.247957  0  -0.231797  -0.587739  0  2.372054  0
O  O76  1  0.90305287  0.96441288  0.61915876  1  -1.250514  0  -0.233348  -0.586369  0  2.346034  0
O  O77  1  0.56392292  0.87736347  0.44504940  1  -1.236004  0  -0.221477  -0.560275  0  2.33982  0
O  O78  1  0.39643950  0.02725169  0.37736393  1  -1.247808  0  -0.230062  -0.580711  0  2.363671  0
O  O79  1  0.06019559  0.12359941  0.55000294  1  -1.240624  0  -0.229852  -0.584283  0  2.332053  0
O  O80  1  0.72692761  0.05107229  0.47581523  1  -1.413659  0  -0.447993  -0.999799  0  2.218294  0
O  O81  1  0.23057952  0.95015721  0.52658083  1  -1.431882  0  -0.4487  -0.986912  0  2.201649  0
O  O82  1  0.08509309  0.37238598  0.04027138  1  -1.253899  0  -0.22975  -0.587346  0  2.360221  0
O  O83  1  0.41006064  0.46753061  0.87972717  1  -1.250785  0  -0.232348  -0.593707  0  2.37652  0
O  O84  1  0.57269789  0.62256660  0.94792092  1  -1.224869  0  -0.229782  -0.575792  0  2.325988  0
O  O85  1  0.92309086  0.51761849  0.12635793  1  -1.246063  0  -0.231908  -0.584693  0  2.333939  0
O  O86  1  0.90856080  0.62090887  0.97393229  1  -1.260263  0  -0.237359  -0.597305  0  2.390129  0
O  O87  1  0.58648828  0.54308183  0.11623572  1  -1.250976  0  -0.224219  -0.582489  0  2.335374  0
O  O88  1  0.42578193  0.37869121  0.04489345  1  -1.239908  0  -0.232649  -0.58748  0  2.360715  0
O  O89  1  0.06958522  0.46203850  0.87990290  1  -1.253796  0  -0.230715  -0.588368  0  2.338681  0
O  O90  1  0.74529212  0.44927037  0.97206224  1  -1.418425  0  -0.447495  -0.99384  0  2.211536  0
O  O91  1  0.24566630  0.54816995  0.02721809  1  -1.434044  0  -0.446792  -0.99711  0  2.204477  0
F  F92  1  0.51489162  0.16602681  0.70966955  1  -0.616985  0  -0.079937  -0.096341  0  1.388116  0
F  F93  1  0.51876925  0.29496216  0.83349411  1  -0.623931  0  -0.080687  -0.106056  0  1.38743  0
F  F94  1  0.03548795  0.82628181  0.29287461  1  -0.617739  0  -0.071904  -0.093631  0  1.409473  0
F  F95  1  0.04786302  0.69299030  0.17409441  1  -0.629955  0  -0.077506  -0.104118  0  1.389273  0
F  F96  1  0.47008278  0.93563369  0.79715975  1  -0.626104  0  -0.087582  -0.105549  0  1.369769  0
F  F97  1  0.47319956  0.81012080  0.92755672  1  -0.615896  0  -0.084704  -0.103266  0  1.3777  0
F  F98  1  0.52323320  0.19856352  0.33296176  1  -0.624749  0  -0.084268  -0.109654  0  1.392773  0
F  F99  1  0.54317143  0.32172950  0.20603195  1  -0.626746  0  -0.07503  -0.097865  0  1.415852  0
