# generated using pymatgen
data_Al2H10C14IO10
_symmetry_space_group_name_H-M   'P 1'
_cell_length_a   6.67776320
_cell_length_b   13.73314278
_cell_length_c   16.45387564
_cell_angle_alpha   90.65695410
_cell_angle_beta   89.58509559
_cell_angle_gamma   89.92194989
_symmetry_Int_Tables_number   1
_chemical_formula_structural   Al2H10C14IO10
_chemical_formula_sum   'Al4 H20 C28 I2 O20'
_cell_volume   1508.78990998
_cell_formula_units_Z   2
loop_
 _symmetry_equiv_pos_site_id
 _symmetry_equiv_pos_as_xyz
  1  'x, y, z'
loop_
 _atom_site_type_symbol
 _atom_site_label
 _atom_site_symmetry_multiplicity
 _atom_site_fract_x
 _atom_site_fract_y
 _atom_site_fract_z
 _atom_site_occupancy
 _atom_site_pbe_bader_charge
 _atom_site_pbe_bader_spin_density
 _atom_site_pbe_cm5_charge
 _atom_site_pbe_ddec_charge
 _atom_site_pbe_ddec_spin_density
 _atom_site_pbe_ddec_sum_bond_order
 _atom_site_pbe_magmom
Al  Al0  1  0.86420623  0.50005939  0.50139775  1  2.500311  0  0.398816  1.650685  0  2.579985  0
Al  Al1  1  0.36447155  0.50185114  0.49970327  1  2.502151  0  0.396575  1.649413  0  2.579448  0
Al  Al2  1  0.39987554  0.00963006  0.00573525  1  2.503227  0  0.391701  1.64125  0  2.572733  0
Al  Al3  1  0.89988653  0.00887825  0.00836154  1  2.501783  0  0.390552  1.649108  0  2.572534  0
H  H4  1  0.77874439  0.27576202  0.29789992  1  0.07606  0  0.104833  0.106614  0  0.988155  0
H  H5  1  0.98697819  0.09429272  0.29140530  1  0.090041  0  0.105451  0.096142  0  0.98073  0
H  H6  1  0.32106908  0.18677504  0.36817496  1  0.07634  0  0.101773  0.089042  0  0.988751  0
H  H7  1  0.47985355  0.23050197  0.21064303  1  0.077737  0  0.096464  0.087994  0  1.017888  0
H  H8  1  0.27138265  0.41050007  0.21742231  1  0.052976  0  0.106908  0.106162  0  0.978566  0
H  H9  1  0.82058951  0.30261083  0.69918575  1  0.084126  0  0.111828  0.109463  0  0.97822  0
H  H10  1  0.28050195  0.31558064  0.70786995  1  0.07579  0  0.109746  0.126512  0  0.991548  0
H  H11  1  0.84030638  0.20796740  0.82615660  1  0.114357  0  0.11334  0.115483  0  0.975574  0
H  H12  1  0.29506517  0.19540014  0.79437090  1  0.079473  0  0.108504  0.125759  0  0.990065  0
H  H13  1  0.93735361  0.79409385  0.18728405  1  0.092124  0  0.114387  0.114232  0  0.974865  0
H  H14  1  0.48599949  0.82632428  0.21769924  1  0.087925  0  0.109559  0.124991  0  0.991731  0
H  H15  1  0.92742379  0.69827182  0.31513245  1  0.090031  0  0.112932  0.111826  0  0.97865  0
H  H16  1  0.47135841  0.68892863  0.28892266  1  0.06709  0  0.109071  0.125527  0  0.993055  0
H  H17  1  0.52115638  0.77879448  0.82298165  1  0.112013  0  0.108297  0.135832  0  1.007885  0
H  H18  1  0.92392470  0.69557459  0.68503320  1  0.131613  0  0.10911  0.116089  0  0.999029  0
H  H19  1  0.46763040  0.73210428  0.68748905  1  0.073517  0  0.10088  0.113341  0  1.034404  0
H  H20  1  0.61231601  0.37238051  0.49551685  1  0.609691  0  0.357116  0.43421  0  0.846552  0
H  H21  1  0.11211678  0.62904781  0.50944765  1  0.597706  0  0.357371  0.435898  0  0.844313  0
H  H22  1  0.65046796  0.13629503  0.02597619  1  0.622511  0  0.33911  0.414648  0  0.887782  0
H  H23  1  0.15176754  0.88906590  0.97239344  1  0.610133  0  0.344652  0.421084  0  0.871905  0
C  C24  1  0.61614064  0.61316169  0.38796228  1  1.5621  0  0.256048  0.673529  0  4.126177  0
C  C25  1  0.61485328  0.62410699  0.60762593  1  1.575959  0  0.261628  0.682194  0  4.102022  0
C  C26  1  0.11725055  0.38868555  0.61333654  1  1.573102  0  0.256003  0.672373  0  4.126801  0
C  C27  1  0.11377965  0.38262787  0.39031505  1  1.585019  0  0.267565  0.643967  0  4.105686  0
C  C28  1  0.93413346  0.26428827  0.27884258  1  -0.00776  0  -0.078879  -0.094556  0  3.646204  0
C  C29  1  0.02403274  0.28915614  0.19370077  1  -0.134395  0  -0.027579  0.064477  0  3.538042  0
C  C30  1  0.14250800  0.18939202  0.19055239  1  0.022565  0  -0.005065  -0.053506  0  3.651434  0
C  C31  1  0.05055640  0.16521069  0.27632046  1  -0.04829  0  -0.068076  -0.053158  0  3.617226  0
C  C32  1  0.23652555  0.21510181  0.31692026  1  -0.031817  0  -0.070723  -0.061934  0  3.623667  0
C  C33  1  0.32510106  0.24035341  0.23126693  1  -0.033244  0  -0.076361  -0.062983  0  3.641419  0
C  C34  1  0.20956110  0.33961899  0.23358188  1  0.012437  0  -0.067818  -0.080466  0  3.607171  0
C  C35  1  0.11792521  0.31429833  0.31969756  1  -0.003488  0  -0.002192  -0.027873  0  3.642682  0
C  C36  1  0.96894382  0.28631488  0.72322005  1  0.011411  0  -0.067546  -0.022038  0  3.978451  0
C  C37  1  0.12863580  0.32652924  0.68571077  1  -0.067283  0  -0.086259  -0.231403  0  3.880783  0
C  C38  1  0.98002864  0.22462020  0.79421339  1  -0.050421  0  -0.068182  -0.025108  0  3.97232  0
C  C39  1  0.14960521  0.18499547  0.82361418  1  -0.065959  0  -0.086767  -0.232622  0  3.886124  0
C  C40  1  0.79304571  0.78267394  0.21747398  1  -0.001678  0  -0.068496  -0.027579  0  3.98392  0
C  C41  1  0.63330837  0.83161361  0.18896837  1  -0.086049  0  -0.084857  -0.228915  0  3.882024  0
C  C42  1  0.78604755  0.71731390  0.28612607  1  -0.008019  0  -0.06769  -0.022593  0  3.982616  0
C  C43  1  0.61749350  0.67663372  0.31622769  1  -0.047852  0  -0.0868  -0.236695  0  3.885665  0
C  C44  1  0.80338927  0.80223496  0.77160497  1  -0.259778  0  -0.029854  0.103703  0  3.907712  0
C  C45  1  0.65863517  0.82155950  0.82741959  1  0.046223  0  -0.097736  -0.28128  0  3.86673  0
C  C46  1  0.78518572  0.72905234  0.70734035  1  -0.073622  0  -0.078299  -0.064279  0  3.991279  0
C  C47  1  0.61310188  0.70050595  0.67195732  1  0.004431  0  -0.085646  -0.214378  0  3.855772  0
C  C48  1  0.65935903  0.89285690  0.89508536  1  1.572212  0  0.25799  0.694153  0  4.098629  0
C  C49  1  0.64051016  0.89468499  0.11697548  1  1.569515  0  0.255439  0.669248  0  4.129885  0
C  C50  1  0.14362910  0.12154781  0.11986339  1  1.58113  0  0.266666  0.647554  0  4.103234  0
C  C51  1  0.15353576  0.12382721  0.89682082  1  1.560386  0  0.25016  0.661839  0  4.14784  0
I  I52  1  0.85624787  0.34509333  0.09477015  1  0.030784  0  0.030348  -0.090366  0  1.250301  0
I  I53  1  0.08201322  0.87500496  0.76595281  1  0.148085  0  0.123331  0.018096  0  1.487655  0
O  O54  1  0.44501813  0.59987145  0.57864559  1  -1.246523  0  -0.238016  -0.591621  0  2.288179  0
O  O55  1  0.78316429  0.59176548  0.42036304  1  -1.25742  0  -0.241361  -0.603556  0  2.335436  0
O  O56  1  0.94295976  0.41085223  0.41611734  1  -1.249651  0  -0.233493  -0.587752  0  2.328967  0
O  O57  1  0.78422351  0.58948510  0.58573266  1  -1.269303  0  -0.237367  -0.596955  0  2.337135  0
O  O58  1  0.94665373  0.40840306  0.58304286  1  -1.260678  0  -0.242687  -0.603903  0  2.311395  0
O  O59  1  0.44317674  0.58576821  0.41249325  1  -1.257663  0  -0.242956  -0.600849  0  2.3026  0
O  O60  1  0.61391587  0.44255588  0.50107131  1  -1.412692  0  -0.447797  -0.99822  0  2.221697  0
O  O61  1  0.28702276  0.41743468  0.58637434  1  -1.254673  0  -0.242601  -0.603305  0  2.317859  0
O  O62  1  0.28329273  0.40647899  0.41950242  1  -1.255888  0  -0.238362  -0.594575  0  2.321383  0
O  O63  1  0.11356610  0.55935430  0.50019329  1  -1.400788  0  -0.448703  -0.999675  0  2.216588  0
O  O64  1  0.80881579  0.91021480  0.08240681  1  -1.260993  0  -0.24111  -0.597351  0  2.319681  0
O  O65  1  0.48881285  0.91206198  0.92729486  1  -1.252206  0  -0.239164  -0.598482  0  2.306183  0
O  O66  1  0.32659457  0.09217846  0.91688040  1  -1.25384  0  -0.245486  -0.600913  0  2.302836  0
O  O67  1  0.47072787  0.92763897  0.09470268  1  -1.247166  0  -0.240447  -0.590662  0  2.308862  0
O  O68  1  0.30984494  0.10533934  0.08397944  1  -1.257867  0  -0.230001  -0.580607  0  2.331433  0
O  O69  1  0.82605086  0.92818060  0.91754046  1  -1.262548  0  -0.234089  -0.592442  0  2.404942  0
O  O70  1  0.65009348  0.06863841  0.00831061  1  -1.430627  0  -0.448834  -0.98818  0  2.209512  0
O  O71  1  0.97405463  0.08627560  0.10047450  1  -1.256932  0  -0.234294  -0.592959  0  2.348043  0
O  O72  1  0.98910951  0.10778180  0.93408665  1  -1.262011  0  -0.242749  -0.612149  0  2.3654  0
O  O73  1  0.15026468  0.94901208  0.00412686  1  -1.414961  0  -0.449814  -0.986548  0  2.194676  0
