# generated using pymatgen
data_CuH4C6BrN2
_symmetry_space_group_name_H-M   'P 1'
_cell_length_a   3.81975523
_cell_length_b   12.65316300
_cell_length_c   14.87591070
_cell_angle_alpha   90.00007119
_cell_angle_beta   89.99950379
_cell_angle_gamma   97.67657561
_symmetry_Int_Tables_number   1
_chemical_formula_structural   CuH4C6BrN2
_chemical_formula_sum   'Cu4 H16 C24 Br4 N8'
_cell_volume   712.53870646
_cell_formula_units_Z   4
loop_
 _symmetry_equiv_pos_site_id
 _symmetry_equiv_pos_as_xyz
  1  'x, y, z'
loop_
 _atom_site_type_symbol
 _atom_site_label
 _atom_site_symmetry_multiplicity
 _atom_site_fract_x
 _atom_site_fract_y
 _atom_site_fract_z
 _atom_site_occupancy
 _atom_site_hle17_bader_spin_density
 _atom_site_hle17_ddec_charge
 _atom_site_hle17_ddec_spin_density
 _atom_site_hle17_ddec_sum_bond_order
 _atom_site_hle17_magmom
 _atom_site_hse06_10hf_bader_spin_density
 _atom_site_hse06_10hf_ddec_charge
 _atom_site_hse06_10hf_ddec_spin_density
 _atom_site_hse06_10hf_ddec_sum_bond_order
 _atom_site_hse06_10hf_magmom
 _atom_site_hse06_bader_spin_density
 _atom_site_hse06_ddec_charge
 _atom_site_hse06_ddec_spin_density
 _atom_site_hse06_ddec_sum_bond_order
 _atom_site_hse06_magmom
 _atom_site_pbe_bader_spin_density
 _atom_site_pbe_cm5_charge
 _atom_site_pbe_ddec_charge
 _atom_site_pbe_ddec_spin_density
 _atom_site_pbe_ddec_sum_bond_order
 _atom_site_pbe_magmom
Cu  Cu0  1  0.51098301  0.96403400  0.25386385  1  0  0.493869  0  2.117644  0  0  0.397411  0  2.635888  0  0  0.388067  0  2.593121  0  0  0.461123  0.406578  0  2.662299  0
Cu  Cu1  1  0.48900568  0.53597298  0.75386069  1  0  0.4939  0  2.117736  0  0  0.39743  0  2.635937  0  0  0.3881  0  2.593181  0  0  0.461193  0.406589  0  2.662336  0
Cu  Cu2  1  0.48901592  0.03596667  0.74614066  1  0  0.493957  0  2.118125  0  0  0.397435  0  2.636387  0  0  0.388097  0  2.593649  0  0  0.461222  0.406614  0  2.662754  0
Cu  Cu3  1  0.51097553  0.46402287  0.24613778  1  0  0.494084  0  2.117692  0  0  0.397587  0  2.63588  0  0  0.388221  0  2.593093  0  0  0.461237  0.40674  0  2.662286  0
H  H4  1  0.69224269  0.74594142  0.27892624  1  0  0.087622  0  0.953536  0  0  0.092704  0  1.021339  0  0  0.09628  0  1.018436  0  0  0.103505  0.089893  0  1.023837  0
H  H5  1  0.30777626  0.75405848  0.77892834  1  0  0.087509  0  0.953545  0  0  0.092571  0  1.021353  0  0  0.096148  0  1.018447  0  0  0.103475  0.089762  0  1.023852  0
H  H6  1  0.30778178  0.25405772  0.72108163  1  0  0.087649  0  0.95334  0  0  0.092703  0  1.021171  0  0  0.096279  0  1.018265  0  0  0.103547  0.089893  0  1.023667  0
H  H7  1  0.69226094  0.24593351  0.22107080  1  0  0.087491  0  0.953485  0  0  0.092553  0  1.021335  0  0  0.096127  0  1.018438  0  0  0.103476  0.089746  0  1.023829  0
H  H8  1  0.71285353  0.61739215  0.40252735  1  0  0.114922  0  0.956511  0  0  0.121316  0  1.022962  0  0  0.125336  0  1.02052  0  0  0.105339  0.118347  0  1.024841  0
H  H9  1  0.28717254  0.88260946  0.90250941  1  0  0.114937  0  0.956514  0  0  0.121314  0  1.022985  0  0  0.12534  0  1.020527  0  0  0.105359  0.118339  0  1.024862  0
H  H10  1  0.28716050  0.38261333  0.59748658  1  0  0.114945  0  0.956446  0  0  0.121312  0  1.022929  0  0  0.125331  0  1.02049  0  0  0.105366  0.118342  0  1.024811  0
H  H11  1  0.71287356  0.11739132  0.09747023  1  0  0.114901  0  0.956506  0  0  0.121303  0  1.022932  0  0  0.125321  0  1.02051  0  0  0.105335  0.11833  0  1.024808  0
H  H12  1  0.27494366  0.84284553  0.57706715  1  0  0.116586  0  0.993771  0  0  0.121813  0  1.062358  0  0  0.12602  0  1.061008  0  0  0.091041  0.118621  0  1.063676  0
H  H13  1  0.72505070  0.65714858  0.07706357  1  0  0.116739  0  0.993713  0  0  0.121867  0  1.062377  0  0  0.126068  0  1.061037  0  0  0.091083  0.118691  0  1.063681  0
H  H14  1  0.72503359  0.15714713  0.42293736  1  0  0.116706  0  0.993742  0  0  0.121883  0  1.062336  0  0  0.126085  0  1.060992  0  0  0.09105  0.118703  0  1.063639  0
H  H15  1  0.27494207  0.34286243  0.92293086  1  0  0.116647  0  0.993657  0  0  0.121857  0  1.06226  0  0  0.126062  0  1.060915  0  0  0.091084  0.118679  0  1.063562  0
H  H16  1  0.25673957  0.96018562  0.44224050  1  0  0.080258  0  0.951889  0  0  0.086174  0  1.020931  0  0  0.089527  0  1.018385  0  0  0.106889  0.083733  0  1.022904  0
H  H17  1  0.74324818  0.53981514  0.94224685  1  0  0.080204  0  0.951719  0  0  0.086097  0  1.020784  0  0  0.089493  0  1.018199  0  0  0.106854  0.083653  0  1.022759  0
H  H18  1  0.74325478  0.03981663  0.55775930  1  0  0.080184  0  0.951766  0  0  0.086094  0  1.020816  0  0  0.08949  0  1.018229  0  0  0.106864  0.08365  0  1.022792  0
H  H19  1  0.25673960  0.46018392  0.05776103  1  0  0.080153  0  0.951813  0  0  0.086054  0  1.020881  0  0  0.089452  0  1.018291  0  0  0.106848  0.083609  0  1.022858  0
C  C20  1  0.59969014  0.76469862  0.34552059  1  0  0.139318  0  3.675893  0  0  0.10908  0  3.933204  0  0  0.115652  0  3.945565  0  0  0.043491  0.104347  0  3.925633  0
C  C21  1  0.40031674  0.73529015  0.84552449  1  0  0.139331  0  3.676031  0  0  0.109179  0  3.933201  0  0  0.115754  0  3.945558  0  0  0.043504  0.104434  0  3.925634  0
C  C22  1  0.40033391  0.23528697  0.65448325  1  0  0.139252  0  3.675816  0  0  0.10909  0  3.932998  0  0  0.115672  0  3.945347  0  0  0.043399  0.10435  0  3.925431  0
C  C23  1  0.59970345  0.26470500  0.15447331  1  0  0.139563  0  3.675548  0  0  0.109328  0  3.932789  0  0  0.115903  0  3.945143  0  0  0.043566  0.104582  0  3.925225  0
C  C24  1  0.61355894  0.69268780  0.41548400  1  0  -0.12834  0  3.683659  0  0  -0.150875  0  3.930008  0  0  -0.154756  0  3.947562  0  0  -0.074059  -0.14844  0  3.918781  0
C  C25  1  0.38644836  0.80731378  0.91548192  1  0  -0.128242  0  3.683578  0  0  -0.150798  0  3.929935  0  0  -0.154677  0  3.947494  0  0  -0.074013  -0.148363  0  3.918705  0
C  C26  1  0.38643737  0.30731287  0.58452589  1  0  -0.128355  0  3.683544  0  0  -0.150868  0  3.929871  0  0  -0.154749  0  3.947427  0  0  -0.074015  -0.148438  0  3.918648  0
C  C27  1  0.61357711  0.19268775  0.08450847  1  0  -0.128318  0  3.683259  0  0  -0.150827  0  3.929573  0  0  -0.154717  0  3.947125  0  0  -0.074016  -0.148396  0  3.918346  0
C  C28  1  0.49784597  0.71996365  0.50101773  1  0  0.053845  0  3.877058  0  0  0.074342  0  4.106203  0  0  0.075532  0  4.123727  0  0  0.012809  0.073002  0  4.094739  0
C  C29  1  0.50213915  0.78003994  0.00101609  1  0  0.053836  0  3.877197  0  0  0.074265  0  4.106382  0  0  0.075458  0  4.123902  0  0  0.012764  0.072925  0  4.094919  0
C  C30  1  0.50212514  0.28003935  0.49899082  1  0  0.054043  0  3.877116  0  0  0.074455  0  4.106317  0  0  0.075647  0  4.123838  0  0  0.012819  0.073113  0  4.094854  0
C  C31  1  0.49787750  0.21996556  0.99897767  1  0  0.053838  0  3.877201  0  0  0.074235  0  4.106404  0  0  0.075429  0  4.123922  0  0  0.012691  0.0729  0  4.09494  0
C  C32  1  0.36944198  0.81859101  0.51205723  1  0  -0.135081  0  3.691908  0  0  -0.156396  0  3.937693  0  0  -0.161028  0  3.956217  0  0  -0.07968  -0.153362  0  3.925707  0
C  C33  1  0.63054116  0.68141497  0.01206061  1  0  -0.135315  0  3.692123  0  0  -0.156484  0  3.937822  0  0  -0.16112  0  3.956363  0  0  -0.079759  -0.153468  0  3.925824  0
C  C34  1  0.63056291  0.18141764  0.48794190  1  0  -0.135378  0  3.69221  0  0  -0.156555  0  3.937923  0  0  -0.161189  0  3.956463  0  0  -0.079754  -0.153534  0  3.925922  0
C  C35  1  0.36943681  0.31858566  0.98793651  1  0  -0.13524  0  3.691977  0  0  -0.156459  0  3.937689  0  0  -0.161099  0  3.956229  0  0  -0.079748  -0.153447  0  3.925694  0
C  C36  1  0.36118567  0.88416736  0.43776803  1  0  0.117174  0  3.693699  0  0  0.089616  0  3.946926  0  0  0.094606  0  3.961195  0  0  0.036101  0.085758  0  3.938397  0
C  C37  1  0.63879999  0.61584056  0.93777197  1  0  0.117353  0  3.693663  0  0  0.089795  0  3.946824  0  0  0.094747  0  3.961079  0  0  0.036208  0.08595  0  3.938265  0
C  C38  1  0.63880610  0.11584127  0.56222640  1  0  0.117371  0  3.693743  0  0  0.089768  0  3.946956  0  0  0.094719  0  3.961216  0  0  0.036184  0.085917  0  3.938413  0
C  C39  1  0.36121533  0.38416174  0.06222716  1  0  0.117375  0  3.693674  0  0  0.089787  0  3.94687  0  0  0.094739  0  3.961126  0  0  0.036198  0.085949  0  3.938302  0
C  C40  1  0.50710010  0.65092091  0.57568741  1  0  0.301748  0  3.67255  0  0  0.285752  0  3.928034  0  0  0.298709  0  3.939019  0  0  0.198014  0.277526  0  3.920772  0
C  C41  1  0.49288750  0.84908195  0.07568247  1  0  0.301783  0  3.672588  0  0  0.285807  0  3.928071  0  0  0.298762  0  3.939057  0  0  0.198034  0.277583  0  3.920807  0
C  C42  1  0.49286015  0.34907490  0.42431710  1  0  0.30156  0  3.67256  0  0  0.28558  0  3.928072  0  0  0.298536  0  3.93906  0  0  0.197994  0.277356  0  3.920804  0
C  C43  1  0.50709871  0.15092587  0.92430994  1  0  0.301764  0  3.672481  0  0  0.285815  0  3.927947  0  0  0.298777  0  3.93893  0  0  0.198015  0.277585  0  3.920684  0
Br  Br44  1  0.06235550  0.08434515  0.28851742  1  0  -0.550588  0  1.306157  0  0  -0.485057  0  1.691639  0  0  -0.505536  0  1.66372  0  0  -0.265466  -0.46993  0  1.710388  0
Br  Br45  1  0.93763003  0.41565238  0.78851482  1  0  -0.550574  0  1.306045  0  0  -0.485076  0  1.69156  0  0  -0.50557  0  1.663657  0  0  -0.265479  -0.469951  0  1.710301  0
Br  Br46  1  0.93763690  0.91565870  0.71148911  1  0  -0.550552  0  1.306189  0  0  -0.485009  0  1.691655  0  0  -0.505502  0  1.663757  0  0  -0.265459  -0.469886  0  1.710392  0
Br  Br47  1  0.06234165  0.58433947  0.21148498  1  0  -0.550655  0  1.30607  0  0  -0.485109  0  1.691507  0  0  -0.505582  0  1.66358  0  0  -0.265476  -0.46998  0  1.710249  0
N  N48  1  0.47668503  0.85911373  0.35559141  1  0  -0.285246  0  3.352123  0  0  -0.218665  0  3.648625  0  0  -0.222574  0  3.650827  0  0  -0.356688  -0.216667  0  3.647303  0
N  N49  1  0.52332418  0.64088144  0.85559361  1  0  -0.285312  0  3.352291  0  0  -0.218712  0  3.648684  0  0  -0.222627  0  3.650911  0  0  -0.356754  -0.216715  0  3.647351  0
N  N50  1  0.52333973  0.14087984  0.64440638  1  0  -0.285299  0  3.352163  0  0  -0.218683  0  3.648539  0  0  -0.222597  0  3.650766  0  0  -0.356741  -0.216685  0  3.647211  0
N  N51  1  0.47667437  0.35911207  0.14440687  1  0  -0.285438  0  3.352246  0  0  -0.218804  0  3.648669  0  0  -0.222708  0  3.650867  0  0  -0.356789  -0.21681  0  3.647341  0
N  N52  1  0.50810243  0.59618004  0.63925190  1  0  -0.406105  0  3.124878  0  0  -0.36723  0  3.463909  0  0  -0.365849  0  3.456127  0  0  -0.382467  -0.369408  0  3.4685  0
N  N53  1  0.49187265  0.90382921  0.13924633  1  0  -0.406124  0  3.124653  0  0  -0.367259  0  3.463676  0  0  -0.365873  0  3.455891  0  0  -0.382407  -0.369444  0  3.468276  0
N  N54  1  0.49185328  0.40382372  0.36075126  1  0  -0.406056  0  3.124871  0  0  -0.36717  0  3.463871  0  0  -0.365782  0  3.456073  0  0  -0.382426  -0.36935  0  3.468454  0
N  N55  1  0.50811055  0.09617142  0.86074272  1  0  -0.406202  0  3.124891  0  0  -0.367331  0  3.463911  0  0  -0.365952  0  3.45614  0  0  -0.382482  -0.369516  0  3.468505  0
