# generated using pymatgen
data_SrH10C8SO10
_symmetry_space_group_name_H-M   'P 1'
_cell_length_a   7.20543656
_cell_length_b   8.34180973
_cell_length_c   11.93656888
_cell_angle_alpha   110.46557517
_cell_angle_beta   90.00013257
_cell_angle_gamma   89.99988704
_symmetry_Int_Tables_number   1
_chemical_formula_structural   SrH10C8SO10
_chemical_formula_sum   'Sr2 H20 C16 S2 O20'
_cell_volume   672.17937617
_cell_formula_units_Z   2
loop_
 _symmetry_equiv_pos_site_id
 _symmetry_equiv_pos_as_xyz
  1  'x, y, z'
loop_
 _atom_site_type_symbol
 _atom_site_label
 _atom_site_symmetry_multiplicity
 _atom_site_fract_x
 _atom_site_fract_y
 _atom_site_fract_z
 _atom_site_occupancy
 _atom_site_hle17_bader_spin_density
 _atom_site_hle17_ddec_charge
 _atom_site_hle17_ddec_spin_density
 _atom_site_hle17_ddec_sum_bond_order
 _atom_site_hle17_magmom
 _atom_site_hse06_10hf_bader_spin_density
 _atom_site_hse06_10hf_ddec_charge
 _atom_site_hse06_10hf_ddec_spin_density
 _atom_site_hse06_10hf_ddec_sum_bond_order
 _atom_site_hse06_10hf_magmom
 _atom_site_hse06_bader_spin_density
 _atom_site_hse06_ddec_charge
 _atom_site_hse06_ddec_spin_density
 _atom_site_hse06_ddec_sum_bond_order
 _atom_site_hse06_magmom
 _atom_site_pbe_bader_spin_density
 _atom_site_pbe_cm5_charge
 _atom_site_pbe_ddec_charge
 _atom_site_pbe_ddec_spin_density
 _atom_site_pbe_ddec_sum_bond_order
 _atom_site_pbe_magmom
Sr  Sr0  1  0.74999881  0.75853180  0.36265456  1  0  1.666098  0  1.07514  0  0  1.532601  0  1.44916  0  0  1.567355  0  1.403031  0  0  0.966994  1.506826  0  1.482067  0
Sr  Sr1  1  0.25000228  0.39571924  0.63746083  1  0  1.666954  0  1.073475  0  0  1.533284  0  1.4476  0  0  1.56769  0  1.401936  0  0  0.967157  1.507975  0  1.479807  0
H  H2  1  0.74999962  0.74419369  0.05462525  1  0  0.431032  0  0.87384  0  0  0.392509  0  0.94997  0  0  0.407411  0  0.928944  0  0  0.306767  0.382065  0  0.964672  0
H  H3  1  0.24999976  0.68922344  0.94534016  1  0  0.431122  0  0.873659  0  0  0.392461  0  0.95  0  0  0.407371  0  0.928951  0  0  0.306547  0.381986  0  0.964763  0
H  H4  1  0.93245337  0.09628748  0.31601304  1  0  0.430784  0  0.8096  0  0  0.417786  0  0.855477  0  0  0.42471  0  0.848258  0  0  0.338194  0.412764  0  0.860894  0
H  H5  1  0.06759522  0.78019789  0.68391679  1  0  0.430745  0  0.810052  0  0  0.417829  0  0.855771  0  0  0.424708  0  0.848625  0  0  0.338367  0.41286  0  0.861092  0
H  H6  1  0.43240448  0.78019897  0.68391648  1  0  0.430733  0  0.810062  0  0  0.417815  0  0.855784  0  0  0.424695  0  0.848638  0  0  0.338365  0.412847  0  0.861105  0
H  H7  1  0.56754695  0.09628640  0.31601419  1  0  0.430766  0  0.809587  0  0  0.417767  0  0.855468  0  0  0.42469  0  0.848249  0  0  0.338174  0.412744  0  0.860887  0
H  H8  1  0.06667269  0.94139205  0.25637312  1  0  0.426314  0  0.876169  0  0  0.392113  0  0.944664  0  0  0.402049  0  0.930218  0  0  0.303466  0.385172  0  0.954749  0
H  H9  1  0.93334451  0.68505290  0.74359000  1  0  0.427502  0  0.874646  0  0  0.393431  0  0.943033  0  0  0.403359  0  0.928592  0  0  0.304021  0.386488  0  0.953124  0
H  H10  1  0.56665472  0.68505312  0.74358980  1  0  0.427517  0  0.874631  0  0  0.393444  0  0.943019  0  0  0.403373  0  0.928578  0  0  0.304023  0.386501  0  0.95311  0
H  H11  1  0.43332778  0.94139183  0.25637416  1  0  0.426301  0  0.876183  0  0  0.392093  0  0.944692  0  0  0.402029  0  0.930246  0  0  0.303456  0.385153  0  0.954777  0
H  H12  1  0.85873392  0.59589748  0.55455896  1  0  0.422557  0  0.876012  0  0  0.394418  0  0.93559  0  0  0.404682  0  0.920313  0  0  0.300293  0.387115  0  0.946457  0
H  H13  1  0.14126636  0.04108332  0.44546705  1  0  0.423448  0  0.874949  0  0  0.395067  0  0.934824  0  0  0.405302  0  0.919599  0  0  0.300883  0.387769  0  0.945685  0
H  H14  1  0.35873410  0.04108448  0.44546666  1  0  0.423433  0  0.87497  0  0  0.395053  0  0.934842  0  0  0.405287  0  0.919618  0  0  0.300873  0.387755  0  0.945702  0
H  H15  1  0.64126618  0.59589761  0.55455884  1  0  0.422772  0  0.875741  0  0  0.394551  0  0.935431  0  0  0.404814  0  0.920156  0  0  0.300376  0.387248  0  0.946297  0
H  H16  1  0.74999873  0.46950744  0.87703066  1  0  0.117361  0  0.96567  0  0  0.118112  0  1.040595  0  0  0.123429  0  1.035038  0  0  0.111694  0.114218  0  1.044663  0
H  H17  1  0.24999830  0.59233263  0.12309875  1  0  0.117065  0  0.966948  0  0  0.118736  0  1.040687  0  0  0.124199  0  1.034884  0  0  0.11184  0.114773  0  1.044846  0
H  H18  1  0.75000037  0.16267747  0.10054129  1  0  0.111608  0  0.954701  0  0  0.116463  0  1.023498  0  0  0.121672  0  1.018126  0  0  0.109217  0.112676  0  1.027394  0
H  H19  1  0.25000177  0.06193689  0.89949238  1  0  0.112106  0  0.9554  0  0  0.116848  0  1.024201  0  0  0.122038  0  1.018842  0  0  0.109497  0.113092  0  1.028021  0
H  H20  1  0.75000207  0.91976218  0.71585444  1  0  0.09723  0  0.985915  0  0  0.099266  0  1.065026  0  0  0.104087  0  1.059712  0  0  0.111981  0.095692  0  1.06894  0
H  H21  1  0.25000321  0.20373698  0.28420753  1  0  0.096794  0  0.986566  0  0  0.099165  0  1.065456  0  0  0.104091  0  1.060074  0  0  0.112042  0.095528  0  1.069399  0
C  C22  1  0.74999588  0.47946599  0.11739166  1  0  0.651534  0  3.93389  0  0  0.602646  0  4.227241  0  0  0.635375  0  4.222186  0  0  0.208148  0.580553  0  4.229895  0
C  C23  1  0.25000001  0.36150338  0.88257351  1  0  0.650068  0  3.932741  0  0  0.600785  0  4.226736  0  0  0.633505  0  4.221688  0  0  0.207169  0.578694  0  4.229418  0
C  C24  1  0.74999978  0.85317963  0.92756948  1  0  0.670421  0  3.822997  0  0  0.613032  0  4.119063  0  0  0.647803  0  4.110253  0  0  0.240219  0.589499  0  4.124483  0
C  C25  1  0.24999782  0.92531760  0.07241590  1  0  0.669638  0  3.824723  0  0  0.612465  0  4.120556  0  0  0.64723  0  4.111821  0  0  0.239937  0.588954  0  4.125913  0
C  C26  1  0.75000303  0.19454710  0.78575498  1  0  -0.106486  0  3.684545  0  0  -0.07599  0  3.931825  0  0  -0.084928  0  3.952641  0  0  -0.001516  -0.070552  0  3.918048  0
C  C27  1  0.25000145  0.40859234  0.21429519  1  0  -0.107217  0  3.685731  0  0  -0.077006  0  3.933814  0  0  -0.08605  0  3.954787  0  0  -0.002606  -0.071454  0  3.919908  0
C  C28  1  0.75000028  0.34442671  0.88713030  1  0  -0.021886  0  3.62222  0  0  -0.063332  0  3.877291  0  0  -0.057585  0  3.89172  0  0  -0.055549  -0.066645  0  3.867583  0
C  C29  1  0.24999982  0.45709500  0.11291990  1  0  -0.021591  0  3.623465  0  0  -0.063804  0  3.878043  0  0  -0.058097  0  3.892442  0  0  -0.055074  -0.067104  0  3.868323  0
C  C30  1  0.74999860  0.33088668  0.00081396  1  0  -0.065676  0  3.728797  0  0  -0.03893  0  3.965615  0  0  -0.049662  0  3.989867  0  0  -0.011339  -0.03235  0  3.949635  0
C  C31  1  0.25000166  0.32983139  0.99922682  1  0  -0.063858  0  3.726582  0  0  -0.03647  0  3.962968  0  0  -0.047209  0  3.987266  0  0  -0.01058  -0.029863  0  3.946936  0
C  C32  1  0.75000019  0.16966560  0.01139397  1  0  -0.038329  0  3.694393  0  0  -0.079466  0  3.944684  0  0  -0.075248  0  3.963462  0  0  -0.068489  -0.081813  0  3.932021  0
C  C33  1  0.24999767  0.15801568  0.98867670  1  0  -0.0408  0  3.697247  0  0  -0.082277  0  3.94804  0  0  -0.078046  0  3.966895  0  0  -0.070013  -0.084623  0  3.935308  0
C  C34  1  0.75000208  0.02111920  0.91070384  1  0  -0.097732  0  3.802297  0  0  -0.072537  0  4.044363  0  0  -0.084648  0  4.069471  0  0  -0.024681  -0.064845  0  4.027433  0
C  C35  1  0.24999184  0.11011757  0.08932533  1  0  -0.097359  0  3.802882  0  0  -0.071905  0  4.044605  0  0  -0.084112  0  4.069845  0  0  -0.023429  -0.064152  0  4.027597  0
C  C36  1  0.75000184  0.03351509  0.79641622  1  0  -0.061052  0  3.714138  0  0  -0.101209  0  3.964507  0  0  -0.096032  0  3.98123  0  0  -0.071943  -0.104111  0  3.95312  0
C  C37  1  0.24999885  0.23686860  0.20363467  1  0  -0.060492  0  3.714118  0  0  -0.100992  0  3.964664  0  0  -0.095843  0  3.981366  0  0  -0.072019  -0.103895  0  3.953293  0
S  S38  1  0.75000273  0.20805627  0.63893448  1  0  1.378823  0  5.625373  0  0  1.280713  0  6.137435  0  0  1.330716  0  6.111383  0  0  0.554589  1.246071  0  6.154539  0
S  S39  1  0.25000017  0.56908242  0.36104305  1  0  1.380185  0  5.626469  0  0  1.282136  0  6.138505  0  0  1.332201  0  6.112362  0  0  0.554615  1.247432  0  6.155671  0
O  O40  1  0.75000277  0.03024854  0.55583604  1  0  -0.732132  0  1.957927  0  0  -0.673589  0  2.21191  0  0  -0.695516  0  2.194826  0  0  -0.370244  -0.657992  0  2.223265  0
O  O41  1  0.25000043  0.47456287  0.44419187  1  0  -0.732788  0  1.957726  0  0  -0.674375  0  2.21181  0  0  -0.696253  0  2.194722  0  0  -0.370929  -0.65884  0  2.223166  0
O  O42  1  0.91782728  0.30299079  0.63129508  1  0  -0.726793  0  1.976143  0  0  -0.666454  0  2.234166  0  0  -0.68993  0  2.218672  0  0  -0.387743  -0.649719  0  2.24432  0
O  O43  1  0.08216707  0.67162171  0.36860803  1  0  -0.726729  0  1.97572  0  0  -0.666551  0  2.23397  0  0  -0.690107  0  2.218468  0  0  -0.387134  -0.649723  0  2.244139  0
O  O44  1  0.41783306  0.67162407  0.36860969  1  0  -0.72675  0  1.97572  0  0  -0.666566  0  2.233956  0  0  -0.69012  0  2.218452  0  0  -0.387197  -0.649739  0  2.244127  0
O  O45  1  0.58217655  0.30299355  0.63129553  1  0  -0.726824  0  1.976186  0  0  -0.666468  0  2.234161  0  0  -0.689943  0  2.218665  0  0  -0.387779  -0.649735  0  2.244318  0
O  O46  1  0.74998916  0.44618605  0.21234082  1  0  -0.652311  0  1.939126  0  0  -0.606097  0  2.164716  0  0  -0.630155  0  2.157424  0  0  -0.353879  -0.589302  0  2.169329  0
O  O47  1  0.24999997  0.23313709  0.78766278  1  0  -0.652364  0  1.936393  0  0  -0.606281  0  2.162241  0  0  -0.63016  0  2.154933  0  0  -0.354215  -0.589663  0  2.166867  0
O  O48  1  0.74999987  0.63541816  0.11991070  1  0  -0.700251  0  2.03464  0  0  -0.636437  0  2.2634  0  0  -0.663015  0  2.249711  0  0  -0.353784  -0.617743  0  2.272227  0
O  O49  1  0.24999844  0.51493439  0.87997107  1  0  -0.700049  0  2.0339  0  0  -0.635993  0  2.262912  0  0  -0.662535  0  2.249211  0  0  -0.353249  -0.617343  0  2.271768  0
O  O50  1  0.74999946  0.86308055  0.03885453  1  0  -0.542581  0  2.116346  0  0  -0.489519  0  2.337727  0  0  -0.513063  0  2.319425  0  0  -0.305844  -0.47324  0  2.349927  0
O  O51  1  0.25000102  0.82385341  0.96112551  1  0  -0.542288  0  2.116183  0  0  -0.48938  0  2.337392  0  0  -0.512867  0  2.319055  0  0  -0.306317  -0.473151  0  2.349621  0
O  O52  1  0.74999977  0.71321595  0.84099584  1  0  -0.61602  0  2.028716  0  0  -0.547269  0  2.23691  0  0  -0.570326  0  2.224973  0  0  -0.286317  -0.531503  0  2.244922  0
O  O53  1  0.25000499  0.87194981  0.15896512  1  0  -0.614747  0  2.030262  0  0  -0.546131  0  2.238377  0  0  -0.569204  0  2.226467  0  0  -0.285663  -0.530388  0  2.246368  0
O  O54  1  0.97016139  0.98605076  0.31922010  1  0  -0.851952  0  1.850311  0  0  -0.801613  0  2.031065  0  0  -0.819893  0  2.004731  0  0  -0.585222  -0.788591  0  2.04928  0
O  O55  1  0.02985856  0.66676528  0.68073814  1  0  -0.853033  0  1.85  0  0  -0.80285  0  2.030061  0  0  -0.82111  0  2.003794  0  0  -0.58579  -0.789897  0  2.048255  0
O  O56  1  0.47014139  0.66676631  0.68073786  1  0  -0.853074  0  1.850004  0  0  -0.802868  0  2.030067  0  0  -0.821127  0  2.003801  0  0  -0.585794  -0.789914  0  2.048261  0
O  O57  1  0.52983831  0.98605100  0.31922153  1  0  -0.851948  0  1.850313  0  0  -0.801604  0  2.031058  0  0  -0.819889  0  2.004736  0  0  -0.585211  -0.788581  0  2.049272  0
O  O58  1  0.74999926  0.59514824  0.50450960  1  0  -0.891994  0  1.809169  0  0  -0.843587  0  1.978411  0  0  -0.860915  0  1.945058  0  0  -0.644218  -0.831215  0  2.001865  0
O  O59  1  0.25000096  0.09030207  0.49554969  1  0  -0.893806  0  1.807802  0  0  -0.845041  0  1.977869  0  0  -0.862282  0  1.944561  0  0  -0.645136  -0.832765  0  2.001308  0
