# generated using pymatgen
data_MnH12(C9N5)2
_symmetry_space_group_name_H-M   'P 1'
_cell_length_a   9.21116815
_cell_length_b   9.94475744
_cell_length_c   9.83643912
_cell_angle_alpha   89.99980294
_cell_angle_beta   106.64322759
_cell_angle_gamma   90.00030408
_symmetry_Int_Tables_number   1
_chemical_formula_structural   MnH12(C9N5)2
_chemical_formula_sum   'Mn2 H24 C36 N20'
_cell_volume   863.29796661
_cell_formula_units_Z   2
loop_
 _symmetry_equiv_pos_site_id
 _symmetry_equiv_pos_as_xyz
  1  'x, y, z'
loop_
 _atom_site_type_symbol
 _atom_site_label
 _atom_site_symmetry_multiplicity
 _atom_site_fract_x
 _atom_site_fract_y
 _atom_site_fract_z
 _atom_site_occupancy
 _atom_site_hle17_ddec_charge
 _atom_site_hle17_ddec_spin_density
 _atom_site_hle17_ddec_sum_bond_order
 _atom_site_hle17_magmom
 _atom_site_hse06_10hf_ddec_charge
 _atom_site_hse06_10hf_ddec_spin_density
 _atom_site_hse06_10hf_ddec_sum_bond_order
 _atom_site_hse06_10hf_magmom
 _atom_site_hse06_ddec_charge
 _atom_site_hse06_ddec_spin_density
 _atom_site_hse06_ddec_sum_bond_order
 _atom_site_hse06_magmom
 _atom_site_pbe_cm5_charge
 _atom_site_pbe_ddec_charge
 _atom_site_pbe_ddec_spin_density
 _atom_site_pbe_ddec_sum_bond_order
 _atom_site_pbe_magmom
Mn  Mn0  1  0.00000114  0.50000129  0.49999800  1  1.103329  -4.763707  2.005596  -4.647  0.952361  -4.667541  2.526659  -4.482  0.999372  -4.720852  2.465252  -4.554  0.665011  0.916082  -4.61122  2.57297  -4.408
Mn  Mn1  1  0.50000129  0.99999677  0.99999962  1  1.103424  -4.7638  2.005139  -4.647  0.952492  -4.667642  2.526119  -4.483  0.999507  -4.72095  2.464715  -4.554  0.664944  0.916205  -4.611339  2.572433  -4.409
H  H2  1  0.58526693  0.45537171  0.77731178  1  0.297013  -0.000227  0.917802  0.0  0.277279  -0.000454  0.980705  0.0  0.284278  -0.000347  0.976559  0.0  0.314568  0.27244  -0.000634  0.983723  0.0
H  H3  1  0.91474348  0.95538280  0.72269175  1  0.297052  -0.000231  0.917742  0.0  0.277248  -0.000454  0.980726  0.0  0.284248  -0.000347  0.976572  0.0  0.31457  0.27241  -0.000634  0.983745  0.0
H  H4  1  0.41473223  0.54462931  0.22268912  1  0.297037  -0.000228  0.917776  0.0  0.277312  -0.000454  0.980671  0.0  0.28431  -0.000347  0.976528  0.0  0.314587  0.272473  -0.000634  0.983688  0.0
H  H5  1  0.08525796  0.04461822  0.27731076  1  0.297039  -0.000226  0.917829  0.0  0.277245  -0.000454  0.980779  0.0  0.284239  -0.000347  0.976637  0.0  0.314571  0.272407  -0.000634  0.983795  0.0
H  H6  1  0.76275210  0.76962679  0.40759422  1  0.102736  0.000247  0.979733  0.0  0.113133  0.000192  1.041653  0.0  0.115137  0.000243  1.041739  0.0  0.101756  0.112154  0.000148  1.041282  0.0
H  H7  1  0.73725306  0.26962814  0.09240738  1  0.102795  0.000245  0.979669  0.0  0.113184  0.000192  1.041584  0.0  0.115191  0.000243  1.041665  0.0  0.101731  0.112203  0.000148  1.041212  0.0
H  H8  1  0.23724705  0.23037121  0.59240464  1  0.102736  0.000272  0.979752  0.0  0.113132  0.000192  1.041679  0.0  0.115137  0.000242  1.041762  0.0  0.101762  0.112153  0.000148  1.041307  0.0
H  H9  1  0.26274836  0.73037388  0.90759309  1  0.102801  0.000249  0.979641  0.0  0.113192  0.000192  1.041558  0.0  0.115198  0.000242  1.04164  0.0  0.101743  0.112211  0.000148  1.041185  0.0
H  H10  1  0.53183778  0.90943463  0.36838726  1  0.08884  0.000407  0.993216  0.0  0.097306  0.000397  1.06138  0.0  0.099247  0.000433  1.061893  0.0  0.093168  0.095583  0.000312  1.061772  0.0
H  H11  1  0.96817043  0.40943698  0.13162381  1  0.088784  0.000421  0.993218  0.0  0.097297  0.000396  1.061348  0.0  0.099235  0.000432  1.061858  0.0  0.093174  0.095573  0.000312  1.061737  0.0
H  H12  1  0.46816136  0.09056438  0.63161160  1  0.088847  0.000416  0.99323  0.0  0.09731  0.000396  1.061398  0.0  0.099251  0.000435  1.061909  0.0  0.093154  0.095588  0.000312  1.061788  0.0
H  H13  1  0.03183101  0.59056102  0.86837870  1  0.08881  0.000437  0.99325  0.0  0.097287  0.000397  1.061411  0.0  0.099226  0.000434  1.061922  0.0  0.09317  0.095563  0.000312  1.061798  0.0
H  H14  1  0.34112961  0.86296926  0.49510448  1  0.079837  -1.6e-05  0.971325  0.0  0.09052  -8.8e-05  1.034097  0.0  0.092498  -5e-05  1.034354  0.0  0.092349  0.088658  -0.000109  1.035205  0.0
H  H15  1  0.15888036  0.36298058  0.00490252  1  0.079714  -2.7e-05  0.971404  0.0  0.09047  -8.8e-05  1.034123  0.0  0.092448  -5e-05  1.034379  0.0  0.092309  0.088604  -0.000109  1.035231  0.0
H  H16  1  0.65886954  0.13703075  0.50489438  1  0.079849  -1.8e-05  0.971326  0.0  0.090535  -8.8e-05  1.034097  0.0  0.092512  -4.8e-05  1.034355  0.0  0.09235  0.088671  -0.000109  1.035204  0.0
H  H17  1  0.84112336  0.63701943  0.99510160  1  0.079755  -2.3e-05  0.971435  0.0  0.090473  -8.8e-05  1.034188  0.0  0.092449  -5e-05  1.034447  0.0  0.092307  0.08861  -0.000109  1.035296  0.0
H  H18  1  0.37513075  0.67289403  0.66759391  1  0.107666  0.000292  0.967825  0.0  0.118203  0.000274  1.028791  0.0  0.120245  0.000313  1.028903  0.0  0.10344  0.11706  0.000195  1.028338  0.0
H  H19  1  0.12488705  0.17291110  0.83241292  1  0.10769  0.000299  0.967786  0.0  0.118289  0.000274  1.028701  0.0  0.120311  0.000313  1.028837  0.0  0.103457  0.117146  0.000195  1.028248  0.0
H  H20  1  0.62486841  0.32710699  0.33240597  1  0.107671  0.000277  0.967845  0.0  0.118209  0.000273  1.028808  0.0  0.120249  0.000313  1.028923  0.0  0.103445  0.117063  0.000195  1.028356  0.0
H  H21  1  0.87511778  0.82708992  0.16758946  1  0.107651  0.000281  0.967886  0.0  0.118262  0.000274  1.028781  0.0  0.120272  0.000313  1.028931  0.0  0.103455  0.117121  0.000195  1.02833  0.0
H  H22  1  0.83609415  0.37489582  0.73912857  1  0.085346  0.000312  0.961078  0.0  0.093397  -6e-06  1.027681  0.0  0.094671  6.7e-05  1.026677  0.0  0.134304  0.092265  -8e-05  1.028843  0.0
H  H23  1  0.66391919  0.87490453  0.76086889  1  0.085298  0.000292  0.961186  0.0  0.093402  -6e-06  1.027771  0.0  0.094673  6.9e-05  1.02677  0.0  0.13434  0.092288  -8e-05  1.028887  0.0
H  H24  1  0.16390387  0.62510319  0.26087101  1  0.085339  0.000343  0.961106  0.0  0.0934  -5e-06  1.027704  0.0  0.094673  6.8e-05  1.026702  0.0  0.134309  0.092274  -8e-05  1.028859  0.0
H  H25  1  0.33608337  0.12509849  0.23913188  1  0.08529  0.000329  0.961182  0.0  0.093384  -5e-06  1.027768  0.0  0.094659  6.8e-05  1.026764  0.0  0.134313  0.092261  -8e-05  1.028908  0.0
C  C26  1  0.69945095  0.64063278  0.55963235  1  0.132284  -0.000977  3.814327  -0.002  0.135466  -0.001991  4.052773  -0.003  0.138438  -0.001597  4.077214  -0.002  0.083694  0.133491  -0.002111  4.036104  -0.003
C  C27  1  0.80055670  0.14064332  0.94036849  1  0.132614  -0.000977  3.813786  -0.002  0.13543  -0.001994  4.052677  -0.003  0.138403  -0.001595  4.077118  -0.002  0.08365  0.133452  -0.002111  4.036008  -0.003
C  C28  1  0.30054820  0.35936723  0.44036753  1  0.132246  -0.000915  3.814412  -0.002  0.13546  -0.001992  4.05279  -0.003  0.138433  -0.001597  4.077228  -0.002  0.083676  0.133484  -0.002111  4.036119  -0.003
C  C29  1  0.19944243  0.85936172  0.05962833  1  0.132448  -0.001027  3.814036  -0.002  0.135424  -0.00199  4.052755  -0.003  0.138397  -0.001597  4.077197  -0.002  0.083658  0.133447  -0.00211  4.036088  -0.003
C  C30  1  0.67994704  0.74854403  0.46446339  1  -0.154355  0.000715  3.767845  0.0  -0.172378  0.000411  4.015283  0.0  -0.175328  0.000607  4.036894  0.0  -0.102627  -0.170478  -7.9e-05  3.999977  0.0
C  C31  1  0.82006371  0.24855000  0.03554280  1  -0.154539  0.000691  3.767723  0.0  -0.172434  0.000416  4.015252  0.0  -0.175384  0.000608  4.036859  0.0  -0.102507  -0.170536  -7.9e-05  3.999941  0.0
C  C32  1  0.32005325  0.25145598  0.53553678  1  -0.154337  0.000458  3.7679  0.0  -0.172382  0.000416  4.015336  0.0  -0.175328  0.000621  4.03694  0.0  -0.10264  -0.170482  -7.9e-05  4.000027  0.0
C  C33  1  0.17993658  0.75145403  0.96445738  1  -0.154481  0.000772  3.767723  0.0  -0.17242  0.00041  4.015207  0.0  -0.175367  0.000608  4.036813  0.0  -0.102541  -0.170521  -7.9e-05  3.999896  0.0
C  C34  1  0.54997130  0.82662508  0.44367593  1  -0.090916  -0.000332  3.797065  0.0  -0.109243  -0.000512  4.054292  0.0  -0.111586  -0.000411  4.077425  0.0  -0.108958  -0.106794  -0.000546  4.039048  0.0
C  C35  1  0.95003758  0.32663263  0.05633052  1  -0.090834  -0.000328  3.796895  0.0  -0.109206  -0.000513  4.054129  0.0  -0.111544  -0.00041  4.077258  0.0  -0.108962  -0.106755  -0.000546  4.038875  0.0
C  C36  1  0.45002785  0.17337493  0.55632395  1  -0.09093  -0.00022  3.79708  0.0  -0.109258  -0.000516  4.05431  0.0  -0.1116  -0.00042  4.077438  0.0  -0.108917  -0.106808  -0.000546  4.039061  0.0
C  C37  1  0.04996384  0.67336939  0.94366995  1  -0.090843  -0.000407  3.796902  0.0  -0.109184  -0.000512  4.054134  0.0  -0.111522  -0.000412  4.077261  0.0  -0.108924  -0.106731  -0.000546  4.038877  0.0
C  C38  1  0.44160048  0.79964867  0.51603580  1  -0.077489  0.000561  3.800156  0.0  -0.093149  0.000217  4.056837  0.0  -0.09576  0.0004  4.080026  0.0  -0.102575  -0.091281  -0.000232  4.042528  0.0
C  C39  1  0.05840890  0.29965987  0.98396940  1  -0.077376  0.000601  3.800015  0.0  -0.093103  0.000216  4.056714  0.0  -0.095713  0.000397  4.079897  0.0  -0.102563  -0.091233  -0.000232  4.042397  0.0
C  C40  1  0.55839981  0.20035235  0.48396437  1  -0.077496  0.000459  3.800192  0.0  -0.093155  0.000217  4.056863  0.0  -0.095766  0.000399  4.080052  0.0  -0.102582  -0.091287  -0.000232  4.042548  0.0
C  C41  1  0.94159139  0.70034114  0.01603179  1  -0.07739  0.000608  3.80002  0.0  -0.093086  0.000217  4.056708  0.0  -0.095696  0.0004  4.07989  0.0  -0.102547  -0.091219  -0.000232  4.042397  0.0
C  C42  1  0.45948908  0.69403411  0.61247908  1  -0.150182  -0.000189  3.75405  0.0  -0.168434  -0.000155  4.007349  0.0  -0.171082  -9.2e-05  4.028011  0.0  -0.097193  -0.166959  -0.000346  3.993507  0.0
C  C43  1  0.04052082  0.19405259  0.88751646  1  -0.150248  -0.000223  3.75401  0.0  -0.168562  -0.000155  4.007312  0.0  -0.171196  -8.9e-05  4.027983  0.0  -0.097191  -0.167087  -0.000345  3.993464  0.0
C  C44  1  0.54051121  0.30596691  0.38752109  1  -0.150191  -8.6e-05  3.754102  0.0  -0.168442  -0.00015  4.0074  0.0  -0.171089  -8.9e-05  4.028064  0.0  -0.0972  -0.166967  -0.000346  3.993553  0.0
C  C45  1  0.95948059  0.80595044  0.11248299  1  -0.150256  -0.00019  3.754017  0.0  -0.16856  -0.000154  4.007345  0.0  -0.171185  -8.8e-05  4.028023  0.0  -0.097224  -0.167087  -0.000345  3.993506  0.0
C  C46  1  0.58969690  0.61547642  0.63261965  1  0.147399  -0.000379  3.783094  -0.001  0.139853  -0.000824  4.02766  -0.001  0.143856  -0.000501  4.04953  -0.001  0.090544  0.136966  -0.001196  4.013371  -0.001
C  C47  1  0.91031398  0.11549076  0.86737704  1  0.147414  -0.000373  3.783164  -0.001  0.139958  -0.000821  4.027779  -0.001  0.143957  -0.000501  4.049638  -0.001  0.090551  0.137071  -0.001196  4.013488  -0.001
C  C48  1  0.41030113  0.38452459  0.36738095  1  0.147435  -0.0004  3.783055  -0.001  0.139881  -0.000827  4.027617  -0.001  0.14388  -0.000502  4.049488  -0.001  0.090557  0.136995  -0.001196  4.013325  -0.001
C  C49  1  0.08968628  0.88451327  0.13262008  1  0.147522  -0.000321  3.782914  0.0  0.139947  -0.000824  4.027591  -0.001  0.143946  -0.000506  4.049448  -0.001  0.090585  0.137061  -0.001196  4.013302  -0.001
C  C50  1  0.77284760  0.46288281  0.68976376  1  0.271691  -0.003766  3.658137  -0.004  0.214039  -0.006075  3.930431  -0.006  0.231853  -0.005106  3.940566  -0.005  0.169122  0.202454  -0.007236  3.923081  -0.007
C  C51  1  0.72716394  0.96289267  0.81023598  1  0.271756  -0.003727  3.658362  -0.004  0.214019  -0.006071  3.930587  -0.006  0.231825  -0.005106  3.940723  -0.005  0.169153  0.202435  -0.007234  3.923258  -0.007
C  C52  1  0.22715155  0.53711821  0.31023612  1  0.271682  -0.003856  3.658147  -0.004  0.214  -0.006077  3.930452  -0.006  0.231813  -0.005106  3.940588  -0.005  0.16909  0.202413  -0.007238  3.92311  -0.007
C  C53  1  0.27283747  0.03711136  0.18976347  1  0.27171  -0.003813  3.658325  -0.004  0.213969  -0.006072  3.930562  -0.006  0.231775  -0.005103  3.940695  -0.005  0.169139  0.202388  -0.007234  3.923223  -0.007
C  C54  1  0.93129330  0.19191572  0.44479383  1  0.513178  -0.024839  3.931317  -0.024  0.472439  -0.030477  4.221467  -0.028  0.498458  -0.026674  4.230757  -0.025  0.317351  0.453369  -0.035481  4.216064  -0.032
C  C55  1  0.56869077  0.69189852  0.05516593  1  0.513359  -0.024652  3.931604  -0.024  0.472599  -0.030476  4.221741  -0.028  0.498626  -0.026611  4.231031  -0.025  0.317447  0.453532  -0.035469  4.216335  -0.032
C  C56  1  0.06870807  0.80807927  0.55519951  1  0.51336  -0.024793  3.931388  -0.024  0.472563  -0.030481  4.221498  -0.028  0.498592  -0.026692  4.230791  -0.025  0.317455  0.453493  -0.035481  4.216103  -0.032
C  C57  1  0.43130839  0.30810149  0.94483497  1  0.513376  -0.024655  3.931537  -0.024  0.472621  -0.030474  4.221673  -0.028  0.498647  -0.026622  4.230966  -0.025  0.317451  0.45355  -0.035463  4.216262  -0.032
C  C58  1  0.78243412  0.04730979  0.28178471  1  0.509224  -0.02056  3.933258  -0.02  0.469814  -0.026419  4.219544  -0.025  0.495167  -0.022879  4.229717  -0.022  0.320337  0.451949  -0.03008  4.212957  -0.028
C  C59  1  0.71756199  0.54734104  0.21821529  1  0.509358  -0.020519  3.933468  -0.02  0.46993  -0.026408  4.219656  -0.025  0.495278  -0.022837  4.229819  -0.022  0.320298  0.452063  -0.030072  4.213069  -0.028
C  C60  1  0.21756615  0.95268519  0.71821241  1  0.509226  -0.020636  3.933494  -0.02  0.469751  -0.026419  4.21972  -0.025  0.495114  -0.022886  4.229901  -0.022  0.320208  0.45188  -0.030077  4.213132  -0.028
C  C61  1  0.28243718  0.45265696  0.78178561  1  0.509429  -0.020611  3.933539  -0.02  0.469996  -0.026412  4.219716  -0.025  0.495347  -0.022845  4.229878  -0.022  0.320333  0.452128  -0.03007  4.21313  -0.028
N  N62  1  0.81247345  0.54280859  0.59802994  1  -0.444349  -0.027713  3.158474  -0.015  -0.381595  -0.032172  3.440006  -0.016  -0.404306  -0.028929  3.453946  -0.013  -0.336879  -0.364841  -0.034954  3.429323  -0.018
N  N63  1  0.68753370  0.04281669  0.90197009  1  -0.444487  -0.027719  3.15833  -0.015  -0.381553  -0.032164  3.439879  -0.016  -0.404273  -0.028924  3.453839  -0.013  -0.336883  -0.364794  -0.034944  3.429189  -0.018
N  N64  1  0.18752458  0.45719042  0.40196964  1  -0.444388  -0.027699  3.158541  -0.015  -0.381578  -0.032174  3.440003  -0.016  -0.40429  -0.028931  3.453947  -0.013  -0.336871  -0.364821  -0.034956  3.429322  -0.018
N  N65  1  0.31246544  0.95718735  0.09802877  1  -0.444381  -0.027699  3.158471  -0.015  -0.381507  -0.032163  3.440006  -0.016  -0.404224  -0.028921  3.453963  -0.013  -0.336867  -0.364752  -0.034944  3.429322  -0.018
N  N66  1  0.64189210  0.50292062  0.71521280  1  -0.337136  -0.001504  3.399826  -0.002  -0.275914  -0.00281  3.636219  -0.003  -0.293909  -0.002216  3.649646  -0.002  -0.375794  -0.263758  -0.003419  3.627383  -0.003
N  N67  1  0.85811712  0.00293499  0.78478892  1  -0.337293  -0.001498  3.400054  -0.002  -0.275992  -0.00281  3.636444  -0.003  -0.293976  -0.002218  3.649872  -0.002  -0.375903  -0.263835  -0.003418  3.627604  -0.003
N  N68  1  0.35810706  0.49708039  0.28478809  1  -0.337126  -0.001484  3.399817  -0.002  -0.275932  -0.002812  3.636245  -0.003  -0.293923  -0.002221  3.649668  -0.002  -0.375797  -0.263777  -0.00342  3.627411  -0.003
N  N69  1  0.14188317  0.99706905  0.21521125  1  -0.337345  -0.001499  3.39999  -0.002  -0.275978  -0.00281  3.636354  -0.003  -0.293973  -0.002216  3.649811  -0.002  -0.375923  -0.26382  -0.003418  3.62751  -0.003
N  N70  1  0.91295037  0.08940150  0.36008121  1  -0.47482  -0.007528  3.303684  -0.006  -0.418662  -0.011995  3.564726  -0.009  -0.441597  -0.00994  3.568178  -0.008  -0.305672  -0.402061  -0.014726  3.563195  -0.011
N  N71  1  0.58703688  0.58941930  0.13991633  1  -0.474973  -0.007538  3.303685  -0.006  -0.418744  -0.011982  3.564671  -0.009  -0.441662  -0.009827  3.568109  -0.008  -0.305726  -0.402147  -0.014724  3.563147  -0.011
N  N72  1  0.08705106  0.91059147  0.63992028  1  -0.47489  -0.007457  3.30376  -0.006  -0.418552  -0.012013  3.564643  -0.01  -0.44153  -0.010027  3.568117  -0.008  -0.305615  -0.40195  -0.014726  3.563112  -0.011
N  N73  1  0.41296117  0.41058272  0.86008631  1  -0.475006  -0.007487  3.303751  -0.006  -0.418771  -0.011991  3.564724  -0.009  -0.441714  -0.009899  3.568189  -0.008  -0.305751  -0.402174  -0.014722  3.563198  -0.011
N  N74  1  0.96125852  0.28360618  0.52423304  1  -0.582939  -0.013693  2.796003  0.002  -0.544912  -0.024998  3.090696  -0.003  -0.565737  -0.019429  3.093038  0.0  -0.364512  -0.530242  -0.029839  3.090199  -0.007
N  N75  1  0.53871649  0.78357936  0.97569676  1  -0.583186  -0.013889  2.79601  0.001  -0.545188  -0.024991  3.090674  -0.003  -0.566018  -0.019539  3.093015  0.0  -0.364561  -0.530515  -0.029826  3.090176  -0.007
N  N76  1  0.03874059  0.71639283  0.47576174  1  -0.583084  -0.013806  2.796198  0.002  -0.545072  -0.024986  3.090919  -0.003  -0.565893  -0.019377  3.093246  0.001  -0.364602  -0.530407  -0.029843  3.090434  -0.007
N  N77  1  0.46128380  0.21641965  0.02430240  1  -0.583176  -0.013911  2.795918  0.001  -0.54519  -0.02498  3.09059  -0.003  -0.566018  -0.019484  3.09293  0.0  -0.36456  -0.530514  -0.029827  3.090083  -0.007
N  N78  1  0.67128064  0.99944448  0.20628363  1  -0.574629  -0.018911  2.822602  -0.002  -0.533331  -0.028731  3.118536  -0.006  -0.554202  -0.02345  3.120601  -0.002  -0.358924  -0.518012  -0.033965  3.116884  -0.01
N  N79  1  0.82871555  0.49949990  0.29372195  1  -0.574617  -0.018943  2.823107  -0.002  -0.533283  -0.028755  3.119001  -0.006  -0.554165  -0.023554  3.121093  -0.003  -0.358838  -0.517957  -0.033976  3.11734  -0.01
N  N80  1  0.32871626  0.00055151  0.79371769  1  -0.574666  -0.018863  2.822698  -0.002  -0.533363  -0.028718  3.118645  -0.006  -0.554235  -0.023393  3.120712  -0.002  -0.358877  -0.518038  -0.033966  3.116983  -0.01
N  N81  1  0.17128135  0.50049609  0.70627835  1  -0.574706  -0.018866  2.823109  -0.002  -0.533371  -0.028744  3.119005  -0.006  -0.554253  -0.023507  3.121098  -0.003  -0.358878  -0.518048  -0.033977  3.117345  -0.01
