# generated using pymatgen
data_Al6H59C84Cl3O28
_symmetry_space_group_name_H-M   'P 1'
_cell_length_a   12.81868766
_cell_length_b   13.18181162
_cell_length_c   27.71972795
_cell_angle_alpha   89.93798053
_cell_angle_beta   90.00990388
_cell_angle_gamma   121.01968489
_symmetry_Int_Tables_number   1
_chemical_formula_structural   Al6H59C84Cl3O28
_chemical_formula_sum   'Al6 H59 C84 Cl3 O28'
_cell_volume   4014.05425580
_cell_formula_units_Z   1
loop_
 _symmetry_equiv_pos_site_id
 _symmetry_equiv_pos_as_xyz
  1  'x, y, z'
loop_
 _atom_site_type_symbol
 _atom_site_label
 _atom_site_symmetry_multiplicity
 _atom_site_fract_x
 _atom_site_fract_y
 _atom_site_fract_z
 _atom_site_occupancy
 _atom_site_pbe_bader_charge
 _atom_site_pbe_bader_spin_density
 _atom_site_pbe_cm5_charge
 _atom_site_pbe_ddec_charge
 _atom_site_pbe_ddec_spin_density
 _atom_site_pbe_ddec_sum_bond_order
 _atom_site_pbe_magmom
Al  Al0  1  0.15103237  0.57312273  0.50450810  1  2.493894  0  0.395204  1.685418  0  2.558587  0
Al  Al1  1  0.41143727  0.59393228  0.50203056  1  2.483236  0  0.504534  1.661513  0  2.511944  0
Al  Al2  1  0.40707276  0.81909966  0.50196851  1  2.48049  0  0.505851  1.663398  0  2.506633  0
Al  Al3  1  0.18336494  0.08278039  0.01265434  1  2.492279  0  0.396209  1.684497  0  2.558555  0
Al  Al4  1  0.93299507  0.08317855  0.01549272  1  2.483071  0  0.505825  1.663648  0  2.507665  0
Al  Al5  1  0.91776397  0.84841785  0.01555010  1  2.476832  0  0.50481  1.660749  0  2.511593  0
H  H6  1  0.45953716  0.70659979  0.73111159  1  0.032553  0  0.097069  0.104767  0  1.003834  0
H  H7  1  0.62478985  0.66745534  0.21966188  1  0.083684  0  0.103396  0.10156  0  1.004192  0
H  H8  1  0.33517965  0.96339009  0.21830676  1  0.075857  0  0.100845  0.098558  0  1.007637  0
H  H9  1  0.03551197  0.36658816  0.22110267  1  0.044041  0  0.101578  0.099791  0  1.006723  0
H  H10  1  0.67920917  0.69730155  0.13265802  1  0.109413  0  0.11369  0.116607  0  0.982711  0
H  H11  1  0.29883634  0.98492106  0.13140079  1  0.110177  0  0.115493  0.120775  0  0.98313  0
H  H12  1  0.00640321  0.30899835  0.13435001  1  0.084133  0  0.111272  0.114401  0  0.987235  0
H  H13  1  0.61213217  0.97188940  0.28802617  1  0.042787  0  0.102491  0.100334  0  1.006895  0
H  H14  1  0.02698785  0.63954333  0.28777016  1  0.080891  0  0.100918  0.098536  0  1.008357  0
H  H15  1  0.36547971  0.38619642  0.28659202  1  0.057392  0  0.099595  0.096684  0  1.011499  0
H  H16  1  0.76276427  0.04137097  0.23445963  1  0.082505  0  0.102421  0.100389  0  1.007978  0
H  H17  1  0.30016274  0.76505694  0.73296534  1  0.059452  0  0.094011  0.099926  0  1.015315  0
H  H18  1  0.95078532  0.71814379  0.23732563  1  0.074584  0  0.099135  0.096168  0  1.01223  0
H  H19  1  0.27499560  0.22967440  0.23672715  1  0.055082  0  0.100554  0.098117  0  1.010736  0
H  H20  1  0.80873901  0.06834083  0.14684849  1  0.111992  0  0.110358  0.112943  0  1.004015  0
H  H21  1  0.91764380  0.73518114  0.14992693  1  0.088544  0  0.106685  0.109095  0  1.008885  0
H  H22  1  0.25135905  0.18011064  0.14919192  1  0.071776  0  0.110016  0.113608  0  1.003291  0
H  H23  1  0.69700126  0.69554128  0.29630679  1  0.048542  0  0.102325  0.099721  0  1.006012  0
H  H24  1  0.30982453  0.00741758  0.29557987  1  0.067057  0  0.100366  0.097587  0  1.008427  0
H  H25  1  0.99236419  0.29686189  0.29857135  1  0.061372  0  0.099953  0.096568  0  1.009554  0
H  H26  1  0.50120275  0.85694426  0.72602693  1  0.051476  0  0.097377  0.106096  0  1.001938  0
H  H27  1  0.14637414  0.65317535  0.72347042  1  0.0544  0  0.0978  0.108838  0  0.992405  0
H  H28  1  0.24577269  0.53427192  0.72974044  1  0.051068  0  0.096896  0.10489  0  0.994351  0
H  H29  1  0.36302151  0.50057973  0.72855865  1  0.062799  0  0.095442  0.10265  0  1.004906  0
H  H30  1  0.63751127  0.66523163  0.38278832  1  0.081839  0  0.112558  0.114847  0  0.986772  0
H  H31  1  0.34729455  0.97917569  0.38134003  1  0.075162  0  0.109688  0.111983  0  0.990694  0
H  H32  1  0.02972596  0.36505106  0.38426405  1  0.111222  0  0.114623  0.121596  0  0.983923  0
H  H33  1  0.83119836  0.97965725  0.70370914  1  0.046733  0  0.094825  0.093306  0  0.983006  0
H  H34  1  0.02891229  0.85507702  0.70109600  1  0.025875  0  0.093484  0.091019  0  0.984044  0
H  H35  1  0.16106431  0.17713268  0.70505092  1  0.021533  0  0.093464  0.091302  0  0.98483  0
H  H36  1  0.86798005  0.99005230  0.78701057  1  0.042424  0  0.093208  0.092268  0  0.989761  0
H  H37  1  0.00057634  0.86406170  0.78425190  1  0.019286  0  0.091815  0.089688  0  0.993465  0
H  H38  1  0.12087441  0.13997644  0.78792540  1  0.009832  0  0.091795  0.090111  0  0.990061  0
H  H39  1  0.49324504  0.73017932  0.81347865  1  0.115154  0  0.097685  0.073875  0  1.003042  0
H  H40  1  0.77564816  0.76377371  0.71229130  1  0.052878  0  0.096384  0.099797  0  0.978157  0
H  H41  1  0.24907129  0.01930635  0.71605042  1  0.030884  0  0.09467  0.096604  0  0.980161  0
H  H42  1  0.99052020  0.22358087  0.70788881  1  0.03639  0  0.095172  0.096752  0  0.980046  0
H  H43  1  0.64058251  0.66786126  0.80351883  1  0.05929  0  0.090273  0.095591  0  1.009635  0
H  H44  1  0.32705939  0.97382852  0.80959571  1  0.072014  0  0.09282  0.099688  0  0.996496  0
H  H45  1  0.01469775  0.35532519  0.79772852  1  0.041163  0  0.089572  0.094786  0  1.006359  0
H  H46  1  0.79682096  0.77234542  0.79652516  1  0.035617  0  0.096625  0.099264  0  1.004616  0
H  H47  1  0.22006337  0.01740492  0.79979737  1  0.065884  0  0.09829  0.103042  0  0.986308  0
H  H48  1  0.96530605  0.20392387  0.79204204  1  0.040759  0  0.095394  0.098368  0  1.003983  0
H  H49  1  0.71704124  0.01497524  0.71259256  1  0.045615  0  0.099075  0.103128  0  0.968957  0
H  H50  1  0.26334405  0.76461732  0.81472264  1  0.110814  0  0.097187  0.073266  0  1.002891  0
H  H51  1  0.98895661  0.70562638  0.70628987  1  0.088453  0  0.099536  0.104157  0  0.967814  0
H  H52  1  0.31207744  0.29117353  0.71713332  1  0.044135  0  0.096843  0.099989  0  0.972565  0
H  H53  1  0.76433530  0.03934242  0.79472007  1  0.054524  0  0.093558  0.096805  0  1.001034  0
H  H54  1  0.94901222  0.71128141  0.78828192  1  0.056873  0  0.092563  0.096479  0  0.996941  0
H  H55  1  0.27614227  0.24297300  0.79916856  1  0.059428  0  0.095015  0.100831  0  0.991775  0
H  H56  1  0.62203658  0.65081276  0.71976832  1  0.062529  0  0.096752  0.09916  0  0.977605  0
H  H57  1  0.36178998  0.98288097  0.72649428  1  0.01966  0  0.094135  0.095101  0  0.984455  0
H  H58  1  0.02665816  0.37153215  0.71361961  1  0.047794  0  0.098643  0.102074  0  0.972189  0
H  H59  1  0.22679789  0.50188934  0.81227239  1  0.105618  0  0.096504  0.072024  0  1.0056  0
H  H60  1  0.55937356  0.94498863  0.37511013  1  0.101754  0  0.111568  0.114737  0  0.996061  0
H  H61  1  0.06107162  0.61462799  0.37437028  1  0.105684  0  0.112134  0.116211  0  0.994623  0
H  H62  1  0.39917572  0.44786298  0.37285095  1  0.079186  0  0.107693  0.109664  0  1.002137  0
H  H63  1  0.95002412  0.51143316  0.48339925  1  0.573905  0  0.286873  0.373634  0  0.938068  0
H  H64  1  0.38590734  0.20412962  0.03730898  1  0.57993  0  0.287932  0.375335  0  0.935212  0
C  C65  1  0.23907481  0.78479381  0.57151257  1  1.669585  0  0.276936  0.716706  0  4.158765  0
C  C66  1  0.70988823  0.86413998  0.85744696  1  -0.461573  0  -0.009814  -0.006189  0  3.998564  0
C  C67  1  0.11807097  0.83110911  0.85639643  1  -0.588536  0  -0.019122  -0.023988  0  4.031749  0
C  C68  1  0.14138431  0.29155096  0.85645598  1  -0.114411  0  -0.020715  -0.026997  0  4.031663  0
C  C69  1  0.62440898  0.81348549  0.66059445  1  -0.114622  0  -0.005089  -0.003457  0  3.977008  0
C  C70  1  0.20392391  0.82687427  0.66147962  1  -0.502601  0  -0.015673  -0.022078  0  4.008683  0
C  C71  1  0.20211316  0.37633171  0.66053615  1  -0.247869  0  -0.014501  -0.0208  0  4.008467  0
C  C72  1  0.59987537  0.80177898  0.61779498  1  -0.138088  0  -0.046657  -0.219961  0  3.949977  0
C  C73  1  0.21953856  0.81563846  0.61905538  1  0.218233  0  -0.04806  -0.214997  0  3.96922  0
C  C74  1  0.21834532  0.40279005  0.61806445  1  -0.037469  0  -0.046641  -0.216653  0  3.970241  0
C  C75  1  0.10218986  0.21465402  0.94652858  1  1.633719  0  0.27965  0.716583  0  4.155416  0
C  C76  1  0.23851309  0.45370540  0.57058749  1  1.657858  0  0.282059  0.717537  0  4.157971  0
C  C77  1  0.78398353  0.89736569  0.94817303  1  1.623467  0  0.28622  0.730526  0  4.136358  0
C  C78  1  0.08808354  0.87701764  0.94637992  1  1.699568  0  0.284006  0.719035  0  4.149802  0
C  C79  1  0.59634494  0.80433771  0.38450229  1  -0.055147  0  -0.014112  -0.053091  0  3.977872  0
C  C80  1  0.20569407  0.79535122  0.38300586  1  0.024784  0  -0.016169  -0.05041  0  3.982389  0
C  C81  1  0.21630349  0.40982986  0.38348640  1  0.003738  0  -0.015768  -0.049114  0  3.984582  0
C  C82  1  0.59104035  0.89181258  0.35757866  1  -0.030644  0  -0.073976  -0.072802  0  3.965441  0
C  C83  1  0.11417340  0.70029457  0.35661966  1  -0.001254  0  -0.077607  -0.078567  0  3.974682  0
C  C84  1  0.31028937  0.41375852  0.35618084  1  -0.040092  0  -0.080002  -0.081323  0  3.988075  0
C  C85  1  0.62122365  0.90670800  0.30889599  1  -0.045  0  -0.086194  -0.132402  0  3.974453  0
C  C86  1  0.09517562  0.71511005  0.30847209  1  -0.091252  0  -0.090237  -0.134977  0  3.988031  0
C  C87  1  0.54997169  0.77652470  0.56981987  1  1.630665  0  0.284378  0.729474  0  4.141348  0
C  C88  1  0.29064118  0.37853312  0.30818079  1  -0.00424  0  -0.091476  -0.137451  0  3.990909  0
C  C89  1  0.65888651  0.83600214  0.28560043  1  0.041071  0  0.003105  0.08286  0  3.975681  0
C  C90  1  0.16570730  0.82536572  0.28544254  1  -0.041771  0  -0.000537  0.078039  0  3.995237  0
C  C91  1  0.17655563  0.33729275  0.28638904  1  -0.060079  0  -0.001936  0.079214  0  3.993948  0
C  C92  1  0.23044483  0.77392878  0.43319375  1  1.549021  0  0.269673  0.639779  0  4.095286  0
C  C93  1  0.23962248  0.45854316  0.43320543  1  1.540521  0  0.26848  0.636768  0  4.099708  0
C  C94  1  0.55121960  0.78078314  0.43497370  1  1.549602  0  0.276825  0.645298  0  4.082235  0
C  C95  1  0.66541967  0.74960385  0.31320059  1  -0.029219  0  -0.086162  -0.131923  0  3.972676  0
C  C96  1  0.25617531  0.92057595  0.31247660  1  -0.071069  0  -0.090327  -0.136046  0  3.985974  0
C  C97  1  0.08224829  0.33157425  0.31451502  1  -0.052337  0  -0.089461  -0.135225  0  3.989085  0
C  C98  1  0.70556906  0.75161124  0.78580131  1  -0.02787  0  -0.154629  -0.188695  0  3.829399  0
C  C99  1  0.63378633  0.73322440  0.36178620  1  -0.009561  0  -0.074758  -0.075468  0  3.972573  0
C  C100  1  0.27664432  0.90570906  0.36053546  1  -0.031234  0  -0.078817  -0.081468  0  3.987554  0
C  C101  1  0.10184141  0.36801250  0.36235821  1  -0.016326  0  -0.075653  -0.07939  0  3.9747  0
C  C102  1  0.66679089  0.75598355  0.20407783  1  -0.051136  0  -0.086742  -0.132989  0  3.972711  0
C  C103  1  0.24307935  0.91477723  0.20367986  1  -0.025066  0  -0.090085  -0.135994  0  3.986655  0
C  C104  1  0.08119749  0.32357041  0.20571790  1  -0.003713  0  -0.090165  -0.136105  0  3.985818  0
C  C105  1  0.69540354  0.77177413  0.15519037  1  -0.047155  0  -0.073741  -0.075596  0  3.972164  0
C  C106  1  0.22393828  0.92592657  0.15511326  1  -0.125787  0  -0.074929  -0.078182  0  3.97435  0
C  C107  1  0.06585315  0.29309104  0.15712295  1  -0.058402  0  -0.079054  -0.083398  0  3.988912  0
C  C108  1  0.76719508  0.98069020  0.16312039  1  -0.06904  0  -0.074339  -0.073662  0  3.963038  0
C  C109  1  0.24491042  0.95240056  0.78911700  1  -0.078558  0  -0.152413  -0.185643  0  3.823835  0
C  C110  1  0.00875844  0.78386564  0.16531885  1  0.003074  0  -0.08055  -0.083088  0  3.984154  0
C  C111  1  0.20535795  0.22173912  0.16546772  1  0.018468  0  -0.077378  -0.078216  0  3.975732  0
C  C112  1  0.74052071  0.96476690  0.21211072  1  -0.027262  0  -0.086775  -0.131489  0  3.974298  0
C  C113  1  0.02801585  0.77433642  0.21402034  1  -0.011599  0  -0.090878  -0.13539  0  3.989  0
C  C114  1  0.21873072  0.25037217  0.21414031  1  -0.072176  0  -0.090652  -0.134804  0  3.990735  0
C  C115  1  0.68906855  0.85212177  0.23361440  1  -0.038945  0  0.002464  0.078347  0  3.980286  0
C  C116  1  0.14551165  0.83891452  0.23406146  1  -0.093967  0  -0.001735  0.074804  0  3.998293  0
C  C117  1  0.15802672  0.30295416  0.23509113  1  -0.012136  0  -0.001335  0.074059  0  3.999648  0
C  C118  1  0.74519009  0.88430858  0.13415929  1  0.015904  0  -0.013444  -0.050723  0  3.973145  0
C  C119  1  0.10660168  0.85996245  0.13551910  1  0.03869  0  -0.014379  -0.045457  0  3.978072  0
C  C120  1  0.03792913  0.29323089  0.78181241  1  -0.030263  0  -0.154295  -0.187493  0  3.833024  0
C  C121  1  0.12883579  0.24299969  0.13654456  1  0.001776  0  -0.016116  -0.049495  0  3.983799  0
C  C122  1  0.11059482  0.20445424  0.08534149  1  1.544421  0  0.269546  0.63979  0  4.097548  0
C  C123  1  0.78607320  0.90522859  0.08308673  1  1.535859  0  0.277076  0.643449  0  4.085619  0
C  C124  1  0.08515204  0.87873198  0.08447764  1  1.556494  0  0.268861  0.634443  0  4.100059  0
C  C125  1  0.53142636  0.79783066  0.73926344  1  0.000109  0  -0.155444  -0.243174  0  3.827974  0
C  C126  1  0.20563662  0.74125008  0.73904791  1  -0.046387  0  -0.156372  -0.242718  0  3.831033  0
C  C127  1  0.26863200  0.46726094  0.73961295  1  -0.035418  0  -0.155177  -0.242862  0  3.834958  0
C  C128  1  0.74869471  0.95581862  0.72449476  1  -0.039224  0  -0.152661  -0.1905  0  3.847827  0
C  C129  1  0.04787801  0.79459612  0.72129848  1  -0.063555  0  -0.153079  -0.190206  0  3.851272  0
C  C130  1  0.21644985  0.25752869  0.72653722  1  -0.017324  0  -0.154267  -0.192324  0  3.858231  0
C  C131  1  0.69022060  0.74169884  0.73038992  1  -0.070415  0  -0.152604  -0.186932  0  3.838687  0
C  C132  1  0.77460590  0.96830307  0.77934396  1  -0.057749  0  -0.156933  -0.192996  0  3.855412  0
C  C133  1  0.02441287  0.79705246  0.77583167  1  -0.028488  0  -0.157857  -0.19316  0  3.861733  0
C  C134  1  0.19456776  0.23147928  0.78112142  1  -0.021427  0  -0.156922  -0.192841  0  3.856299  0
C  C135  1  0.73420220  0.87563624  0.90021726  1  0.250401  0  -0.040733  -0.20679  0  3.939703  0
C  C136  1  0.10360207  0.84304401  0.89882628  1  0.294975  0  -0.041571  -0.204464  0  3.95813  0
C  C137  1  0.12503979  0.26515828  0.89889086  1  -0.102856  0  -0.0415  -0.200675  0  3.956484  0
C  C138  1  0.64942850  0.82680199  0.71210502  1  0.153691  0  0.002732  0.17418  0  3.895764  0
C  C139  1  0.18219166  0.83138465  0.71255089  1  0.139209  0  0.001818  0.177157  0  3.900512  0
C  C140  1  0.18396748  0.35118694  0.71176480  1  0.152369  0  0.001837  0.178934  0  3.89787  0
C  C141  1  0.55339177  0.81295031  0.79421548  1  0.065726  0  -0.037221  0.066549  0  3.723703  0
C  C142  1  0.26677878  0.95553591  0.73422744  1  0.004178  0  -0.154919  -0.18992  0  3.85143  0
C  C143  1  0.18148493  0.74004067  0.79354158  1  0.070432  0  -0.037727  0.067295  0  3.728401  0
C  C144  1  0.25482029  0.44547951  0.79448409  1  0.076426  0  -0.037663  0.066808  0  3.727661  0
C  C145  1  0.68671045  0.85113458  0.80581369  1  0.138257  0  0.000132  0.129003  0  3.89738  0
C  C146  1  0.13968006  0.82820419  0.80521473  1  0.149609  0  -0.000767  0.131432  0  3.904004  0
C  C147  1  0.15795594  0.31479300  0.80506940  1  0.114574  0  -0.000515  0.132297  0  3.90322  0
C  C148  1  0.05096772  0.30752485  0.72647556  1  -0.026295  0  -0.152993  -0.186904  0  3.838949  0
Cl  Cl149  1  0.51582679  0.91774048  0.81810876  1  -0.271238  0  -0.030579  -0.131188  0  1.392895  0
Cl  Cl150  1  0.07110253  0.59223366  0.81395244  1  -0.273454  0  -0.038978  -0.141617  0  1.388793  0
Cl  Cl151  1  0.39906983  0.48611294  0.82204917  1  -0.273179  0  -0.034002  -0.134156  0  1.390081  0
O  O152  1  0.15994558  0.47609504  0.55511834  1  -1.215691  0  -0.198345  -0.527764  0  2.278749  0
O  O153  1  0.16093637  0.47600360  0.45237709  1  -1.245643  0  -0.215966  -0.570907  0  2.361107  0
O  O154  1  0.53271522  0.68542320  0.45515105  1  -1.268794  0  -0.234818  -0.598483  0  2.298589  0
O  O155  1  0.33096391  0.85406327  0.45275933  1  -1.277848  0  -0.248592  -0.613155  0  2.28178  0
O  O156  1  0.15413465  0.67691385  0.45289924  1  -1.259425  0  -0.222443  -0.5872  0  2.368981  0
O  O157  1  0.34214081  0.48427873  0.45274216  1  -1.280481  0  -0.251357  -0.618841  0  2.288463  0
O  O158  1  0.52689980  0.85416452  0.45469154  1  -1.270647  0  -0.234345  -0.599002  0  2.304711  0
O  O159  1  0.32526178  0.66328459  0.50293670  1  -1.612662  0  -0.391193  -1.26798  0  2.289766  0
O  O160  1  0.00924401  0.00395917  0.01461762  1  -1.610324  0  -0.391486  -1.269591  0  2.292704  0
O  O161  1  0.17682975  0.18849656  0.96315373  1  -1.203621  0  -0.201882  -0.544799  0  2.284273  0
O  O162  1  0.80950351  0.99438194  0.96849072  1  -1.24044  0  -0.224253  -0.585799  0  2.244507  0
O  O163  1  0.52818665  0.67895929  0.55087756  1  -1.242614  0  -0.228934  -0.590184  0  2.243599  0
O  O164  1  0.99250826  0.80242226  0.97027174  1  -1.261449  0  -0.241724  -0.607947  0  2.232162  0
O  O165  1  0.16850473  0.96753525  0.06255200  1  -1.238786  0  -0.217179  -0.571586  0  2.356536  0
O  O166  1  0.01818593  0.19656814  0.06312265  1  -1.270822  0  -0.249384  -0.614843  0  2.282265  0
O  O167  1  0.79537090  0.82482221  0.06120841  1  -1.26034  0  -0.23472  -0.597023  0  2.298604  0
O  O168  1  0.18380850  0.17755539  0.06736328  1  -1.257478  0  -0.221226  -0.583606  0  2.369654  0
O  O169  1  0.81650905  0.00605514  0.06463395  1  -1.27034  0  -0.233985  -0.596404  0  2.301613  0
O  O170  1  0.97916873  0.80463024  0.06665774  1  -1.278255  0  -0.250715  -0.615541  0  2.282607  0
O  O171  1  0.33542129  0.86336753  0.54881723  1  -1.254655  0  -0.246327  -0.611733  0  2.225963  0
O  O172  1  0.16788567  0.97979501  0.95979280  1  -1.216892  0  -0.197922  -0.526787  0  2.276988  0
O  O173  1  0.00319680  0.19552615  0.96727171  1  -1.255952  0  -0.243411  -0.607773  0  2.224699  0
O  O174  1  0.80490790  0.81964811  0.96576682  1  -1.235113  0  -0.227425  -0.588535  0  2.241599  0
O  O175  1  0.16319548  0.68217274  0.55675192  1  -1.218016  0  -0.204847  -0.549566  0  2.287369  0
O  O176  1  0.33726072  0.47646611  0.54882649  1  -1.252233  0  -0.243453  -0.609239  0  2.236617  0
O  O177  1  0.52552491  0.85019020  0.55075370  1  -1.237422  0  -0.226662  -0.587797  0  2.244678  0
O  O178  1  0.99151832  0.49024265  0.50676813  1  -1.366339  0  -0.580843  -0.994362  0  1.802522  0
O  O179  1  0.34238338  0.15412463  0.01018402  1  -1.370938  0  -0.579254  -0.993609  0  1.801018  0
