# generated using pymatgen
data_GdH5C10O9
_symmetry_space_group_name_H-M   'P 1'
_cell_length_a   7.11869151
_cell_length_b   8.78058987
_cell_length_c   18.04635365
_cell_angle_alpha   100.96090663
_cell_angle_beta   89.99999994
_cell_angle_gamma   90.00004116
_symmetry_Int_Tables_number   1
_chemical_formula_structural   GdH5C10O9
_chemical_formula_sum   'Gd4 H20 C40 O36'
_cell_volume   1107.43284507
_cell_formula_units_Z   4
loop_
 _symmetry_equiv_pos_site_id
 _symmetry_equiv_pos_as_xyz
  1  'x, y, z'
loop_
 _atom_site_type_symbol
 _atom_site_label
 _atom_site_symmetry_multiplicity
 _atom_site_fract_x
 _atom_site_fract_y
 _atom_site_fract_z
 _atom_site_occupancy
 _atom_site_hle17_bader_spin_density
 _atom_site_hle17_ddec_charge
 _atom_site_hle17_ddec_spin_density
 _atom_site_hle17_ddec_sum_bond_order
 _atom_site_hle17_magmom
 _atom_site_hse06_10hf_bader_spin_density
 _atom_site_hse06_10hf_ddec_charge
 _atom_site_hse06_10hf_ddec_spin_density
 _atom_site_hse06_10hf_ddec_sum_bond_order
 _atom_site_hse06_10hf_magmom
 _atom_site_hse06_bader_spin_density
 _atom_site_hse06_ddec_charge
 _atom_site_hse06_ddec_spin_density
 _atom_site_hse06_ddec_sum_bond_order
 _atom_site_hse06_magmom
 _atom_site_pbe_bader_spin_density
 _atom_site_pbe_cm5_charge
 _atom_site_pbe_ddec_charge
 _atom_site_pbe_ddec_spin_density
 _atom_site_pbe_ddec_sum_bond_order
 _atom_site_pbe_magmom
Gd  Gd0  1  0.52722703  0.85133810  0.75494898  1  0  2.204353  0  1.759064  0  0  2.118402  0  2.105217  0  0  2.173462  0  2.049363  0  0  1.490653  2.076081  0  2.149193  0
Gd  Gd1  1  0.02722883  0.64866317  0.74504959  1  0  2.204332  0  1.759087  0  0  2.118351  0  2.105271  0  0  2.173381  0  2.049472  0  0  1.490611  2.076047  0  2.14921  0
Gd  Gd2  1  0.47276014  0.14864867  0.24505348  1  0  2.20431  0  1.759114  0  0  2.118469  0  2.105114  0  0  2.173432  0  2.049402  0  0  1.490768  2.076185  0  2.149025  0
Gd  Gd3  1  0.97275552  0.35133713  0.25494293  1  0  2.204183  0  1.759285  0  0  2.11834  0  2.105245  0  0  2.173146  0  2.049803  0  0  1.490688  2.076028  0  2.149208  0
H  H4  1  0.50295646  0.16300299  0.71188376  1  0  0.446367  0  0.834531  0  0  0.419109  0  0.890448  0  0  0.429008  0  0.875875  0  0  0.314399  0.412085  0  0.900793  0
H  H5  1  0.00295236  0.33700758  0.78812440  1  0  0.446328  0  0.834585  0  0  0.419069  0  0.890501  0  0  0.428966  0  0.875929  0  0  0.314347  0.412046  0  0.900842  0
H  H6  1  0.49705037  0.83700063  0.28813675  1  0  0.446178  0  0.834779  0  0  0.418899  0  0.890719  0  0  0.428789  0  0.876157  0  0  0.31437  0.411881  0  0.901054  0
H  H7  1  0.99704605  0.66298923  0.21186783  1  0  0.446256  0  0.834714  0  0  0.418971  0  0.890665  0  0  0.428863  0  0.8761  0  0  0.314377  0.411951  0  0.901001  0
H  H8  1  0.34631553  0.16985700  0.77492137  1  0  0.460175  0  0.817626  0  0  0.432377  0  0.873404  0  0  0.442551  0  0.858488  0  0  0.31581  0.42517  0  0.88397  0
H  H9  1  0.84632062  0.33014716  0.72508214  1  0  0.460177  0  0.817616  0  0  0.432354  0  0.873441  0  0  0.44253  0  0.858521  0  0  0.315796  0.425143  0  0.884018  0
H  H10  1  0.65367725  0.83013720  0.22509446  1  0  0.460297  0  0.817417  0  0  0.432435  0  0.873303  0  0  0.442602  0  0.858394  0  0  0.315898  0.42523  0  0.883869  0
H  H11  1  0.15367076  0.66985085  0.27491130  1  0  0.460232  0  0.817482  0  0  0.432379  0  0.873355  0  0  0.442542  0  0.858453  0  0  0.315857  0.425177  0  0.883919  0
H  H12  1  0.93275155  0.27327643  0.92647104  1  0  0.411182  0  0.795234  0  0  0.386567  0  0.86378  0  0  0.396585  0  0.853308  0  0  0.338447  0.379385  0  0.871352  0
H  H13  1  0.43274922  0.22673467  0.57354353  1  0  0.411307  0  0.795054  0  0  0.386577  0  0.863746  0  0  0.396597  0  0.85327  0  0  0.338444  0.379396  0  0.871317  0
H  H14  1  0.06726932  0.72668432  0.07351538  1  0  0.410933  0  0.7955  0  0  0.386481  0  0.863853  0  0  0.396451  0  0.853443  0  0  0.33839  0.37931  0  0.871404  0
H  H15  1  0.56723794  0.77331381  0.42650237  1  0  0.410945  0  0.795519  0  0  0.386473  0  0.863857  0  0  0.396437  0  0.853462  0  0  0.338433  0.379317  0  0.871391  0
H  H16  1  0.84236862  0.52239760  0.47771252  1  0  0.129333  0  0.954263  0  0  0.135722  0  1.019368  0  0  0.14036  0  1.015852  0  0  0.114922  0.132318  0  1.022094  0
H  H17  1  0.34236617  0.97760779  0.02227917  1  0  0.129385  0  0.95414  0  0  0.135691  0  1.019328  0  0  0.140328  0  1.015814  0  0  0.114939  0.132286  0  1.022059  0
H  H18  1  0.15764242  0.47768746  0.52225776  1  0  0.129526  0  0.954149  0  0  0.135766  0  1.019395  0  0  0.140396  0  1.015899  0  0  0.115005  0.132366  0  1.022118  0
H  H19  1  0.65763926  0.02232050  0.97773666  1  0  0.129418  0  0.954173  0  0  0.135799  0  1.019263  0  0  0.140431  0  1.015763  0  0  0.114999  0.132399  0  1.021997  0
H  H20  1  0.66967587  0.69964796  0.94516752  1  0  0.127234  0  0.936391  0  0  0.133748  0  1.001041  0  0  0.13726  0  0.999403  0  0  0.118671  0.13117  0  1.002367  0
H  H21  1  0.16966661  0.80035470  0.55483477  1  0  0.127343  0  0.936259  0  0  0.133804  0  1.000967  0  0  0.137317  0  0.999325  0  0  0.118698  0.131233  0  1.002286  0
H  H22  1  0.33032113  0.30031636  0.05482142  1  0  0.12712  0  0.936275  0  0  0.133722  0  1.000849  0  0  0.137238  0  0.999212  0  0  0.118678  0.131149  0  1.002171  0
H  H23  1  0.83031634  0.19968700  0.44518341  1  0  0.127121  0  0.936278  0  0  0.133702  0  1.000892  0  0  0.137213  0  0.999254  0  0  0.118649  0.131128  0  1.002208  0
C  C24  1  0.34222431  0.54227776  0.64911564  1  0  0.691901  0  3.898614  0  0  0.639063  0  4.208855  0  0  0.673195  0  4.197539  0  0  0.214762  0.615726  0  4.21577  0
C  C25  1  0.84222092  0.95771797  0.85087709  1  0  0.691814  0  3.899018  0  0  0.639049  0  4.209154  0  0  0.673183  0  4.19783  0  0  0.214772  0.615706  0  4.216071  0
C  C26  1  0.65779095  0.45772638  0.35085559  1  0  0.691551  0  3.899196  0  0  0.639037  0  4.208871  0  0  0.673168  0  4.197537  0  0  0.214731  0.615707  0  4.215766  0
C  C27  1  0.15779153  0.04226000  0.14913738  1  0  0.691607  0  3.898739  0  0  0.639089  0  4.208529  0  0  0.673216  0  4.1972  0  0  0.214872  0.615751  0  4.215434  0
C  C28  1  0.43109185  0.51887238  0.57319279  1  0  -0.050005  0  3.717381  0  0  -0.037668  0  3.956489  0  0  -0.039891  0  3.972668  0  0  0.001326  -0.036427  0  3.945929  0
C  C29  1  0.93109250  0.98113691  0.92680160  1  0  -0.049802  0  3.717219  0  0  -0.037576  0  3.956407  0  0  -0.039796  0  3.972581  0  0  0.001343  -0.036326  0  3.94584  0
C  C30  1  0.56891498  0.48119676  0.42678503  1  0  -0.049758  0  3.717011  0  0  -0.037519  0  3.955948  0  0  -0.039737  0  3.972118  0  0  0.001501  -0.03628  0  3.945383  0
C  C31  1  0.06891573  0.01880854  0.07320902  1  0  -0.04973  0  3.71691  0  0  -0.037602  0  3.956056  0  0  -0.039821  0  3.972229  0  0  0.001556  -0.036353  0  3.945482  0
C  C32  1  0.62471187  0.53209199  0.56155877  1  0  -0.051044  0  3.722591  0  0  -0.043151  0  3.9644  0  0  -0.047223  0  3.982841  0  0  -0.003157  -0.040663  0  3.952236  0
C  C33  1  0.12470960  0.96792040  0.93843577  1  0  -0.051044  0  3.722865  0  0  -0.043039  0  3.964532  0  0  -0.047114  0  3.982975  0  0  -0.003007  -0.040554  0  3.952365  0
C  C34  1  0.37529637  0.46796893  0.43841558  1  0  -0.050899  0  3.723038  0  0  -0.042899  0  3.964601  0  0  -0.046976  0  3.983051  0  0  -0.003008  -0.040406  0  3.952423  0
C  C35  1  0.87529724  0.03203793  0.06157927  1  0  -0.050834  0  3.722764  0  0  -0.042885  0  3.9645  0  0  -0.046962  0  3.98295  0  0  -0.002972  -0.040393  0  3.952329  0
C  C36  1  0.76023126  0.56117720  0.62554187  1  0  0.665494  0  3.908658  0  0  0.617533  0  4.20735  0  0  0.651422  0  4.199878  0  0  0.208391  0.594568  0  4.211413  0
C  C37  1  0.26023018  0.93883061  0.87445307  1  0  0.665684  0  3.908418  0  0  0.617657  0  4.207181  0  0  0.651548  0  4.199706  0  0  0.208414  0.594694  0  4.211241  0
C  C38  1  0.23977416  0.43886663  0.37443935  1  0  0.665497  0  3.908913  0  0  0.617536  0  4.207593  0  0  0.651425  0  4.200106  0  0  0.208434  0.594581  0  4.211635  0
C  C39  1  0.73977665  0.06112989  0.12555827  1  0  0.665538  0  3.908777  0  0  0.617582  0  4.207467  0  0  0.651469  0  4.199984  0  0  0.208421  0.594624  0  4.211523  0
C  C40  1  0.69232404  0.51307538  0.48785600  1  0  -0.078808  0  3.663102  0  0  -0.112681  0  3.915226  0  0  -0.112717  0  3.931207  0  0  -0.070504  -0.112579  0  3.904693  0
C  C41  1  0.19232048  0.98693570  0.01213752  1  0  -0.078912  0  3.663475  0  0  -0.11268  0  3.915585  0  0  -0.112708  0  3.93156  0  0  -0.070614  -0.112569  0  3.905032  0
C  C42  1  0.30768419  0.48700170  0.51211750  1  0  -0.079314  0  3.663945  0  0  -0.113106  0  3.916156  0  0  -0.113146  0  3.932146  0  0  -0.070741  -0.112996  0  3.905595  0
C  C43  1  0.80768635  0.01300761  0.98787791  1  0  -0.079394  0  3.66351  0  0  -0.113234  0  3.915716  0  0  -0.113272  0  3.931699  0  0  -0.070832  -0.113114  0  3.905139  0
C  C44  1  0.36769253  0.59537689  0.86295979  1  0  0.697327  0  3.875441  0  0  0.652565  0  4.170933  0  0  0.687639  0  4.160552  0  0  0.230641  0.62873  0  4.177092  0
C  C45  1  0.86768481  0.90463103  0.63704409  1  0  0.697873  0  3.874885  0  0  0.652799  0  4.170852  0  0  0.687872  0  4.160475  0  0  0.230766  0.628955  0  4.177018  0
C  C46  1  0.63231571  0.40458277  0.13702820  1  0  0.697654  0  3.874895  0  0  0.652882  0  4.170377  0  0  0.687954  0  4.159981  0  0  0.230853  0.62904  0  4.176554  0
C  C47  1  0.13230095  0.09540360  0.36297072  1  0  0.697658  0  3.874975  0  0  0.652909  0  4.170428  0  0  0.687981  0  4.160033  0  0  0.230791  0.629069  0  4.176602  0
C  C48  1  0.59696156  0.61180981  0.96963369  1  0  -0.05862  0  3.635974  0  0  -0.092955  0  3.885691  0  0  -0.092386  0  3.903233  0  0  -0.062466  -0.093273  0  3.873983  0
C  C49  1  0.09694548  0.88820371  0.53036687  1  0  -0.058738  0  3.635953  0  0  -0.09303  0  3.88565  0  0  -0.092459  0  3.903199  0  0  -0.062473  -0.093353  0  3.873941  0
C  C50  1  0.40304667  0.38816712  0.03035243  1  0  -0.058339  0  3.635778  0  0  -0.092767  0  3.885487  0  0  -0.092191  0  3.903042  0  0  -0.062479  -0.093087  0  3.873778  0
C  C51  1  0.90303325  0.11183896  0.46964640  1  0  -0.058311  0  3.635932  0  0  -0.092721  0  3.885637  0  0  -0.092154  0  3.903195  0  0  -0.062392  -0.093042  0  3.87392  0
C  C52  1  0.43845729  0.54012076  0.93212218  1  0  -0.037338  0  3.659393  0  0  -0.026945  0  3.892589  0  0  -0.031088  0  3.911464  0  0  0.005639  -0.02436  0  3.880058  0
C  C53  1  0.93843904  0.95989594  0.56788341  1  0  -0.037519  0  3.659554  0  0  -0.027009  0  3.892796  0  0  -0.031166  0  3.911685  0  0  0.005693  -0.024416  0  3.880259  0
C  C54  1  0.56155375  0.45986210  0.06786776  1  0  -0.037533  0  3.659435  0  0  -0.027113  0  3.892678  0  0  -0.031273  0  3.911563  0  0  0.005678  -0.02453  0  3.880152  0
C  C55  1  0.06152846  0.04014580  0.43213588  1  0  -0.037468  0  3.659279  0  0  -0.027043  0  3.89245  0  0  -0.031203  0  3.911343  0  0  0.005641  -0.024449  0  3.879914  0
C  C56  1  0.34197598  0.42611351  0.96239536  1  0  -0.052379  0  3.696326  0  0  -0.041708  0  3.936722  0  0  -0.045931  0  3.95563  0  0  0.003522  -0.038934  0  3.924042  0
C  C57  1  0.84197177  0.07389159  0.53760322  1  0  -0.052408  0  3.696509  0  0  -0.041787  0  3.9369  0  0  -0.045989  0  3.955809  0  0  0.0034  -0.039017  0  3.924227  0
C  C58  1  0.65801821  0.57384483  0.03758808  1  0  -0.051959  0  3.696076  0  0  -0.041337  0  3.936549  0  0  -0.045542  0  3.955459  0  0  0.003526  -0.038564  0  3.923868  0
C  C59  1  0.15800275  0.92615576  0.46241155  1  0  -0.051833  0  3.695806  0  0  -0.041273  0  3.936219  0  0  -0.045478  0  3.955134  0  0  0.003545  -0.038505  0  3.923543  0
C  C60  1  0.18366012  0.33900446  0.91874186  1  0  0.692983  0  3.742176  0  0  0.634761  0  4.053701  0  0  0.669317  0  4.042006  0  0  0.257275  0.611171  0  4.061295  0
C  C61  1  0.68365782  0.16100175  0.58126199  1  0  0.692725  0  3.742235  0  0  0.634554  0  4.053663  0  0  0.669103  0  4.041986  0  0  0.257151  0.610964  0  4.06126  0
C  C62  1  0.81633829  0.66096217  0.08124727  1  0  0.693079  0  3.741325  0  0  0.634687  0  4.053107  0  0  0.669232  0  4.041418  0  0  0.257248  0.611118  0  4.060688  0
C  C63  1  0.31632794  0.83902972  0.41876143  1  0  0.692969  0  3.741695  0  0  0.634695  0  4.053303  0  0  0.669227  0  4.041625  0  0  0.25728  0.611129  0  4.060885  0
O  O64  1  0.41605127  0.09935733  0.73538918  1  0  -0.88574  0  1.821726  0  0  -0.845868  0  1.989329  0  0  -0.863988  0  1.956899  0  0  -0.631387  -0.83269  0  2.012202  0
O  O65  1  0.91605433  0.40064968  0.76461221  1  0  -0.885709  0  1.821762  0  0  -0.845786  0  1.989334  0  0  -0.863898  0  1.956904  0  0  -0.631307  -0.832608  0  2.01221  0
O  O66  1  0.58394994  0.90063917  0.26462630  1  0  -0.885546  0  1.821773  0  0  -0.845714  0  1.989532  0  0  -0.863811  0  1.95714  0  0  -0.6314  -0.832532  0  2.012385  0
O  O67  1  0.08394969  0.59934932  0.23537632  1  0  -0.885568  0  1.821811  0  0  -0.845711  0  1.989508  0  0  -0.863789  0  1.957132  0  0  -0.631364  -0.832529  0  2.012359  0
O  O68  1  0.31371931  0.68685415  0.68075955  1  0  -0.821779  0  2.163555  0  0  -0.778238  0  2.427809  0  0  -0.805855  0  2.415117  0  0  -0.472603  -0.757779  0  2.435693  0
O  O69  1  0.81372387  0.81314154  0.81923911  1  0  -0.82176  0  2.163673  0  0  -0.778227  0  2.427882  0  0  -0.805853  0  2.415212  0  0  -0.472639  -0.757772  0  2.435772  0
O  O70  1  0.68626785  0.31312908  0.31924096  1  0  -0.821493  0  2.16355  0  0  -0.778152  0  2.427632  0  0  -0.805746  0  2.414995  0  0  -0.472543  -0.757698  0  2.435504  0
O  O71  1  0.18627453  0.18685202  0.18075894  1  0  -0.821542  0  2.163497  0  0  -0.77816  0  2.427552  0  0  -0.805759  0  2.414945  0  0  -0.472588  -0.757709  0  2.435439  0
O  O72  1  0.70086777  0.61696098  0.69268252  1  0  -0.763074  0  2.140899  0  0  -0.716725  0  2.389548  0  0  -0.744014  0  2.381535  0  0  -0.405597  -0.697013  0  2.394456  0
O  O73  1  0.20087242  0.88304179  0.80731553  1  0  -0.763151  0  2.140976  0  0  -0.716803  0  2.389676  0  0  -0.744091  0  2.381663  0  0  -0.405633  -0.697083  0  2.394572  0
O  O74  1  0.29911940  0.38305409  0.30730294  1  0  -0.762991  0  2.141077  0  0  -0.716578  0  2.389472  0  0  -0.743822  0  2.381455  0  0  -0.405616  -0.696874  0  2.394371  0
O  O75  1  0.79912037  0.11693143  0.19269577  1  0  -0.763096  0  2.141145  0  0  -0.716694  0  2.389584  0  0  -0.743931  0  2.381564  0  0  -0.405631  -0.696987  0  2.394493  0
O  O76  1  0.48802133  0.64972021  0.82377931  1  0  -0.685347  0  2.10064  0  0  -0.646383  0  2.347722  0  0  -0.67184  0  2.339119  0  0  -0.370541  -0.628223  0  2.35308  0
O  O77  1  0.98801260  0.85028283  0.67622042  1  0  -0.685525  0  2.100547  0  0  -0.646458  0  2.347787  0  0  -0.671907  0  2.339184  0  0  -0.370545  -0.628299  0  2.353141  0
O  O78  1  0.51198691  0.35023833  0.17620969  1  0  -0.685423  0  2.100449  0  0  -0.646528  0  2.347654  0  0  -0.67197  0  2.339055  0  0  -0.370567  -0.628367  0  2.353017  0
O  O79  1  0.01197316  0.14975050  0.32379040  1  0  -0.68548  0  2.100676  0  0  -0.646527  0  2.347743  0  0  -0.671951  0  2.339152  0  0  -0.370579  -0.628368  0  2.353106  0
O  O80  1  0.19090047  0.58872304  0.85048552  1  0  -0.718082  0  2.021239  0  0  -0.679444  0  2.267869  0  0  -0.706427  0  2.25793  0  0  -0.385631  -0.660046  0  2.274124  0
O  O81  1  0.69089504  0.91128210  0.64951654  1  0  -0.7183  0  2.021114  0  0  -0.679548  0  2.267891  0  0  -0.706537  0  2.257949  0  0  -0.385749  -0.660147  0  2.274147  0
O  O82  1  0.80911058  0.41125029  0.14949697  1  0  -0.718231  0  2.021189  0  0  -0.679685  0  2.267955  0  0  -0.706632  0  2.258022  0  0  -0.385811  -0.66028  0  2.274213  0
O  O83  1  0.30908931  0.08873857  0.35049598  1  0  -0.718202  0  2.02116  0  0  -0.679693  0  2.267959  0  0  -0.706665  0  2.258019  0  0  -0.38568  -0.660294  0  2.274217  0
O  O84  1  0.93271133  0.53141300  0.61375912  1  0  -0.651766  0  1.988236  0  0  -0.610029  0  2.222511  0  0  -0.636224  0  2.217447  0  0  -0.346664  -0.591573  0  2.225541  0
O  O85  1  0.43271098  0.96859639  0.88623750  1  0  -0.651887  0  1.988103  0  0  -0.610146  0  2.222402  0  0  -0.636331  0  2.217308  0  0  -0.34673  -0.591694  0  2.225437  0
O  O86  1  0.06729269  0.46862289  0.38622642  1  0  -0.651808  0  1.988155  0  0  -0.610151  0  2.222485  0  0  -0.63628  0  2.217334  0  0  -0.346783  -0.5917  0  2.225516  0
O  O87  1  0.56729445  0.03136744  0.11376968  1  0  -0.651816  0  1.988027  0  0  -0.61014  0  2.222372  0  0  -0.636309  0  2.21727  0  0  -0.346796  -0.591691  0  2.225406  0
O  O88  1  0.27621073  0.43242361  0.67547737  1  0  -0.59891  0  1.898434  0  0  -0.564991  0  2.119942  0  0  -0.586045  0  2.108982  0  0  -0.302154  -0.550145  0  2.127196  0
O  O89  1  0.77620864  0.06756550  0.82451062  1  0  -0.59885  0  1.898722  0  0  -0.564973  0  2.120216  0  0  -0.586031  0  2.109259  0  0  -0.302116  -0.550125  0  2.12747  0
O  O90  1  0.72382560  0.56753328  0.32446605  1  0  -0.598996  0  1.898847  0  0  -0.565205  0  2.120219  0  0  -0.586242  0  2.109254  0  0  -0.302404  -0.550358  0  2.127466  0
O  O91  1  0.22382207  0.93244188  0.17551797  1  0  -0.599003  0  1.898714  0  0  -0.565177  0  2.120091  0  0  -0.586225  0  2.109131  0  0  -0.302424  -0.55033  0  2.12734  0
O  O92  1  0.02613605  0.33732574  0.95887738  1  0  -0.5059  0  2.075961  0  0  -0.457518  0  2.289361  0  0  -0.479381  0  2.277433  0  0  -0.302714  -0.442303  0  2.297395  0
O  O93  1  0.52611836  0.16268615  0.54112992  1  0  -0.506033  0  2.075478  0  0  -0.45752  0  2.288913  0  0  -0.479388  0  2.276989  0  0  -0.30273  -0.442307  0  2.296947  0
O  O94  1  0.97388764  0.66262563  0.04110548  1  0  -0.505836  0  2.075648  0  0  -0.457543  0  2.288887  0  0  -0.479352  0  2.277045  0  0  -0.302673  -0.442343  0  2.296895  0
O  O95  1  0.47385475  0.83737686  0.45890225  1  0  -0.505828  0  2.076232  0  0  -0.4575  0  2.289401  0  0  -0.479301  0  2.277569  0  0  -0.302708  -0.442308  0  2.297374  0
O  O96  1  0.19654179  0.26988081  0.85255141  1  0  -0.567636  0  1.994906  0  0  -0.515588  0  2.206762  0  0  -0.537845  0  2.196689  0  0  -0.261031  -0.500462  0  2.213696  0
O  O97  1  0.69654914  0.23013134  0.64745357  1  0  -0.567465  0  1.995175  0  0  -0.515475  0  2.207069  0  0  -0.537705  0  2.196937  0  0  -0.26094  -0.500346  0  2.214003  0
O  O98  1  0.80345661  0.73010422  0.14743483  1  0  -0.567804  0  1.994869  0  0  -0.515461  0  2.206506  0  0  -0.537706  0  2.196448  0  0  -0.26102  -0.500381  0  2.213458  0
O  O99  1  0.30344646  0.76988412  0.35257459  1  0  -0.567826  0  1.994708  0  0  -0.515533  0  2.206283  0  0  -0.537765  0  2.196219  0  0  -0.261085  -0.50046  0  2.213241  0
