# generated using pymatgen
data_CoH26C32(N5O3)2
_symmetry_space_group_name_H-M   'P 1'
_cell_length_a   8.29792884
_cell_length_b   9.02786310
_cell_length_c   11.20090025
_cell_angle_alpha   83.98283911
_cell_angle_beta   68.93337561
_cell_angle_gamma   73.89603544
_symmetry_Int_Tables_number   1
_chemical_formula_structural   CoH26C32(N5O3)2
_chemical_formula_sum   'Co1 H26 C32 N10 O6'
_cell_volume   752.26864487
_cell_formula_units_Z   1
loop_
 _symmetry_equiv_pos_site_id
 _symmetry_equiv_pos_as_xyz
  1  'x, y, z'
loop_
 _atom_site_type_symbol
 _atom_site_label
 _atom_site_symmetry_multiplicity
 _atom_site_fract_x
 _atom_site_fract_y
 _atom_site_fract_z
 _atom_site_occupancy
 _atom_site_hle17_ddec_charge
 _atom_site_hle17_ddec_spin_density
 _atom_site_hle17_ddec_sum_bond_order
 _atom_site_hle17_magmom
 _atom_site_hse06_10hf_ddec_charge
 _atom_site_hse06_10hf_ddec_spin_density
 _atom_site_hse06_10hf_ddec_sum_bond_order
 _atom_site_hse06_10hf_magmom
 _atom_site_hse06_ddec_charge
 _atom_site_hse06_ddec_spin_density
 _atom_site_hse06_ddec_sum_bond_order
 _atom_site_hse06_magmom
 _atom_site_pbe_cm5_charge
 _atom_site_pbe_ddec_charge
 _atom_site_pbe_ddec_spin_density
 _atom_site_pbe_ddec_sum_bond_order
 _atom_site_pbe_magmom
Co  Co0  1  0.49998873  0.50000107  0.50000548  1  0.733653  -1.138023  2.370087  -1.036  0.727461  -1.040371  2.789363  -0.975  0.795872  -1.029961  2.714237  -0.974  0.633529  0.687215  -1.041644  2.836321  -0.968
H  H1  1  0.27709297  0.23147831  0.76532805  1  0.085979  8e-06  0.948803  0.0  0.094757  1.7e-05  1.012048  0.0  0.097919  3.1e-05  1.008825  0.0  0.110441  0.092263  7e-06  1.014603  0.0
H  H2  1  0.72291132  0.76853540  0.23467469  1  0.086021  6e-06  0.948877  0.0  0.09481  1.7e-05  1.01209  0.0  0.097967  3.1e-05  1.00887  0.0  0.110493  0.09232  7e-06  1.014637  0.0
H  H3  1  0.94727715  0.33709285  0.88050659  1  0.102201  0.0  0.946905  0.0  0.114804  3e-06  1.001815  0.0  0.117656  -1e-06  1.001925  0.0  0.10549  0.11286  8e-06  1.00164  0.0
H  H4  1  0.05272466  0.66291066  0.11949579  1  0.102198  0.0  0.946862  0.0  0.114782  3e-06  1.001792  0.0  0.117634  -1e-06  1.001903  0.0  0.105468  0.112838  8e-06  1.001618  0.0
H  H5  1  0.85427350  0.60091192  0.78009651  1  0.100627  0.000458  0.95943  0.001  0.110553  6.3e-05  1.019358  0.0  0.112823  6e-05  1.020417  0.0  0.104602  0.108653  5.5e-05  1.019367  0.0
H  H6  1  0.14570498  0.39907628  0.21989302  1  0.100526  0.000457  0.959446  0.001  0.110395  6.3e-05  1.019465  0.0  0.112662  6e-05  1.020527  0.0  0.104571  0.108496  5.5e-05  1.019473  0.0
H  H7  1  0.28774063  0.71963072  0.37521086  1  0.101913  4e-05  0.957775  0.0  0.107559  0.000238  1.024577  0.0  0.110944  0.00018  1.020072  0.0  0.125231  0.104714  0.000264  1.028473  0.0
H  H8  1  0.71226087  0.28036827  0.62479466  1  0.101852  4.1e-05  0.95789  0.0  0.107583  0.000238  1.024617  0.0  0.110968  0.000179  1.020107  0.0  0.125233  0.104736  0.000264  1.028514  0.0
H  H9  1  0.80947494  0.24299173  0.10072874  1  0.090248  1.7e-05  0.982819  0.0  0.100403  2.5e-05  1.048165  0.0  0.102757  1.3e-05  1.046945  0.0  0.104025  0.098611  3.4e-05  1.049122  0.0
H  H10  1  0.19052770  0.75699917  0.89927092  1  0.090279  1.8e-05  0.982734  0.0  0.10039  2.5e-05  1.048141  0.0  0.102744  1.3e-05  1.046919  0.0  0.103985  0.098597  3.4e-05  1.049099  0.0
H  H11  1  0.74526881  0.80757418  0.63929953  1  0.121269  -0.000111  0.942532  -0.001  0.130575  9.9e-05  1.001988  0.0  0.134486  4.3e-05  0.997476  0.0  0.113819  0.127303  0.000168  1.005954  0.0
H  H12  1  0.25472446  0.19242039  0.36069222  1  0.121291  -0.00011  0.942579  -0.001  0.130589  9.9e-05  1.002031  0.0  0.134498  4.3e-05  0.997523  0.0  0.11384  0.127318  0.000168  1.005993  0.0
H  H13  1  0.18183817  0.46659535  0.71230939  1  0.088302  -1.5e-05  0.963199  -0.001  0.094835  0.000191  1.030757  0.0  0.097266  0.000141  1.027799  0.0  0.119426  0.092969  0.000222  1.032949  0.0
H  H14  1  0.81814840  0.53340756  0.28769487  1  0.088296  -1.4e-05  0.963278  -0.001  0.094826  0.000191  1.030838  0.0  0.097265  0.000141  1.02786  0.0  0.119428  0.092963  0.000222  1.033025  0.0
H  H15  1  0.33553312  0.97076773  0.08170594  1  0.08295  -1e-06  0.952746  0.0  0.084842  3e-06  1.028668  0.0  0.088689  1e-06  1.024374  0.0  0.112729  0.082063  4e-06  1.031756  0.0
H  H16  1  0.66447330  0.02923332  0.91829376  1  0.082952  -2e-06  0.952776  0.0  0.084862  3e-06  1.028679  0.0  0.088729  1e-06  1.02437  0.0  0.112722  0.082081  4e-06  1.03177  0.0
H  H17  1  0.45793121  0.83340322  0.45141894  1  0.405116  -0.000101  0.849623  0.0  0.381045  -0.000613  0.924999  -0.001  0.390667  -0.000414  0.913431  -0.001  0.30294  0.37471  -0.000708  0.932186  -0.001
H  H18  1  0.54206366  0.16659603  0.54858991  1  0.405115  -0.000102  0.849667  0.0  0.381037  -0.000613  0.925046  -0.001  0.39066  -0.000414  0.913476  -0.001  0.30292  0.374703  -0.000708  0.932233  -0.001
H  H19  1  0.49370502  0.69744043  0.14194151  1  0.109013  4.5e-05  0.962517  0.0  0.113713  7e-06  1.03279  0.0  0.117397  6e-06  1.029888  0.0  0.106025  0.111109  -2e-06  1.034995  0.0
H  H20  1  0.50631598  0.30255786  0.85806033  1  0.108979  4.5e-05  0.962606  0.0  0.113703  7e-06  1.032811  0.0  0.117416  6e-06  1.029876  0.0  0.106024  0.111102  -2e-06  1.035008  0.0
H  H21  1  0.51142275  0.23037636  0.07754559  1  0.107397  -1.1e-05  0.958459  0.0  0.111616  4e-06  1.028934  0.0  0.114864  1e-06  1.02717  0.0  0.106148  0.109332  5e-06  1.030528  0.0
H  H22  1  0.48859247  0.76962900  0.92245882  1  0.107318  -1.1e-05  0.958489  0.0  0.111531  4e-06  1.028973  0.0  0.11478  1e-06  1.027206  0.0  0.106097  0.109249  5e-06  1.030562  0.0
H  H23  1  0.54770946  0.74986341  0.54794174  1  0.398795  0.000918  0.910901  0.001  0.366206  0.000361  0.985783  0.0  0.377445  0.000393  0.969111  0.0  0.285888  0.358467  0.00037  0.997162  0.0
H  H24  1  0.45228752  0.25013345  0.45206323  1  0.398819  0.000919  0.910935  0.001  0.366217  0.000361  0.985783  0.0  0.377454  0.000393  0.969117  0.0  0.285887  0.358478  0.00037  0.997163  0.0
H  H25  1  0.70889779  0.14990737  0.30155148  1  0.301035  6.7e-05  0.93311  0.0  0.278329  4e-05  0.9989  0.0  0.286647  3e-05  0.992559  0.0  0.321127  0.272271  6e-05  1.003734  0.0
H  H26  1  0.29110956  0.85009131  0.69844284  1  0.300988  6.7e-05  0.933116  0.0  0.278265  4e-05  0.998924  0.0  0.286587  3e-05  0.992583  0.0  0.321082  0.272205  6e-05  1.00376  0.0
C  C27  1  0.21313168  0.19793351  0.86420646  1  0.112615  0.000188  3.713609  0.0  0.083314  2.9e-05  3.978023  0.0  0.090255  5.2e-05  3.993275  0.0  0.039247  0.078695  4e-06  3.968021  0.0
C  C28  1  0.78687143  0.80206996  0.13579561  1  0.11247  0.000207  3.713861  0.0  0.083168  2.9e-05  3.978263  0.0  0.090115  5.1e-05  3.993508  0.0  0.039225  0.07855  3e-06  3.96826  0.0
C  C29  1  0.02985510  0.25579566  0.92775366  1  -0.122389  -5.2e-05  3.757676  0.0  -0.131448  -4e-06  4.006907  0.0  -0.138439  -1.9e-05  4.028876  0.0  -0.089589  -0.126551  1.7e-05  3.990789  0.0
C  C30  1  0.97014718  0.74420668  0.07224603  1  -0.122349  -5.6e-05  3.757797  0.0  -0.131384  -4e-06  4.007019  0.0  -0.138376  -1.9e-05  4.028989  0.0  -0.089629  -0.126489  1.7e-05  3.990903  0.0
C  C31  1  0.00925015  0.77752203  0.49456657  1  -0.027781  -0.004446  3.776816  -0.007  -0.006463  -0.000492  4.010482  -0.001  -0.013354  -0.000552  4.03119  -0.001  0.00228  -0.00305  -0.000291  3.997607  -0.001
C  C32  1  0.99074566  0.22248053  0.50543374  1  -0.027686  -0.004439  3.776621  -0.007  -0.006419  -0.000492  4.010307  -0.001  -0.013307  -0.000551  4.031016  -0.001  0.002259  -0.00301  -0.00029  3.997426  -0.001
C  C33  1  0.94670003  0.63027809  0.68932712  1  -0.120572  -0.005367  3.753969  -0.008  -0.131522  -0.00064  4.010083  -0.001  -0.140179  -0.000642  4.030243  -0.001  -0.087895  -0.126547  -0.000454  3.998064  -0.002
C  C34  1  0.05328986  0.36971432  0.31066650  1  -0.120246  -0.005356  3.754082  -0.008  -0.131148  -0.000639  4.01016  -0.001  -0.139803  -0.000641  4.030324  -0.001  -0.087814  -0.126174  -0.000453  3.998137  -0.002
C  C35  1  0.18863200  0.69635419  0.46440236  1  0.089788  0.018893  3.633318  0.013  0.048256  0.007293  3.889289  0.004  0.061082  0.005171  3.900531  0.003  0.046856  0.039529  0.008529  3.883479  0.005
C  C36  1  0.81136845  0.30364938  0.53560123  1  0.089766  0.018867  3.633402  0.013  0.048158  0.007287  3.889378  0.004  0.060978  0.005167  3.900629  0.003  0.04685  0.039439  0.008521  3.883562  0.005
C  C37  1  0.95301139  0.20346250  0.05106469  1  -0.049546  0.000183  3.721054  0.0  -0.078755  3.4e-05  3.968631  0.0  -0.075961  4.4e-05  3.988387  0.0  -0.074057  -0.079457  3.3e-05  3.954258  0.0
C  C38  1  0.04699014  0.79653300  0.94893396  1  -0.049617  0.000187  3.721083  0.0  -0.0788  3.5e-05  3.968681  0.0  -0.076004  4.4e-05  3.988436  0.0  -0.074014  -0.079502  3.3e-05  3.954309  0.0
C  C39  1  0.50399933  0.45850594  0.12332426  1  -0.06863  0.001298  3.756622  0.001  -0.046968  0.000765  3.989612  0.001  -0.054497  0.000582  4.012368  0.0  -0.018743  -0.04174  0.000761  3.973776  0.0
C  C40  1  0.49601056  0.54150073  0.87667862  1  -0.068565  0.001273  3.756486  0.001  -0.046931  0.000765  3.98946  0.001  -0.054464  0.000584  4.012224  0.0  -0.018754  -0.041718  0.000761  3.973651  0.0
C  C41  1  0.51304976  0.40906657  0.25371249  1  0.631616  0.003524  3.863116  0.002  0.580856  0.002265  4.168034  0.001  0.617653  0.001444  4.160623  0.001  0.218841  0.555713  0.003089  4.171945  0.002
C  C42  1  0.48694487  0.59093491  0.74629087  1  0.631533  0.00353  3.863154  0.002  0.580748  0.002266  4.168104  0.001  0.617552  0.001445  4.160694  0.001  0.218762  0.555606  0.003091  4.172015  0.002
C  C43  1  0.99151676  0.02919185  0.23368971  1  0.314593  0.000791  3.814672  0.001  0.279089  0.00012  4.08634  0.0  0.293378  0.000148  4.103539  0.0  0.224404  0.269939  7.4e-05  4.074431  0.0
C  C44  1  0.00848560  0.97080588  0.76630676  1  0.314572  0.000795  3.814584  0.001  0.279085  0.00012  4.08625  0.0  0.293379  0.000148  4.103446  0.0  0.224487  0.269934  7.4e-05  4.07434  0.0
C  C45  1  0.06199449  0.09590059  0.10781050  1  -0.060736  -0.000107  3.81891  0.0  -0.036185  -2.8e-05  4.048472  0.0  -0.043462  -3.2e-05  4.073395  0.0  -0.006392  -0.032014  -2.5e-05  4.032213  0.0
C  C46  1  0.93800817  0.90409598  0.89218600  1  -0.060694  -0.000112  3.819142  0.0  -0.036156  -2.8e-05  4.048724  0.0  -0.043434  -3.2e-05  4.073652  0.0  -0.006407  -0.031984  -2.5e-05  4.032461  0.0
C  C47  1  0.96199878  0.89349513  0.40335005  1  0.287331  0.002144  3.819228  0.002  0.265759  0.000246  4.096412  0.0  0.275908  0.000313  4.115327  0.0  0.210361  0.259802  0.000125  4.082334  0.0
C  C48  1  0.03800711  0.10650821  0.59664870  1  0.287294  0.002148  3.819243  0.002  0.26581  0.000246  4.096338  0.0  0.275958  0.000313  4.115251  0.0  0.210352  0.259854  0.000125  4.08226  0.0
C  C49  1  0.88566208  0.74514474  0.61082412  1  -0.019938  0.021151  3.644285  0.014  -0.052111  0.007711  3.894951  0.004  -0.04337  0.004691  3.907005  0.003  -0.063713  -0.058434  0.010433  3.888362  0.006
C  C50  1  0.11433115  0.25485552  0.38916538  1  -0.02006  0.021122  3.644296  0.014  -0.052197  0.007705  3.894898  0.004  -0.043463  0.004688  3.906958  0.003  -0.063742  -0.058513  0.010424  3.8883  0.006
C  C51  1  0.50654716  0.34829405  0.04261177  1  -0.08146  0.000396  3.72942  0.0  -0.103533  0.000234  3.979909  0.0  -0.105138  0.000129  4.001338  0.0  -0.085848  -0.102468  0.000338  3.965849  0.0
C  C52  1  0.49347122  0.65170544  0.95738612  1  -0.081313  0.000425  3.729332  0.0  -0.103348  0.000234  3.979807  0.0  -0.104953  0.000127  4.001238  0.0  -0.085753  -0.102273  0.000339  3.965738  0.0
C  C53  1  0.49660367  0.61090058  0.08006498  1  -0.067829  0.000696  3.716813  0.0  -0.092724  0.000364  3.967505  0.0  -0.092874  0.000215  3.987755  0.0  -0.083046  -0.09246  0.000495  3.954037  0.0
C  C54  1  0.50341470  0.38909212  0.91994062  1  -0.067906  0.000722  3.716766  0.0  -0.092746  0.000363  3.967381  0.0  -0.092918  0.000213  3.987622  0.0  -0.083043  -0.092475  0.000495  3.953915  0.0
C  C55  1  0.12736877  0.55453392  0.65314884  1  0.111902  0.01993  3.661923  0.013  0.078544  0.007163  3.920109  0.004  0.090231  0.004976  3.934926  0.003  0.038443  0.070078  0.008796  3.912236  0.005
C  C56  1  0.87262091  0.44546313  0.34684981  1  0.111838  0.019896  3.662268  0.013  0.078472  0.007159  3.920417  0.004  0.090159  0.004974  3.935246  0.003  0.038488  0.070007  0.00879  3.912543  0.005
C  C57  1  0.24628753  0.04963323  0.03782247  1  0.100785  0.000187  3.677717  0.0  0.071406  4.4e-05  3.929492  0.0  0.076971  5.1e-05  3.946164  0.0  0.051817  0.067815  2.5e-05  3.918592  0.0
C  C58  1  0.75371680  0.95036672  0.96217425  1  0.100772  0.000201  3.677836  0.0  0.071374  4.4e-05  3.929623  0.0  0.076921  5e-05  3.946288  0.0  0.051811  0.067784  2.5e-05  3.918721  0.0
N  N59  1  0.08497324  0.91600540  0.28808924  1  -0.466495  -0.000513  2.935838  -0.001  -0.436897  -9.1e-05  3.206065  0.0  -0.453836  -0.000103  3.21971  0.0  -0.331472  -0.425389  -3e-05  3.196196  0.0
N  N60  1  0.91502886  0.08398889  0.71190490  1  -0.466451  -0.000516  2.935741  -0.001  -0.436921  -9.1e-05  3.206002  0.0  -0.453863  -0.000103  3.21965  0.0  -0.331499  -0.425413  -3e-05  3.196131  0.0
N  N61  1  0.81929640  0.07126530  0.31457399  1  -0.223611  -0.000371  3.449057  -0.001  -0.160288  -7.5e-05  3.688008  0.0  -0.17594  -6.4e-05  3.706968  0.0  -0.266621  -0.150024  -6e-05  3.675758  0.0
N  N62  1  0.18071082  0.92873450  0.68541759  1  -0.223452  -0.00037  3.448795  -0.001  -0.160111  -7.5e-05  3.687727  0.0  -0.175771  -6.5e-05  3.706689  0.0  -0.266565  -0.149846  -6e-05  3.675478  0.0
N  N63  1  0.24790020  0.58886253  0.54240374  1  -0.253638  0.014028  3.393222  0.007  -0.207103  0.010476  3.682413  0.007  -0.234087  0.009488  3.699199  0.007  -0.347606  -0.191422  0.010543  3.6721  0.007
N  N64  1  0.75210057  0.41113640  0.45759302  1  -0.253695  0.014039  3.393267  0.007  -0.207161  0.010475  3.682481  0.007  -0.234151  0.009486  3.699277  0.007  -0.34764  -0.19148  0.010542  3.672165  0.007
N  N65  1  0.79730067  0.98697713  0.42357338  1  -0.269481  -0.001795  2.862828  -0.003  -0.255864  -0.000917  3.132271  -0.001  -0.264593  -0.000708  3.146641  -0.001  -0.218509  -0.250354  -0.000737  3.122227  -0.001
N  N66  1  0.20270014  0.01303096  0.57642618  1  -0.269565  -0.001796  2.863005  -0.003  -0.255984  -0.000916  3.132435  -0.001  -0.264711  -0.000708  3.146806  -0.001  -0.218531  -0.250474  -0.000736  3.12239  -0.001
N  N67  1  0.32081541  0.09772715  0.91851070  1  -0.310104  -5.3e-05  3.058638  0.0  -0.272913  -1.8e-05  3.331636  0.0  -0.283684  -2.2e-05  3.344702  0.0  -0.323855  -0.265614  -8e-06  3.323135  0.0
N  N68  1  0.67918529  0.90228096  0.08149068  1  -0.310024  -5.8e-05  3.058635  0.0  -0.272831  -1.8e-05  3.331635  0.0  -0.283597  -2.2e-05  3.344697  0.0  -0.323835  -0.265533  -8e-06  3.323132  0.0
O  O69  1  0.51272315  0.27027311  0.28856874  1  -0.625964  0.001507  2.026432  0.001  -0.56866  0.000709  2.249936  0.0  -0.592604  0.000487  2.23791  0.0  -0.308267  -0.552002  0.000948  2.257978  0.001
O  O70  1  0.48726623  0.72973316  0.71143815  1  -0.625954  0.001505  2.026389  0.001  -0.568651  0.000709  2.249904  0.0  -0.59261  0.000488  2.237884  0.0  -0.308261  -0.551988  0.000948  2.257943  0.001
O  O71  1  0.52343287  0.51077981  0.32021663  1  -0.558001  0.016939  2.209357  0.013  -0.524334  0.005777  2.492975  0.005  -0.564139  0.005691  2.485685  0.005  -0.291791  -0.49665  0.004146  2.496584  0.003
O  O72  1  0.47655328  0.48921859  0.67979258  1  -0.558018  0.016931  2.20955  0.013  -0.52429  0.005775  2.493139  0.005  -0.564081  0.005689  2.485828  0.005  -0.291702  -0.496605  0.004144  2.496742  0.003
O  O73  1  0.55355313  0.74399923  0.45807545  1  -0.78411  -0.02145  1.895369  -0.037  -0.754436  -0.021209  2.102389  -0.034  -0.776829  -0.016836  2.072361  -0.028  -0.569542  -0.736357  -0.026406  2.121219  -0.042
O  O74  1  0.44644293  0.25600109  0.54193035  1  -0.784133  -0.021452  1.895502  -0.037  -0.754442  -0.021209  2.102465  -0.034  -0.776839  -0.016837  2.072437  -0.028  -0.56952  -0.736359  -0.026407  2.121288  -0.042
