# generated using pymatgen
data_AlH12C17O5
_symmetry_space_group_name_H-M   'P 1'
_cell_length_a   6.65349426
_cell_length_b   20.29136965
_cell_length_c   23.96194413
_cell_angle_alpha   90.40009570
_cell_angle_beta   90.83084637
_cell_angle_gamma   90.73015191
_symmetry_Int_Tables_number   1
_chemical_formula_structural   AlH12C17O5
_chemical_formula_sum   'Al4 H48 C68 O20'
_cell_volume   3234.38050933
_cell_formula_units_Z   4
loop_
 _symmetry_equiv_pos_site_id
 _symmetry_equiv_pos_as_xyz
  1  'x, y, z'
loop_
 _atom_site_type_symbol
 _atom_site_label
 _atom_site_symmetry_multiplicity
 _atom_site_fract_x
 _atom_site_fract_y
 _atom_site_fract_z
 _atom_site_occupancy
 _atom_site_pbe_bader_charge
 _atom_site_pbe_bader_spin_density
 _atom_site_pbe_cm5_charge
 _atom_site_pbe_ddec_charge
 _atom_site_pbe_ddec_spin_density
 _atom_site_pbe_ddec_sum_bond_order
 _atom_site_pbe_magmom
Al  Al0  1  0.90053956  0.50197261  0.49839929  1  2.50265  0  0.400833  1.647757  0  2.576856  0
Al  Al1  1  0.40079585  0.49844945  0.50259743  1  2.503017  0  0.399965  1.646573  0  2.579756  0
Al  Al2  1  0.27716877  0.99789304  0.00186118  1  2.500861  0  0.400596  1.646863  0  2.578643  0
Al  Al3  1  0.77708687  0.00117331  0.99742769  1  2.502164  0  0.400514  1.64707  0  2.579614  0
H  H4  1  0.76615730  0.63579970  0.17287249  1  0.0428  0  0.10193  0.101708  0  0.995021  0
H  H5  1  0.98718488  0.62680814  0.34628393  1  0.066196  0  0.105505  0.10766  0  1.015716  0
H  H6  1  0.38805875  0.70513665  0.47244562  1  0.107075  0  0.110746  0.115664  0  0.983568  0
H  H7  1  0.41283744  0.86382490  0.32690324  1  0.036638  0  0.101929  0.101923  0  0.994673  0
H  H8  1  0.72750340  0.69459397  0.08525352  1  0.070666  0  0.103081  0.102272  0  0.993398  0
H  H9  1  0.79026922  0.79444473  0.02737827  1  0.099444  0  0.111208  0.116863  0  0.983127  0
H  H10  1  0.19012313  0.87317340  0.15359031  1  0.069656  0  0.105667  0.107132  0  1.016539  0
H  H11  1  0.89518459  0.62940853  0.26860325  1  0.056828  0  0.102244  0.102732  0  1.012206  0
H  H12  1  0.28332892  0.87032033  0.23123581  1  0.048075  0  0.102463  0.103141  0  1.011836  0
H  H13  1  0.45201922  0.80481850  0.41452060  1  0.082446  0  0.103193  0.102431  0  0.993716  0
H  H14  1  0.16077196  0.36931518  0.23254159  1  0.040653  0  0.094073  0.092332  0  0.978597  0
H  H15  1  0.08982847  0.29830492  0.15716633  1  0.024692  0  0.093824  0.092224  0  0.976841  0
H  H16  1  0.78037329  0.18391340  0.24359534  1  0.05063  0  0.092371  0.090267  0  0.982659  0
H  H17  1  0.76619244  0.24784696  0.19424671  1  0.065125  0  0.092775  0.090165  0  0.986587  0
H  H18  1  0.81597509  0.32819309  0.26424968  1  0.061815  0  0.093212  0.091139  0  0.98135  0
H  H19  1  0.79838917  0.26485266  0.31399174  1  0.045086  0  0.09392  0.09175  0  0.983961  0
H  H20  1  0.33977826  0.16700545  0.24017932  1  0.039331  0  0.094326  0.092988  0  0.982809  0
H  H21  1  0.11776321  0.13003647  0.26545832  1  0.022771  0  0.094119  0.092721  0  0.977947  0
H  H22  1  0.35256858  0.23175724  0.32165003  1  0.030141  0  0.09408  0.092526  0  0.983514  0
H  H23  1  0.32243232  0.26011113  0.17055664  1  0.054945  0  0.094639  0.093174  0  0.982497  0
H  H24  1  0.37598334  0.32406769  0.25140690  1  0.016767  0  0.093464  0.092627  0  0.98358  0
H  H25  1  0.11366024  0.20251011  0.34190048  1  0.017573  0  0.093853  0.092449  0  0.974594  0
H  H26  1  0.25746436  0.74716661  0.80108948  1  0.018465  0  0.092485  0.089884  0  0.986937  0
H  H27  1  0.33529291  0.66378324  0.73658748  1  0.016867  0  0.093735  0.092791  0  0.977934  0
H  H28  1  0.89110725  0.68873013  0.75215389  1  0.045259  0  0.093253  0.093629  0  0.985676  0
H  H29  1  0.69274070  0.63383186  0.76851257  1  0.045533  0  0.09409  0.092724  0  0.97905  0
H  H30  1  0.58378711  0.70155505  0.84147307  1  0.030449  0  0.093956  0.093073  0  0.974086  0
H  H31  1  0.81173638  0.74609166  0.83432017  1  0.041444  0  0.095881  0.095588  0  0.980969  0
H  H32  1  0.59564858  0.79807967  0.65889421  1  0.039456  0  0.093886  0.09279  0  0.974997  0
H  H33  1  0.84293714  0.77640579  0.67846708  1  0.028211  0  0.093843  0.09243  0  0.983455  0
H  H34  1  0.60483312  0.87158764  0.73493439  1  0.036333  0  0.09436  0.092946  0  0.977904  0
H  H35  1  0.29938817  0.72280975  0.68391819  1  0.025834  0  0.094987  0.094458  0  0.98131  0
H  H36  1  0.27255326  0.80878411  0.74959015  1  0.009149  0  0.09189  0.089817  0  0.982266  0
H  H37  1  0.82750523  0.83706853  0.76214049  1  0.044714  0  0.094943  0.094292  0  0.980172  0
H  H38  1  0.28107188  0.36385817  0.82653656  1  0.05335  0  0.101905  0.102004  0  0.99505  0
H  H39  1  0.49275480  0.37374077  0.65387579  1  0.080933  0  0.105254  0.106871  0  1.017196  0
H  H40  1  0.87783167  0.29546229  0.52858469  1  0.090254  0  0.111551  0.116873  0  0.982572  0
H  H41  1  0.89664894  0.13576051  0.67340707  1  0.062042  0  0.101914  0.101878  0  0.995201  0
H  H42  1  0.24162835  0.30422604  0.91366052  1  0.064565  0  0.102851  0.10217  0  0.993996  0
H  H43  1  0.30044842  0.20407980  0.97133481  1  0.089151  0  0.111265  0.116702  0  0.982404  0
H  H44  1  0.68642914  0.12615426  0.84609275  1  0.083066  0  0.105482  0.107124  0  1.016833  0
H  H45  1  0.40592595  0.37088964  0.73137045  1  0.060957  0  0.102166  0.102256  0  1.012973  0
H  H46  1  0.77200414  0.12877747  0.76859122  1  0.054145  0  0.102317  0.102659  0  1.012866  0
H  H47  1  0.93573917  0.19518886  0.58622411  1  0.075757  0  0.102999  0.102238  0  0.994503  0
H  H48  1  0.63677279  0.53561031  0.43469173  1  0.624488  0  0.356304  0.435252  0  0.846673  0
H  H49  1  0.14213811  0.47119601  0.56917527  1  0.63138  0  0.358251  0.436934  0  0.842572  0
H  H50  1  0.54104396  0.96561945  0.06614131  1  0.618978  0  0.356851  0.435602  0  0.845234  0
H  H51  1  0.03673089  0.03178228  0.93237359  1  0.620182  0  0.357462  0.436139  0  0.844663  0
C  C52  1  0.65850431  0.57719530  0.57867305  1  1.6634  0  0.267593  0.716464  0  4.173229  0
C  C53  1  0.65644236  0.40040194  0.55509134  1  1.55228  0  0.27357  0.652723  0  4.085918  0
C  C54  1  0.14823110  0.42323482  0.42278703  1  1.682343  0  0.269649  0.718826  0  4.168403  0
C  C55  1  0.15562760  0.60017415  0.44555916  1  1.591735  0  0.274407  0.655655  0  4.081843  0
C  C56  1  0.99672207  0.83853410  0.08800412  1  -0.034925  0  -0.014168  -0.034884  0  4.002335  0
C  C57  1  0.18065759  0.66128486  0.41191452  1  -0.043026  0  -0.013332  -0.032787  0  4.000683  0
C  C58  1  0.82680880  0.73422649  0.10051509  1  -0.037453  0  -0.089795  -0.131499  0  4.008919  0
C  C59  1  0.86271807  0.78875439  0.06811878  1  -0.058456  0  -0.085421  -0.101561  0  4.008201  0
C  C60  1  0.08805303  0.83362409  0.14013007  1  -0.004486  0  -0.081613  -0.144728  0  3.947265  0
C  C61  1  0.04198070  0.78059908  0.17600586  1  -0.011183  0  -0.002543  0.033593  0  3.946894  0
C  C62  1  0.91119878  0.72942844  0.15492893  1  -0.070147  0  -0.007436  0.076182  0  4.025008  0
C  C63  1  0.11664958  0.77711392  0.23302397  1  -0.015462  0  -0.00423  0.03337  0  3.956545  0
C  C64  1  0.06177105  0.72266886  0.26683097  1  -0.007515  0  -0.003334  0.030338  0  3.960437  0
C  C65  1  0.93586524  0.67182101  0.24337359  1  0.023119  0  -0.09277  -0.128852  0  4.031615  0
C  C66  1  0.86366160  0.67500822  0.18974278  1  -0.040299  0  -0.092847  -0.135426  0  4.033769  0
C  C67  1  0.24278802  0.82790448  0.25647216  1  -0.026595  0  -0.093016  -0.130536  0  4.03147  0
C  C68  1  0.31509467  0.82465768  0.31008710  1  -0.050645  0  -0.092045  -0.134575  0  4.033696  0
C  C69  1  0.26763397  0.77023307  0.34489866  1  -0.044206  0  -0.008324  0.076284  0  4.024516  0
C  C70  1  0.13641614  0.71919354  0.32384280  1  -0.006337  0  -0.002256  0.034826  0  3.947574  0
C  C71  1  0.35225395  0.76531192  0.39928583  1  0.009718  0  -0.089319  -0.131831  0  4.008165  0
C  C72  1  0.31539047  0.71086582  0.43172299  1  -0.108053  0  -0.086308  -0.101989  0  4.00869  0
C  C73  1  0.08964931  0.66624159  0.35975772  1  -0.009202  0  -0.082226  -0.1471  0  3.94776  0
C  C74  1  0.17939078  0.27368935  0.18959688  1  -0.045978  0  -0.152585  -0.185405  0  3.845672  0
C  C75  1  0.85690882  0.22886085  0.22914437  1  -0.091039  0  -0.155106  -0.190726  0  3.859343  0
C  C76  1  0.87929935  0.28060347  0.27662185  1  -0.0815  0  -0.155064  -0.190531  0  3.855923  0
C  C77  1  0.14068942  0.37552407  0.37780956  1  0.094202  0  -0.055204  -0.225918  0  3.988923  0
C  C78  1  0.06659485  0.20995768  0.20725037  1  0.145822  0  0.000716  0.171315  0  3.891784  0
C  C79  1  0.21501254  0.31935800  0.24085067  1  -0.02587  0  -0.151346  -0.182335  0  3.844919  0
C  C80  1  0.10440500  0.29133280  0.29224159  1  0.162978  0  0.000655  0.169029  0  3.898248  0
C  C81  1  0.19688474  0.22381904  0.30693668  1  -0.011637  0  -0.152816  -0.184208  0  3.848535  0
C  C82  1  0.18830687  0.17763152  0.25531176  1  -0.025016  0  -0.152634  -0.185488  0  3.844798  0
C  C83  1  0.12575248  0.33680525  0.33899694  1  -0.404984  0  -0.021829  -0.035133  0  4.037518  0
C  C84  1  0.04876145  0.16436395  0.16045239  1  -0.467758  0  -0.021375  -0.035006  0  4.034831  0
C  C85  1  0.03678876  0.12527429  0.12183606  1  0.163752  0  -0.056219  -0.226671  0  3.989894  0
C  C86  1  0.38539285  0.71258892  0.72229650  1  0.004503  0  -0.154884  -0.193569  0  3.857781  0
C  C87  1  0.72932105  0.68591551  0.76082370  1  -0.059979  0  -0.152525  -0.185679  0  3.84962  0
C  C88  1  0.67559538  0.72927035  0.81166078  1  -0.02818  0  -0.152762  -0.187319  0  3.846641  0
C  C89  1  0.51667636  0.87455212  0.87679622  1  0.214197  0  -0.056864  -0.227512  0  3.991548  0
C  C90  1  0.61197703  0.70912327  0.70827327  1  0.140512  0  0.000832  0.170818  0  3.894404  0
C  C91  1  0.35116028  0.76617933  0.76723798  1  -0.004579  0  -0.15581  -0.192769  0  3.864314  0
C  C92  1  0.55575839  0.79022195  0.79199763  1  0.155739  0  0.000854  0.172028  0  3.893082  0
C  C93  1  0.67685274  0.82477811  0.74540431  1  -0.042861  0  -0.152394  -0.185878  0  3.845952  0
C  C94  1  0.68810468  0.77933096  0.69354158  1  -0.024672  0  -0.152407  -0.184784  0  3.851813  0
C  C95  1  0.52999919  0.83566933  0.83825760  1  -0.521253  0  -0.021794  -0.034841  0  4.037128  0
C  C96  1  0.64133882  0.66376569  0.66211901  1  -0.503742  0  -0.022028  -0.034798  0  4.03486  0
C  C97  1  0.65811510  0.62492480  0.62366618  1  0.203852  0  -0.056746  -0.227057  0  3.987406  0
C  C98  1  0.49995255  0.16041445  0.91123234  1  -0.014984  0  -0.013457  -0.033527  0  4.002425  0
C  C99  1  0.67887268  0.33932265  0.58872461  1  -0.000445  0  -0.013313  -0.032893  0  4.001545  0
C  C100  1  0.33676757  0.26468439  0.89854217  1  -0.037251  0  -0.089539  -0.132161  0  4.008729  0
C  C101  1  0.37070463  0.20997660  0.93083726  1  -0.015822  0  -0.085469  -0.100697  0  4.005755  0
C  C102  1  0.58803771  0.16557826  0.85936940  1  -0.061029  0  -0.082086  -0.146345  0  3.947927  0
C  C103  1  0.54353962  0.21875779  0.82355752  1  0.015872  0  -0.002003  0.036942  0  3.946376  0
C  C104  1  0.41847112  0.26985725  0.84446198  1  -0.027185  0  -0.007889  0.07524  0  4.025829  0
C  C105  1  0.61502114  0.22248782  0.76682596  1  -0.056295  0  -0.003813  0.031079  0  3.959731  0
C  C106  1  0.56356169  0.27731422  0.73316564  1  0.029009  0  -0.004778  0.029581  0  3.960076  0
C  C107  1  0.44381140  0.32818187  0.75648851  1  -0.108009  0  -0.092725  -0.128225  0  4.030194  0
C  C108  1  0.37407243  0.32464369  0.80981410  1  0.012476  0  -0.092316  -0.135546  0  4.033758  0
C  C109  1  0.73429895  0.17151985  0.74349186  1  -0.00156  0  -0.092477  -0.128707  0  4.030105  0
C  C110  1  0.80393577  0.17502100  0.69015114  1  -0.079397  0  -0.092196  -0.134633  0  4.032385  0
C  C111  1  0.75971377  0.22983169  0.65550394  1  -0.032502  0  -0.008058  0.074833  0  4.024746  0
C  C112  1  0.63493560  0.28102446  0.67641485  1  0.031738  0  -0.001702  0.036339  0  3.945996  0
C  C113  1  0.84118853  0.23487724  0.60137851  1  -0.02563  0  -0.089431  -0.131699  0  4.009119  0
C  C114  1  0.80765811  0.28960596  0.56909150  1  -0.03641  0  -0.085564  -0.100848  0  4.004983  0
C  C115  1  0.59084125  0.33423182  0.64060147  1  -0.083696  0  -0.081649  -0.145035  0  3.947451  0
C  C116  1  0.52273963  0.09928407  0.94480133  1  1.552877  0  0.274482  0.654892  0  4.084361  0
C  C117  1  0.51698267  0.92227264  0.92178022  1  1.657345  0  0.268559  0.717445  0  4.172983  0
C  C118  1  0.02076360  0.89971209  0.05448905  1  1.601616  0  0.274315  0.655713  0  4.084019  0
C  C119  1  0.03124467  0.07709907  0.07718322  1  1.6824  0  0.268771  0.716804  0  4.171625  0
O  O120  1  0.48293501  0.42484454  0.54752021  1  -1.253853  0  -0.234494  -0.590438  0  2.30451  0
O  O121  1  0.82789010  0.55909141  0.56029598  1  -1.239163  0  -0.23521  -0.589523  0  2.279008  0
O  O122  1  0.98007847  0.57824376  0.45586438  1  -1.253056  0  -0.234118  -0.589271  0  2.299664  0
O  O123  1  0.82088975  0.42416409  0.53712091  1  -1.256349  0  -0.230484  -0.592055  0  2.355036  0
O  O124  1  0.97972816  0.44668972  0.43704207  1  -1.240067  0  -0.233239  -0.588163  0  2.292424  0
O  O125  1  0.48522269  0.55712196  0.56223316  1  -1.236843  0  -0.233078  -0.588261  0  2.296972  0
O  O126  1  0.64640455  0.50759131  0.46718858  1  -1.426455  0  -0.447675  -0.993619  0  2.200156  0
O  O127  1  0.32064351  0.43810624  0.44329388  1  -1.23746  0  -0.233184  -0.585675  0  2.279757  0
O  O128  1  0.32012265  0.57393262  0.46068113  1  -1.258245  0  -0.230997  -0.594418  0  2.354068  0
O  O129  1  0.14909636  0.49363363  0.53370769  1  -1.432541  0  -0.447341  -0.994636  0  2.20961  0
O  O130  1  0.68982243  0.94398338  0.93705387  1  -1.23247  0  -0.233785  -0.588684  0  2.295146  0
O  O131  1  0.35792047  0.07436867  0.96141788  1  -1.259132  0  -0.231002  -0.593925  0  2.356232  0
O  O132  1  0.20109371  0.05543927  0.06213525  1  -1.236305  0  -0.233421  -0.587287  0  2.292946  0
O  O133  1  0.34776536  0.93880795  0.94126754  1  -1.235939  0  -0.234788  -0.587972  0  2.279217  0
O  O134  1  0.19576918  0.92315735  0.04576428  1  -1.260426  0  -0.233874  -0.590365  0  2.30477  0
O  O135  1  0.69696172  0.07599140  0.95362725  1  -1.254634  0  -0.233944  -0.589244  0  2.303342  0
O  O136  1  0.53162129  0.99246075  0.03294622  1  -1.420453  0  -0.447734  -0.99365  0  2.201509  0
O  O137  1  0.85605681  0.92456060  0.03784959  1  -1.261934  0  -0.230869  -0.593479  0  2.35442  0
O  O138  1  0.85893646  0.06008610  0.05778907  1  -1.236939  0  -0.233823  -0.58675  0  2.281029  0
O  O139  1  0.02867620  0.00633038  0.96633695  1  -1.42097  0  -0.447915  -0.994467  0  2.205944  0
