# generated using pymatgen
data_H15PbC26N5O4
_symmetry_space_group_name_H-M   'P 1'
_cell_length_a   9.35779207
_cell_length_b   10.09104231
_cell_length_c   12.80687465
_cell_angle_alpha   80.09170816
_cell_angle_beta   69.08179152
_cell_angle_gamma   79.50409559
_symmetry_Int_Tables_number   1
_chemical_formula_structural   H15PbC26N5O4
_chemical_formula_sum   'H30 Pb2 C52 N10 O8'
_cell_volume   1103.17534256
_cell_formula_units_Z   2
loop_
 _symmetry_equiv_pos_site_id
 _symmetry_equiv_pos_as_xyz
  1  'x, y, z'
loop_
 _atom_site_type_symbol
 _atom_site_label
 _atom_site_symmetry_multiplicity
 _atom_site_fract_x
 _atom_site_fract_y
 _atom_site_fract_z
 _atom_site_occupancy
 _atom_site_hle17_bader_spin_density
 _atom_site_hle17_ddec_charge
 _atom_site_hle17_ddec_spin_density
 _atom_site_hle17_ddec_sum_bond_order
 _atom_site_hle17_magmom
 _atom_site_hse06_10hf_bader_spin_density
 _atom_site_hse06_10hf_ddec_charge
 _atom_site_hse06_10hf_ddec_spin_density
 _atom_site_hse06_10hf_ddec_sum_bond_order
 _atom_site_hse06_10hf_magmom
 _atom_site_hse06_bader_spin_density
 _atom_site_hse06_ddec_charge
 _atom_site_hse06_ddec_spin_density
 _atom_site_hse06_ddec_sum_bond_order
 _atom_site_hse06_magmom
 _atom_site_pbe_bader_spin_density
 _atom_site_pbe_cm5_charge
 _atom_site_pbe_ddec_charge
 _atom_site_pbe_ddec_spin_density
 _atom_site_pbe_ddec_sum_bond_order
 _atom_site_pbe_magmom
H  H0  1  0.87241598  0.40743490  0.49458192  1  0  0.08338  0  0.96652  0  0  0.090417  0  1.034252  0  0  0.093166  0  1.032024  0  0  0.115161  0.088395  0  1.036086  0
H  H1  1  0.12758319  0.59256666  0.50541702  1  0  0.083397  0  0.966551  0  0  0.090435  0  1.034281  0  0  0.093187  0  1.032047  0  0  0.115169  0.088414  0  1.036114  0
H  H2  1  0.15679795  0.35926742  0.47352814  1  0  0.117135  0  0.993966  0  0  0.124318  0  1.05642  0  0  0.128168  0  1.055029  0  0  0.10566  0.121998  0  1.05679  0
H  H3  1  0.84320123  0.64073414  0.52647159  1  0  0.117146  0  0.993961  0  0  0.12432  0  1.056424  0  0  0.128171  0  1.055031  0  0  0.105661  0.122  0  1.056797  0
H  H4  1  0.34640443  0.29953791  0.28910247  1  0  0.104124  0  0.937996  0  0  0.115197  0  1.000517  0  0  0.11797  0  0.997925  0  0  0.112191  0.112853  0  1.002871  0
H  H5  1  0.65359277  0.70046160  0.71089649  1  0  0.104106  0  0.937944  0  0  0.115197  0  1.000449  0  0  0.117969  0  0.997859  0  0  0.112203  0.112851  0  1.002806  0
H  H6  1  0.06171909  0.30797125  0.86032434  1  0  0.115374  0  0.951892  0  0  0.12575  0  1.010141  0  0  0.129319  0  1.007765  0  0  0.109131  0.122788  0  1.012951  0
H  H7  1  0.93827927  0.69202827  0.13967665  1  0  0.115374  0  0.9519  0  0  0.125768  0  1.010123  0  0  0.129336  0  1.007747  0  0  0.109146  0.122808  0  1.012934  0
H  H8  1  0.77579612  0.37176131  0.90560747  1  0  0.111803  0  0.950292  0  0  0.122226  0  1.006514  0  0  0.12477  0  1.007183  0  0  0.110026  0.120607  0  1.005174  0
H  H9  1  0.22420419  0.62824025  0.09439195  1  0  0.111796  0  0.950259  0  0  0.122209  0  1.006505  0  0  0.124751  0  1.007175  0  0  0.109999  0.120583  0  1.005177  0
H  H10  1  0.61408197  0.42801878  0.09943898  1  0  0.096915  0  0.937538  0  0  0.102844  0  1.004748  0  0  0.106464  0  1.000732  0  0  0.119747  0.100861  0  1.0061  0
H  H11  1  0.38591703  0.57198379  0.90055909  1  0  0.096912  0  0.937608  0  0  0.10287  0  1.004787  0  0  0.106503  0  1.000754  0  0  0.119763  0.100887  0  1.006139  0
H  H12  1  0.65066889  0.05414758  0.03012822  1  0  0.090904  0  0.963433  0  0  0.100137  0  1.029473  0  0  0.103138  0  1.028033  0  0  0.099458  0.097876  0  1.031016  0
H  H13  1  0.34933258  0.94585399  0.96987246  1  0  0.090867  0  0.963432  0  0  0.100098  0  1.02948  0  0  0.103103  0  1.028033  0  0  0.099437  0.097829  0  1.031045  0
H  H14  1  0.91778776  0.95187807  0.92839339  1  0  0.084267  0  0.961793  0  0  0.095395  0  1.021083  0  0  0.098033  0  1.020379  0  0  0.096281  0.093559  0  1.021791  0
H  H15  1  0.08221240  0.04812450  0.07160750  1  0  0.084254  0  0.961788  0  0  0.095393  0  1.02106  0  0  0.098029  0  1.02036  0  0  0.096292  0.093559  0  1.021768  0
H  H16  1  0.03484695  0.01610840  0.72167408  1  0  0.081779  0  0.98301  0  0  0.09006  0  1.047929  0  0  0.09186  0  1.049091  0  0  0.092049  0.088768  0  1.047177  0
H  H17  1  0.96515370  0.98389113  0.27832787  1  0  0.081809  0  0.982987  0  0  0.090085  0  1.04791  0  0  0.091885  0  1.049074  0  0  0.09206  0.088791  0  1.047162  0
H  H18  1  0.88835818  0.19054429  0.62185027  1  0  0.092749  0  0.959473  0  0  0.103089  0  1.020974  0  0  0.106115  0  1.019583  0  0  0.099907  0.100727  0  1.022372  0
H  H19  1  0.11164377  0.80945423  0.37815147  1  0  0.092756  0  0.959452  0  0  0.103085  0  1.020966  0  0  0.106109  0  1.019577  0  0  0.099914  0.100724  0  1.022364  0
H  H20  1  0.62006673  0.92971179  0.20939758  1  0  0.104241  0  0.968438  0  0  0.111144  0  1.034487  0  0  0.114631  0  1.033325  0  0  0.107608  0.109632  0  1.034007  0
H  H21  1  0.37993652  0.07028573  0.79060239  1  0  0.104203  0  0.968496  0  0  0.111182  0  1.034458  0  0  0.114666  0  1.033299  0  0  0.107623  0.109669  0  1.033978  0
H  H22  1  0.60102839  0.17879360  0.20678858  1  0  0.074071  0  0.965285  0  0  0.07491  0  1.045636  0  0  0.078042  0  1.04252  0  0  0.110925  0.07308  0  1.047457  0
H  H23  1  0.39897256  0.82120391  0.79320888  1  0  0.074045  0  0.965274  0  0  0.074885  0  1.045631  0  0  0.078015  0  1.042517  0  0  0.110933  0.073075  0  1.047428  0
H  H24  1  0.70021251  0.13260118  0.50344975  1  0  0.089467  0  0.944832  0  0  0.095008  0  1.012126  0  0  0.098744  0  1.008804  0  0  0.114873  0.092756  0  1.013937  0
H  H25  1  0.29978078  0.86740135  0.49655061  1  0  0.089495  0  0.944795  0  0  0.095037  0  1.012085  0  0  0.098773  0  1.008763  0  0  0.114872  0.092785  0  1.013896  0
H  H26  1  0.71812221  0.87803258  0.51941100  1  0  0.10761  0  0.961408  0  0  0.116735  0  1.024107  0  0  0.119462  0  1.024213  0  0  0.108625  0.115424  0  1.023239  0
H  H27  1  0.28187437  0.12197098  0.48059148  1  0  0.107611  0  0.961411  0  0  0.116734  0  1.024114  0  0  0.119462  0  1.024219  0  0  0.108619  0.115421  0  1.023245  0
H  H28  1  0.33391115  0.27011133  0.84154780  1  0  0.320261  0  0.932136  0  0  0.297606  0  1.000047  0  0  0.306988  0  0.991988  0  0  0.308738  0.291037  0  1.005567  0
H  H29  1  0.66609079  0.72988720  0.15845238  1  0  0.320292  0  0.932119  0  0  0.297626  0  1.000022  0  0  0.307003  0  0.991966  0  0  0.308739  0.291059  0  1.005541  0
Pb  Pb30  1  0.61932077  0.43809384  0.36413076  1  0  1.199952  0  1.541138  0  0  0.996391  0  1.941441  0  0  1.056973  0  1.902625  0  0  0.611311  0.95233  0  1.970701  0
Pb  Pb31  1  0.38068037  0.56190976  0.63586896  1  0  1.199951  0  1.541092  0  0  0.996389  0  1.941388  0  0  1.05697  0  1.902572  0  0  0.611322  0.952329  0  1.970642  0
C  C32  1  0.96100979  0.38325661  0.41525689  1  0  0.126242  0  3.721099  0  0  0.093831  0  3.974448  0  0  0.101595  0  3.991517  0  0  0.048683  0.088642  0  3.962761  0
C  C33  1  0.03898987  0.61674190  0.58474311  1  0  0.126162  0  3.721235  0  0  0.093746  0  3.974574  0  0  0.101509  0  3.991644  0  0  0.048679  0.088557  0  3.962885  0
C  C34  1  0.11777345  0.35444609  0.40388893  1  0  -0.132366  0  3.741555  0  0  -0.143309  0  3.994394  0  0  -0.150225  0  4.013957  0  0  -0.089249  -0.138705  0  3.980851  0
C  C35  1  0.88222360  0.64555444  0.59611071  1  0  -0.132317  0  3.74146  0  0  -0.143259  0  3.994304  0  0  -0.150175  0  4.013865  0  0  -0.089234  -0.138659  0  3.980762  0
C  C36  1  0.22350726  0.32100195  0.30171516  1  0  -0.015593  0  3.671151  0  0  -0.04232  0  3.918854  0  0  -0.038161  0  3.934065  0  0  -0.059179  -0.045178  0  3.909144  0
C  C37  1  0.77649256  0.67899555  0.69828494  1  0  -0.01555  0  3.67117  0  0  -0.042302  0  3.918844  0  0  -0.03814  0  3.934053  0  0  -0.059157  -0.04516  0  3.909136  0
C  C38  1  0.17204476  0.31740334  0.21165167  1  0  -0.021337  0  3.780732  0  0  -0.008449  0  4.012432  0  0  -0.011083  0  4.03532  0  0  0.003601  -0.006696  0  3.997227  0
C  C39  1  0.82795521  0.68259315  0.78834696  1  0  -0.021368  0  3.780823  0  0  -0.008417  0  4.012475  0  0  -0.011054  0  4.035362  0  0  0.003574  -0.006666  0  3.997267  0
C  C40  1  0.27146951  0.28575615  0.10248670  1  0  0.099989  0  3.860532  0  0  0.093985  0  4.119015  0  0  0.095385  0  4.142929  0  0  0.086043  0.093064  0  4.103999  0
C  C41  1  0.72853112  0.71424339  0.89751135  1  0  0.10008  0  3.860488  0  0  0.094049  0  4.118975  0  0  0.095451  0  4.142891  0  0  0.08609  0.093127  0  4.103953  0
C  C42  1  0.21204825  0.29262054  0.01525014  1  0  0.10592  0  3.799581  0  0  0.087569  0  4.055104  0  0  0.090146  0  4.078708  0  0  0.092989  0.084376  0  4.041725  0
C  C43  1  0.78795256  0.70737798  0.98474956  1  0  0.105871  0  3.799843  0  0  0.087478  0  4.055331  0  0  0.090042  0  4.078943  0  0  0.092975  0.084297  0  4.041942  0
C  C44  1  0.05181919  0.32508389  0.02940549  1  0  -0.036591  0  3.795221  0  0  -0.023257  0  4.034239  0  0  -0.026015  0  4.056893  0  0  -0.00131  -0.021548  0  4.01923  0
C  C45  1  0.94817899  0.67491665  0.97059229  1  0  -0.036542  0  3.795328  0  0  -0.023123  0  4.034261  0  0  -0.025878  0  4.056916  0  0  -0.001277  -0.021417  0  4.019247  0
C  C46  1  0.98690643  0.33006746  0.94451096  1  0  -0.042169  0  3.672979  0  0  -0.069235  0  3.926289  0  0  -0.066436  0  3.942099  0  0  -0.069481  -0.071564  0  3.915632  0
C  C47  1  0.01309405  0.66993310  0.05548778  1  0  -0.042252  0  3.672953  0  0  -0.069346  0  3.926223  0  0  -0.066548  0  3.942033  0  0  -0.069529  -0.071673  0  3.915565  0
C  C48  1  0.82962565  0.36587105  0.96914035  1  0  -0.111128  0  3.738774  0  0  -0.125078  0  3.998711  0  0  -0.131312  0  4.020174  0  0  -0.081867  -0.120075  0  3.981753  0
C  C49  1  0.17037337  0.63413152  0.03086006  1  0  -0.111078  0  3.738728  0  0  -0.125027  0  3.998676  0  0  -0.131261  0  4.020144  0  0  -0.081839  -0.12002  0  3.981725  0
C  C50  1  0.73806170  0.39691422  0.07787234  1  0  0.132685  0  3.69078  0  0  0.096338  0  3.955945  0  0  0.105149  0  3.970895  0  0  0.053064  0.091907  0  3.943049  0
C  C51  1  0.26193910  0.60308430  0.92212736  1  0  0.132656  0  3.690831  0  0  0.096273  0  3.956013  0  0  0.105074  0  3.97096  0  0  0.05302  0.091843  0  3.943116  0
C  C52  1  0.95043202  0.35528453  0.13855982  1  0  0.127183  0  3.746244  0  0  0.117156  0  3.994157  0  0  0.121979  0  4.016229  0  0  0.117295  0.114684  0  3.978442  0
C  C53  1  0.04956796  0.64471196  0.86144037  1  0  0.127108  0  3.746293  0  0  0.117033  0  3.994245  0  0  0.121855  0  4.016316  0  0  0.117254  0.114563  0  3.978527  0
C  C54  1  0.01101981  0.35109906  0.22934214  1  0  0.129005  0  3.750806  0  0  0.117478  0  3.997379  0  0  0.122035  0  4.019417  0  0  0.118296  0.114972  0  3.981693  0
C  C55  1  0.98897820  0.64889538  0.77065728  1  0  0.128931  0  3.751044  0  0  0.117352  0  3.997667  0  0  0.121908  0  4.019707  0  0  0.118227  0.114845  0  3.981979  0
C  C56  1  0.46551084  0.23464263  0.95586636  1  0  0.350364  0  3.730482  0  0  0.318549  0  4.008212  0  0  0.333219  0  4.021611  0  0  0.224087  0.307863  0  3.999017  0
C  C57  1  0.53448818  0.76535994  0.04413327  1  0  0.350344  0  3.73065  0  0  0.318518  0  4.008344  0  0  0.333182  0  4.021743  0  0  0.224123  0.307835  0  3.999152  0
C  C58  1  0.62164147  0.18314390  0.88558422  1  0  -0.023731  0  3.758205  0  0  -0.012471  0  3.994494  0  0  -0.013413  0  4.015647  0  0  -0.002778  -0.011137  0  3.978805  0
C  C59  1  0.37836162  0.81685464  0.11441487  1  0  -0.023747  0  3.758292  0  0  -0.012497  0  3.994579  0  0  -0.01344  0  4.015733  0  0  -0.002803  -0.01116  0  3.978886  0
C  C60  1  0.70559797  0.08431233  0.94073360  1  0  -0.081795  0  3.731069  0  0  -0.1059  0  3.984443  0  0  -0.107798  0  4.004856  0  0  -0.086388  -0.106169  0  3.971674  0
C  C61  1  0.29440659  0.91569130  0.05926520  1  0  -0.081716  0  3.731029  0  0  -0.105826  0  3.984388  0  0  -0.107722  0  4.004799  0  0  -0.086355  -0.106098  0  3.971617  0
C  C62  1  0.85402332  0.02642177  0.88343699  1  0  -0.062484  0  3.78171  0  0  -0.078302  0  4.035535  0  0  -0.079085  0  4.055549  0  0  -0.093904  -0.078323  0  4.023398  0
C  C63  1  0.14598402  0.97357883  0.11656227  1  0  -0.062512  0  3.781734  0  0  -0.078332  0  4.035557  0  0  -0.079121  0  4.055576  0  0  -0.093944  -0.078356  0  4.023423  0
C  C64  1  0.91989909  0.06278210  0.76788130  1  0  -0.069648  0  3.778891  0  0  -0.082703  0  4.028197  0  0  -0.084286  0  4.049395  0  0  -0.095551  -0.080648  0  4.013758  0
C  C65  1  0.08010449  0.93722052  0.23211556  1  0  -0.069662  0  3.778809  0  0  -0.082717  0  4.028104  0  0  -0.084299  0  4.049303  0  0  -0.09554  -0.080663  0  4.013666  0
C  C66  1  0.83789446  0.15993728  0.71186861  1  0  -0.080836  0  3.750383  0  0  -0.098927  0  3.990118  0  0  -0.100219  0  4.010521  0  0  -0.089812  -0.098218  0  3.976074  0
C  C67  1  0.16211043  0.84006432  0.28813039  1  0  -0.080819  0  3.750383  0  0  -0.098913  0  3.990109  0  0  -0.100203  0  4.010514  0  0  -0.089825  -0.098202  0  3.976065  0
C  C68  1  0.69060436  0.22358131  0.76922690  1  0  -0.077888  0  3.696512  0  0  -0.063413  0  3.931429  0  0  -0.06879  0  3.951157  0  0  -0.015161  -0.058976  0  3.916904  0
C  C69  1  0.30939726  0.77641925  0.23077231  1  0  -0.077885  0  3.696541  0  0  -0.063387  0  3.931414  0  0  -0.068767  0  3.951143  0  0  -0.015137  -0.058951  0  3.91689  0
C  C70  1  0.62024397  0.33990245  0.70366648  1  0  0.637393  0  3.947613  0  0  0.586819  0  4.246191  0  0  0.622018  0  4.238395  0  0  0.195978  0.563049  0  4.250112  0
C  C71  1  0.37975782  0.66009709  0.29633361  1  0  0.637445  0  3.947498  0  0  0.586886  0  4.246033  0  0  0.622086  0  4.238237  0  0  0.196019  0.563117  0  4.249955  0
C  C72  1  0.68014251  0.73171401  0.37107395  1  0  0.649918  0  3.910107  0  0  0.594787  0  4.206122  0  0  0.62956  0  4.198027  0  0  0.213088  0.570641  0  4.211458  0
C  C73  1  0.31985683  0.26828653  0.62892665  1  0  0.649877  0  3.910205  0  0  0.594759  0  4.206212  0  0  0.629522  0  4.198136  0  0  0.213049  0.570612  0  4.211546  0
C  C74  1  0.67204349  0.88341423  0.36472554  1  0  -0.006729  0  3.724845  0  0  0.0118  0  3.960612  0  0  0.009932  0  3.979297  0  0  0.004417  0.012882  0  3.947949  0
C  C75  1  0.32795601  0.11658529  0.63527593  1  0  -0.006684  0  3.724797  0  0  0.011844  0  3.960587  0  0  0.00998  0  3.979275  0  0  0.004425  0.012927  0  3.947921  0
C  C76  1  0.63931495  0.96997073  0.27608834  1  0  -0.122153  0  3.706411  0  0  -0.141812  0  3.949203  0  0  -0.146673  0  3.968904  0  0  -0.079869  -0.138643  0  3.934553  0
C  C77  1  0.36068472  0.03002778  0.72391322  1  0  -0.122149  0  3.706335  0  0  -0.141876  0  3.949122  0  0  -0.146738  0  3.96882  0  0  -0.079855  -0.138707  0  3.934477  0
C  C78  1  0.62955945  0.10952996  0.27433081  1  0  0.115343  0  3.72597  0  0  0.088805  0  3.980246  0  0  0.094694  0  3.998319  0  0  0.044968  0.084782  0  3.967597  0
C  C79  1  0.37043939  0.89046651  0.72566891  1  0  0.115413  0  3.725967  0  0  0.088873  0  3.980262  0  0  0.094764  0  3.998335  0  0  0.044944  0.084836  0  3.967611  0
C  C80  1  0.68513604  0.08250236  0.43941768  1  0  0.114935  0  3.709725  0  0  0.087902  0  3.965471  0  0  0.093631  0  3.982812  0  0  0.047334  0.084629  0  3.952497  0
C  C81  1  0.31486085  0.91749918  0.56058343  1  0  0.114878  0  3.709842  0  0  0.087849  0  3.965582  0  0  0.093576  0  3.982925  0  0  0.04732  0.084576  0  3.952608  0
C  C82  1  0.69444524  0.94180466  0.44824585  1  0  -0.123727  0  3.71126  0  0  -0.144592  0  3.957151  0  0  -0.149426  0  3.97763  0  0  -0.078206  -0.141426  0  3.941905  0
C  C83  1  0.30555083  0.05819484  0.55175575  1  0  -0.123731  0  3.711324  0  0  -0.144599  0  3.95721  0  0  -0.149434  0  3.97769  0  0  -0.078202  -0.141428  0  3.941959  0
N  N84  1  0.91016575  0.38187282  0.33080660  1  0  -0.345934  0  3.242695  0  0  -0.275368  0  3.494467  0  0  -0.294066  0  3.515372  0  0  -0.296869  -0.262232  0  3.479523  0
N  N85  1  0.08983146  0.61812669  0.66919314  1  0  -0.345813  0  3.243017  0  0  -0.275229  0  3.494777  0  0  -0.293926  0  3.515682  0  0  -0.296818  -0.262094  0  3.47983  0
N  N86  1  0.79649526  0.39132637  0.15974721  1  0  -0.343677  0  3.199533  0  0  -0.276673  0  3.457055  0  0  -0.295537  0  3.477791  0  0  -0.292031  -0.263439  0  3.44171  0
N  N87  1  0.20350343  0.60867111  0.84025475  1  0  -0.343626  0  3.199508  0  0  -0.276591  0  3.45703  0  0  -0.295456  0  3.477771  0  0  -0.29199  -0.263357  0  3.441685  0
N  N88  1  0.42838461  0.24835217  0.06502694  1  0  -0.44032  0  2.933187  0  0  -0.413192  0  3.204993  0  0  -0.427588  0  3.219085  0  0  -0.335023  -0.402665  0  3.193894  0
N  N89  1  0.57161505  0.75164635  0.93497306  1  0  -0.44035  0  2.933214  0  0  -0.413228  0  3.205035  0  0  -0.427627  0  3.219134  0  0  -0.335091  -0.4027  0  3.193938  0
N  N90  1  0.33727675  0.26006052  0.92291875  1  0  -0.376266  0  3.36134  0  0  -0.31755  0  3.598062  0  0  -0.33537  0  3.61072  0  0  -0.375747  -0.30652  0  3.591103  0
N  N91  1  0.66272177  0.73993799  0.07708156  1  0  -0.376279  0  3.361352  0  0  -0.317496  0  3.598016  0  0  -0.335292  0  3.61065  0  0  -0.375715  -0.306482  0  3.591069  0
N  N92  1  0.65305338  0.16511684  0.35400468  1  0  -0.331444  0  3.1945  0  0  -0.265812  0  3.453139  0  0  -0.283406  0  3.474411  0  0  -0.300076  -0.254958  0  3.438917  0
N  N93  1  0.34694350  0.83488470  0.64599487  1  0  -0.331456  0  3.194713  0  0  -0.265825  0  3.45335  0  0  -0.283418  0  3.474623  0  0  -0.300078  -0.254972  0  3.439138  0
O  O94  1  0.54705311  0.44232850  0.75589329  1  0  -0.645562  0  1.955651  0  0  -0.583884  0  2.189103  0  0  -0.613215  0  2.182946  0  0  -0.315492  -0.562964  0  2.192977  0
O  O95  1  0.45294737  0.55767205  0.24410622  1  0  -0.645561  0  1.955679  0  0  -0.583883  0  2.189118  0  0  -0.613216  0  2.182965  0  0  -0.315474  -0.562962  0  2.192992  0
O  O96  1  0.64127303  0.32953225  0.60180021  1  0  -0.676162  0  1.965823  0  0  -0.618186  0  2.198449  0  0  -0.647079  0  2.192897  0  0  -0.317408  -0.597008  0  2.200591  0
O  O97  1  0.35872517  0.67046828  0.39819991  1  0  -0.67623  0  1.965737  0  0  -0.618276  0  2.19839  0  0  -0.647161  0  2.192817  0  0  -0.31747  -0.597098  0  2.200533  0
O  O98  1  0.65950642  0.66144640  0.46550267  1  0  -0.65181  0  2.006494  0  0  -0.587642  0  2.241342  0  0  -0.61718  0  2.236634  0  0  -0.295069  -0.567876  0  2.244061  0
O  O99  1  0.34049275  0.33855516  0.53449784  1  0  -0.651812  0  2.00646  0  0  -0.587658  0  2.241311  0  0  -0.617186  0  2.236597  0  0  -0.295072  -0.567903  0  2.244055  0
O  O100  1  0.70804509  0.68209565  0.27911983  1  0  -0.64367  0  2.037801  0  0  -0.578184  0  2.270649  0  0  -0.60684  0  2.263406  0  0  -0.301073  -0.559223  0  2.275118  0
O  O101  1  0.29195555  0.31790388  0.72088134  1  0  -0.64363  0  2.037861  0  0  -0.57815  0  2.270687  0  0  -0.606801  0  2.263449  0  0  -0.301036  -0.559182  0  2.275146  0
