# generated using pymatgen
data_CdH14C22(N3O)4
_symmetry_space_group_name_H-M   'P 1'
_cell_length_a   4.38539937
_cell_length_b   9.64172247
_cell_length_c   26.20772727
_cell_angle_alpha   89.99997989
_cell_angle_beta   90.00012093
_cell_angle_gamma   93.06504160
_symmetry_Int_Tables_number   1
_chemical_formula_structural   CdH14C22(N3O)4
_chemical_formula_sum   'Cd2 H28 C44 N24 O8'
_cell_volume   1106.55097435
_cell_formula_units_Z   2
loop_
 _symmetry_equiv_pos_site_id
 _symmetry_equiv_pos_as_xyz
  1  'x, y, z'
loop_
 _atom_site_type_symbol
 _atom_site_label
 _atom_site_symmetry_multiplicity
 _atom_site_fract_x
 _atom_site_fract_y
 _atom_site_fract_z
 _atom_site_occupancy
 _atom_site_hle17_bader_spin_density
 _atom_site_hle17_ddec_charge
 _atom_site_hle17_ddec_spin_density
 _atom_site_hle17_ddec_sum_bond_order
 _atom_site_hle17_magmom
 _atom_site_hse06_10hf_bader_spin_density
 _atom_site_hse06_10hf_ddec_charge
 _atom_site_hse06_10hf_ddec_spin_density
 _atom_site_hse06_10hf_ddec_sum_bond_order
 _atom_site_hse06_10hf_magmom
 _atom_site_hse06_bader_spin_density
 _atom_site_hse06_ddec_charge
 _atom_site_hse06_ddec_spin_density
 _atom_site_hse06_ddec_sum_bond_order
 _atom_site_hse06_magmom
 _atom_site_pbe_bader_spin_density
 _atom_site_pbe_cm5_charge
 _atom_site_pbe_ddec_charge
 _atom_site_pbe_ddec_spin_density
 _atom_site_pbe_ddec_sum_bond_order
 _atom_site_pbe_magmom
Cd  Cd0  1  0.70098363  0.23019649  0.08038594  1  0  1.193547  0  1.687914  0  0  1.013772  0  2.150227  0  0  1.067284  0  2.095581  0  0  0.79381  0.975754  0  2.188352  0
Cd  Cd1  1  0.29901690  0.76980210  0.58038494  1  0  1.193564  0  1.687882  0  0  1.013796  0  2.150186  0  0  1.067305  0  2.095546  0  0  0.793827  0.975778  0  2.188309  0
H  H2  1  0.46836843  0.86874076  0.90576380  1  0  0.135566  0  0.963245  0  0  0.13603  0  1.042427  0  0  0.140314  0  1.038523  0  0  0.119614  0.13285  0  1.045201  0
H  H3  1  0.53161800  0.13125863  0.40576362  1  0  0.135619  0  0.963188  0  0  0.136085  0  1.04233  0  0  0.140366  0  1.038431  0  0  0.119664  0.132907  0  1.045105  0
H  H4  1  0.97828695  0.67408028  0.03235128  1  0  0.113787  0  0.953933  0  0  0.122356  0  1.019488  0  0  0.126149  0  1.017242  0  0  0.106428  0.119736  0  1.021484  0
H  H5  1  0.02171058  0.32591729  0.53235023  1  0  0.113781  0  0.953957  0  0  0.122348  0  1.019512  0  0  0.126142  0  1.017267  0  0  0.10642  0.119728  0  1.02151  0
H  H6  1  0.88058585  0.43025251  0.87759435  1  0  0.098384  0  0.969322  0  0  0.103373  0  1.040601  0  0  0.106544  0  1.035931  0  0  0.132862  0.100533  0  1.043979  0
H  H7  1  0.11942818  0.56975212  0.37759244  1  0  0.098572  0  0.969214  0  0  0.103433  0  1.040629  0  0  0.106594  0  1.035954  0  0  0.132914  0.100594  0  1.044004  0
H  H8  1  0.53407285  0.25227915  0.21430443  1  0  0.098506  0  0.910666  0  0  0.112676  0  0.963708  0  0  0.113856  0  0.962152  0  0  0.142886  0.111737  0  0.964651  0
H  H9  1  0.46591794  0.74771933  0.71430349  1  0  0.098406  0  0.91067  0  0  0.11258  0  0.963735  0  0  0.113759  0  0.962181  0  0  0.142881  0.111641  0  0.964679  0
H  H10  1  0.95752748  0.59300095  0.25719374  1  0  0.131373  0  0.986378  0  0  0.129641  0  1.069541  0  0  0.134061  0  1.065985  0  0  0.113377  0.126468  0  1.071807  0
H  H11  1  0.04247764  0.40699856  0.75719422  1  0  0.131376  0  0.986357  0  0  0.129659  0  1.069524  0  0  0.134081  0  1.065965  0  0  0.113383  0.126487  0  1.071788  0
H  H12  1  0.81537270  0.02140883  0.21756766  1  0  0.121222  0  0.952342  0  0  0.126147  0  1.023522  0  0  0.130558  0  1.019394  0  0  0.111991  0.122993  0  1.025999  0
H  H13  1  0.18463649  0.97859071  0.71756887  1  0  0.12129  0  0.952338  0  0  0.126166  0  1.023547  0  0  0.130579  0  1.019419  0  0  0.111989  0.123014  0  1.026021  0
H  H14  1  0.42786826  0.78769637  0.12882310  1  0  0.111416  0  0.955938  0  0  0.119306  0  1.022916  0  0  0.123025  0  1.020721  0  0  0.104973  0.116744  0  1.024862  0
H  H15  1  0.57213013  0.21229803  0.62882379  1  0  0.111416  0  0.95594  0  0  0.119318  0  1.02291  0  0  0.123038  0  1.020715  0  0  0.104976  0.116754  0  1.02486  0
H  H16  1  0.47814124  0.56252820  0.10300173  1  0  0.105861  0  0.931255  0  0  0.117479  0  0.99234  0  0  0.119507  0  0.988311  0  0  0.143031  0.11558  0  0.995125  0
H  H17  1  0.52186629  0.43746934  0.60300237  1  0  0.105847  0  0.931293  0  0  0.117464  0  0.992367  0  0  0.119496  0  0.988339  0  0  0.143031  0.115564  0  0.995151  0
H  H18  1  0.62294955  0.61324810  0.31544024  1  0  0.100739  0  0.982054  0  0  0.101444  0  1.060087  0  0  0.105226  0  1.05467  0  0  0.130526  0.098207  0  1.064204  0
H  H19  1  0.37705651  0.38675346  0.81544046  1  0  0.10074  0  0.982049  0  0  0.101453  0  1.060071  0  0  0.105236  0  1.05465  0  0  0.130527  0.098214  0  1.06419  0
H  H20  1  0.23400573  0.98866065  0.35493537  1  0  0.087892  0  0.972098  0  0  0.087238  0  1.051387  0  0  0.09011  0  1.04815  0  0  0.124483  0.084825  0  1.054472  0
H  H21  1  0.76601486  0.01134401  0.85493501  1  0  0.087955  0  0.972073  0  0  0.087252  0  1.051372  0  0  0.090117  0  1.048143  0  0  0.124498  0.08484  0  1.054455  0
H  H22  1  0.15455521  0.77928004  0.78996317  1  0  0.088645  0  0.931809  0  0  0.095486  0  0.998418  0  0  0.097729  0  0.99552  0  0  0.131577  0.093583  0  1.000939  0
H  H23  1  0.84542363  0.22072565  0.28996233  1  0  0.088638  0  0.931747  0  0  0.095478  0  0.998398  0  0  0.097724  0  0.995496  0  0  0.131566  0.093574  0  1.000919  0
H  H24  1  0.92653657  0.89982689  0.05819020  1  0  0.106117  0  0.930417  0  0  0.117503  0  0.991661  0  0  0.119649  0  0.98746  0  0  0.143439  0.115527  0  0.994516  0
H  H25  1  0.07346368  0.10017171  0.55818958  1  0  0.106114  0  0.93035  0  0  0.117497  0  0.991602  0  0  0.119641  0  0.9874  0  0  0.143449  0.115521  0  0.994459  0
H  H26  1  0.86402619  0.20625956  0.94534232  1  0  0.098832  0  0.922786  0  0  0.10763  0  0.984658  0  0  0.109628  0  0.98182  0  0  0.137197  0.106071  0  0.98643  0
H  H27  1  0.13596781  0.79374189  0.44534115  1  0  0.098766  0  0.922845  0  0  0.107546  0  0.984731  0  0  0.109557  0  0.981874  0  0  0.13717  0.105976  0  0.986515  0
H  H28  1  0.58738038  0.43793188  0.94482867  1  0  0.121408  0  0.947852  0  0  0.130457  0  1.012126  0  0  0.134163  0  1.00944  0  0  0.112468  0.127737  0  1.013619  0
H  H29  1  0.41261805  0.56206853  0.44482838  1  0  0.12142  0  0.947893  0  0  0.130497  0  1.012125  0  0  0.134191  0  1.009455  0  0  0.112451  0.127766  0  1.013631  0
C  C30  1  0.28308375  0.54699897  0.99184413  1  0  -0.030349  0  3.770415  0  0  -0.002385  0  3.998675  0  0  -0.008299  0  4.022972  0  0  -0.017931  0.000853  0  3.98381  0
C  C31  1  0.71691070  0.45300141  0.49184359  1  0  -0.030368  0  3.770463  0  0  -0.002401  0  3.998736  0  0  -0.008291  0  4.022997  0  0  -0.017917  0.000838  0  3.983865  0
C  C32  1  0.55332248  0.65336632  0.92054344  1  0  0.187071  0  3.792755  0  0  0.168523  0  4.04639  0  0  0.184404  0  4.069131  0  0  0.104048  0.164201  0  4.030744  0
C  C33  1  0.44666641  0.34663306  0.42054320  1  0  0.187234  0  3.792662  0  0  0.168702  0  4.046369  0  0  0.184523  0  4.069108  0  0  0.104118  0.16438  0  4.030722  0
C  C34  1  0.41976741  0.77903732  0.93000131  1  0  -0.190696  0  3.658471  0  0  -0.232953  0  3.938275  0  0  -0.23436  0  3.946519  0  0  -0.081703  -0.229383  0  3.926626  0
C  C35  1  0.58022172  0.22096309  0.43000113  1  0  -0.190772  0  3.658441  0  0  -0.233006  0  3.938286  0  0  -0.234412  0  3.94654  0  0  -0.081761  -0.22944  0  3.926644  0
C  C36  1  0.14619026  0.67179954  0.00182769  1  0  -0.176066  0  3.736006  0  0  -0.210929  0  3.994589  0  0  -0.214678  0  4.012934  0  0  -0.095196  -0.210564  0  3.982891  0
C  C37  1  0.85380473  0.32819909  0.50182808  1  0  -0.176003  0  3.735939  0  0  -0.210863  0  3.994511  0  0  -0.214619  0  4.012843  0  0  -0.095167  -0.210499  0  3.982812  0
C  C38  1  0.91336120  0.53516199  0.86264418  1  0  0.163175  0  3.652725  0  0  0.095752  0  3.921905  0  0  0.118619  0  3.937105  0  0  0.15479  0.088099  0  3.913992  0
C  C39  1  0.08664124  0.46484264  0.36264265  1  0  0.162956  0  3.652958  0  0  0.095693  0  3.92217  0  0  0.118519  0  3.937335  0  0  0.154749  0.088041  0  3.914257  0
C  C40  1  0.48681189  0.34903954  0.19562977  1  0  0.233  0  3.67464  0  0  0.179195  0  3.96429  0  0  0.192439  0  3.972965  0  0  0.159518  0.17053  0  3.956962  0
C  C41  1  0.51318779  0.65095896  0.69562924  1  0  0.233139  0  3.674629  0  0  0.179313  0  3.96432  0  0  0.192561  0  3.972986  0  0  0.159526  0.170647  0  3.956994  0
C  C42  1  0.19551024  0.67618667  0.19121001  1  0  0.17856  0  3.804302  0  0  0.159955  0  4.059416  0  0  0.175044  0  4.0818  0  0  0.095326  0.156123  0  4.045083  0
C  C43  1  0.80449166  0.32381184  0.69121000  1  0  0.178538  0  3.80432  0  0  0.160007  0  4.059395  0  0  0.175121  0  4.081787  0  0  0.09533  0.156176  0  4.045061  0
C  C44  1  0.99919645  0.68396056  0.23292533  1  0  -0.208485  0  3.656423  0  0  -0.245359  0  3.930219  0  0  -0.248362  0  3.94058  0  0  -0.086338  -0.240696  0  3.917243  0
C  C45  1  0.00081042  0.31603689  0.73292580  1  0  -0.208403  0  3.656186  0  0  -0.245403  0  3.930087  0  0  -0.248399  0  3.940436  0  0  -0.086351  -0.240737  0  3.917107  0
C  C46  1  0.12321360  0.91466944  0.16945914  1  0  -0.028196  0  3.760949  0  0  0.000782  0  3.988435  0  0  -0.005473  0  4.012426  0  0  -0.015221  0.004252  0  3.97375  0
C  C47  1  0.87678553  0.08532701  0.66946034  1  0  -0.028234  0  3.760935  0  0  0.000755  0  3.988385  0  0  -0.005501  0  4.012374  0  0  -0.01516  0.004225  0  3.973702  0
C  C48  1  0.92288604  0.92445650  0.21045826  1  0  -0.133558  0  3.686152  0  0  -0.173287  0  3.946844  0  0  -0.175051  0  3.962448  0  0  -0.079715  -0.16985  0  3.932965  0
C  C49  1  0.07711587  0.07553992  0.71045955  1  0  -0.133626  0  3.686278  0  0  -0.1733  0  3.946901  0  0  -0.175066  0  3.962515  0  0  -0.07974  -0.169866  0  3.933031  0
C  C50  1  0.26235201  0.79032618  0.15969908  1  0  -0.17434  0  3.737954  0  0  -0.209089  0  3.996017  0  0  -0.212723  0  4.014778  0  0  -0.095196  -0.208714  0  3.984  0
C  C51  1  0.73764699  0.20967028  0.65970097  1  0  -0.17439  0  3.737883  0  0  -0.209172  0  3.995953  0  0  -0.212805  0  4.014708  0  0  -0.095283  -0.208795  0  3.983937  0
C  C52  1  0.86534212  0.80993542  0.24227216  1  0  0.190409  0  3.778644  0  0  0.172683  0  4.029822  0  0  0.188514  0  4.052656  0  0  0.104353  0.168337  0  4.014322  0
C  C53  1  0.13466270  0.19006306  0.74227269  1  0  0.190258  0  3.778642  0  0  0.172576  0  4.029754  0  0  0.188412  0  4.052604  0  0  0.104326  0.168231  0  4.014254  0
C  C54  1  0.19936641  0.04063496  0.13670475  1  0  0.642658  0  3.934465  0  0  0.593319  0  4.224981  0  0  0.62762  0  4.218235  0  0  0.199092  0.569914  0  4.228703  0
C  C55  1  0.80063709  0.95936360  0.63670504  1  0  0.642624  0  3.934543  0  0  0.593276  0  4.225076  0  0  0.627578  0  4.218327  0  0  0.199046  0.569872  0  4.228799  0
C  C56  1  0.46352082  0.50453565  0.13833788  1  0  0.194606  0  3.624264  0  0  0.118566  0  3.889277  0  0  0.144563  0  3.902296  0  0  0.166851  0.107698  0  3.882787  0
C  C57  1  0.53648727  0.49546291  0.63833775  1  0  0.194633  0  3.624357  0  0  0.11862  0  3.889377  0  0  0.14464  0  3.902415  0  0  0.166868  0.107753  0  3.882887  0
C  C58  1  0.56006474  0.72102559  0.31750756  1  0  0.166484  0  3.641472  0  0  0.100702  0  3.908179  0  0  0.124143  0  3.922315  0  0  0.150764  0.092572  0  3.901083  0
C  C59  1  0.43994603  0.27897701  0.81750780  1  0  0.166563  0  3.64145  0  0  0.100759  0  3.908161  0  0  0.124214  0  3.922302  0  0  0.150827  0.09263  0  3.901061  0
C  C60  1  0.36885399  0.91197649  0.33628976  1  0  0.198012  0  3.719251  0  0  0.148401  0  4.02061  0  0  0.160215  0  4.028332  0  0  0.136878  0.141339  0  4.013164  0
C  C61  1  0.63116374  0.08802506  0.83628933  1  0  0.197995  0  3.719117  0  0  0.148445  0  4.020501  0  0  0.16027  0  4.02821  0  0  0.13691  0.141383  0  4.013056  0
C  C62  1  0.21776459  0.78665255  0.97088616  1  0  0.182181  0  3.798591  0  0  0.162205  0  4.05593  0  0  0.178223  0  4.077736  0  0  0.098523  0.158222  0  4.042009  0
C  C63  1  0.78222733  0.21334784  0.47088529  1  0  0.182219  0  3.798569  0  0  0.162231  0  4.055899  0  0  0.178269  0  4.077701  0  0  0.098544  0.158247  0  4.04198  0
C  C64  1  0.04096586  0.71170470  0.81798276  1  0  0.209009  0  3.706113  0  0  0.157948  0  4.007552  0  0  0.170076  0  4.014725  0  0  0.148164  0.150596  0  4.000458  0
C  C65  1  0.95901789  0.28830097  0.31798232  1  0  0.208903  0  3.706192  0  0  0.1578  0  4.007638  0  0  0.169919  0  4.014834  0  0  0.148045  0.15045  0  4.000543  0
C  C66  1  0.20269780  0.42047148  0.02415548  1  0  0.640379  0  3.940143  0  0  0.591415  0  4.230751  0  0  0.62553  0  4.224094  0  0  0.198065  0.568182  0  4.234398  0
C  C67  1  0.79729975  0.57952714  0.52415506  1  0  0.640385  0  3.940136  0  0  0.591406  0  4.230755  0  0  0.625514  0  4.224097  0  0  0.198076  0.568173  0  4.234403  0
C  C68  1  0.94317864  0.95766650  0.02283574  1  0  0.196316  0  3.626197  0  0  0.119407  0  3.891672  0  0  0.146089  0  3.904881  0  0  0.166906  0.108509  0  3.885233  0
C  C69  1  0.05682357  0.04233316  0.52283474  1  0  0.196321  0  3.626235  0  0  0.119397  0  3.891706  0  0  0.1461  0  3.904916  0  0  0.166874  0.108499  0  3.885271  0
C  C70  1  0.92031976  0.11240401  0.96518763  1  0  0.237714  0  3.667182  0  0  0.184527  0  3.956275  0  0  0.197803  0  3.964564  0  0  0.15946  0.175922  0  3.949058  0
C  C71  1  0.07967209  0.88759639  0.46518680  1  0  0.237947  0  3.667369  0  0  0.184794  0  3.956433  0  0  0.198064  0  3.964712  0  0  0.159588  0.176199  0  3.94922  0
C  C72  1  0.48734436  0.53726634  0.95132825  1  0  -0.156636  0  3.69773  0  0  -0.190598  0  3.952007  0  0  -0.194068  0  3.970027  0  0  -0.084356  -0.185864  0  3.936319  0
C  C73  1  0.51264948  0.46273303  0.45132764  1  0  -0.156779  0  3.69779  0  0  -0.190736  0  3.952048  0  0  -0.194206  0  3.970087  0  0  -0.084393  -0.185993  0  3.936363  0
N  N74  1  0.84199174  0.08325649  0.01476220  1  0  -0.392713  0  3.158167  0  0  -0.322947  0  3.448489  0  0  -0.343944  0  3.45607  0  0  -0.338446  -0.308894  0  3.44166  0
N  N75  1  0.15800364  0.91674421  0.51476113  1  0  -0.392828  0  3.158406  0  0  -0.323061  0  3.448699  0  0  -0.34406  0  3.456275  0  0  -0.338511  -0.309005  0  3.441857  0
N  N76  1  0.07784679  0.91353173  0.97979991  1  0  0.005004  0  3.585514  0  0  0.120788  0  3.764086  0  0  0.077581  0  3.827786  0  0  -0.118824  0.128358  0  3.748294  0
N  N77  1  0.92214284  0.08646761  0.47979987  1  0  0.004927  0  3.585577  0  0  0.120749  0  3.76412  0  0  0.077488  0  3.827863  0  0  -0.118853  0.12832  0  3.74833  0
N  N78  1  0.06386998  0.01222184  0.94240260  1  0  -0.251355  0  2.823644  0  0  -0.247747  0  3.088693  0  0  -0.246693  0  3.10843  0  0  -0.211005  -0.242824  0  3.080338  0
N  N79  1  0.93611702  0.98777856  0.44240245  1  0  -0.251409  0  2.823781  0  0  -0.247826  0  3.088804  0  0  -0.246761  0  3.108569  0  0  -0.211026  -0.242903  0  3.080443  0
N  N80  1  0.75999107  0.64552709  0.87938310  1  0  -0.000909  0  3.593963  0  0  0.116205  0  3.766277  0  0  0.072652  0  3.831609  0  0  -0.122582  0.124073  0  3.748826  0
N  N81  1  0.23999743  0.35447335  0.37938240  1  0  -0.000985  0  3.594076  0  0  0.115945  0  3.766599  0  0  0.072562  0  3.831739  0  0  -0.122693  0.123813  0  3.749149  0
N  N82  1  0.09287305  0.57373155  0.82381998  1  0  -0.38447  0  3.026219  0  0  -0.350835  0  3.319737  0  0  -0.36493  0  3.327428  0  0  -0.332336  -0.340975  0  3.311646  0
N  N83  1  0.90712446  0.42627414  0.32381951  1  0  -0.384326  0  3.026517  0  0  -0.350668  0  3.319963  0  0  -0.364762  0  3.327676  0  0  -0.332236  -0.340805  0  3.311864  0
N  N84  1  0.84094713  0.75986502  0.85060076  1  0  -0.263216  0  2.863013  0  0  -0.256745  0  3.12899  0  0  -0.255133  0  3.148853  0  0  -0.214418  -0.250978  0  3.119958  0
N  N85  1  0.15903200  0.24013647  0.35060081  1  0  -0.263147  0  2.862871  0  0  -0.256594  0  3.128863  0  0  -0.255039  0  3.148707  0  0  -0.214321  -0.250828  0  3.119832  0
N  N86  1  0.56096945  0.37795723  0.14590704  1  0  -0.39128  0  3.162449  0  0  -0.321702  0  3.453436  0  0  -0.342568  0  3.461048  0  0  -0.338359  -0.30774  0  3.446714  0
N  N87  1  0.43903645  0.62204132  0.64590572  1  0  -0.391245  0  3.162493  0  0  -0.321664  0  3.453466  0  0  -0.342529  0  3.461072  0  0  -0.338339  -0.307703  0  3.446744  0
N  N88  1  0.33530505  0.54924709  0.18186089  1  0  0.007495  0  3.582946  0  0  0.122102  0  3.762522  0  0  0.081014  0  3.823764  0  0  -0.117777  0.129616  0  3.746761  0
N  N89  1  0.66470118  0.45075040  0.68186120  1  0  0.007496  0  3.582937  0  0  0.122049  0  3.762549  0  0  0.080876  0  3.823893  0  0  -0.117775  0.129562  0  3.74679  0
N  N90  1  0.35046015  0.45029096  0.21907244  1  0  -0.25028  0  2.826482  0  0  -0.247122  0  3.093507  0  0  -0.2466  0  3.113393  0  0  -0.212344  -0.242251  0  3.084726  0
N  N91  1  0.64953549  0.54970961  0.71907235  1  0  -0.250356  0  2.826494  0  0  -0.247185  0  3.093545  0  0  -0.246636  0  3.113449  0  0  -0.212371  -0.242313  0  3.084764  0
N  N92  1  0.66634703  0.82129651  0.28438299  1  0  -0.002098  0  3.588299  0  0  0.116428  0  3.758278  0  0  0.072777  0  3.823141  0  0  -0.122799  0.124419  0  3.740936  0
N  N93  1  0.33366538  0.17870404  0.78438359  1  0  -0.001987  0  3.588286  0  0  0.116605  0  3.75814  0  0  0.072905  0  3.823075  0  0  -0.12273  0.124596  0  3.740796  0
N  N94  1  0.54355519  0.94480804  0.29622679  1  0  -0.278193  0  2.842512  0  0  -0.274502  0  3.10588  0  0  -0.272973  0  3.126058  0  0  -0.224959  -0.268753  0  3.096606  0
N  N95  1  0.45645748  0.05519353  0.79622746  1  0  -0.27821  0  2.842668  0  0  -0.274548  0  3.106  0  0  -0.273002  0  3.126182  0  0  -0.224988  -0.2688  0  3.09673  0
N  N96  1  0.37173083  0.77530637  0.35088241  1  0  -0.404144  0  2.990526  0  0  -0.367362  0  3.275064  0  0  -0.38253  0  3.282987  0  0  -0.342126  -0.356744  0  3.26688  0
N  N97  1  0.62828503  0.22469725  0.85088235  1  0  -0.404197  0  2.990357  0  0  -0.36744  0  3.274918  0  0  -0.382611  0  3.282836  0  0  -0.342203  -0.356822  0  3.266735  0
O  O98  1  0.04080863  0.14564982  0.14241410  1  0  -0.658477  0  2.023939  0  0  -0.600912  0  2.282454  0  0  -0.627466  0  2.271566  0  0  -0.335668  -0.58217  0  2.289431  0
O  O99  1  0.95919484  0.85434769  0.64241408  1  0  -0.658485  0  2.023968  0  0  -0.600919  0  2.282471  0  0  -0.627473  0  2.271584  0  0  -0.335683  -0.58217  0  2.289435  0
O  O100  1  0.42192699  0.03094773  0.10576468  1  0  -0.659242  0  2.022509  0  0  -0.600241  0  2.283432  0  0  -0.629247  0  2.273928  0  0  -0.335667  -0.57888  0  2.288583  0
O  O101  1  0.57807853  0.96905189  0.60576489  1  0  -0.659165  0  2.022493  0  0  -0.600165  0  2.283404  0  0  -0.629171  0  2.273899  0  0  -0.335615  -0.578805  0  2.288552  0
O  O102  1  0.36080503  0.31544457  0.01840874  1  0  -0.65424  0  2.025607  0  0  -0.596299  0  2.28241  0  0  -0.622678  0  2.271654  0  0  -0.334159  -0.577692  0  2.289281  0
O  O103  1  0.63919484  0.68455510  0.51840824  1  0  -0.654257  0  2.025573  0  0  -0.596326  0  2.282401  0  0  -0.622703  0  2.271646  0  0  -0.334195  -0.577719  0  2.289271  0
O  O104  1  0.97846369  0.43028108  0.05470043  1  0  -0.656458  0  2.023095  0  0  -0.598438  0  2.283723  0  0  -0.62734  0  2.274471  0  0  -0.334277  -0.577204  0  2.288818  0
O  O105  1  0.02153652  0.56971752  0.55469973  1  0  -0.656438  0  2.023112  0  0  -0.598407  0  2.283743  0  0  -0.627309  0  2.274492  0  0  -0.334258  -0.577176  0  2.28884  0
