# generated using pymatgen
data_ZnH10C20(NO3)2
_symmetry_space_group_name_H-M   'P 1'
_cell_length_a   15.18532676
_cell_length_b   15.68158076
_cell_length_c   24.74054045
_cell_angle_alpha   107.68191571
_cell_angle_beta   107.85709271
_cell_angle_gamma   89.98524494
_symmetry_Int_Tables_number   1
_chemical_formula_structural   ZnH10C20(NO3)2
_chemical_formula_sum   'Zn8 H80 C160 N16 O48'
_cell_volume   5314.62246689
_cell_formula_units_Z   8
loop_
 _symmetry_equiv_pos_site_id
 _symmetry_equiv_pos_as_xyz
  1  'x, y, z'
loop_
 _atom_site_type_symbol
 _atom_site_label
 _atom_site_symmetry_multiplicity
 _atom_site_fract_x
 _atom_site_fract_y
 _atom_site_fract_z
 _atom_site_occupancy
 _atom_site_pbe_bader_charge
 _atom_site_pbe_bader_spin_density
 _atom_site_pbe_cm5_charge
 _atom_site_pbe_ddec_charge
 _atom_site_pbe_ddec_spin_density
 _atom_site_pbe_ddec_sum_bond_order
 _atom_site_pbe_magmom
Zn  Zn0  1  0.84649819  0.07103416  0.19977913  1  1.299154  0  0.670668  0.831165  0  2.391707  0
Zn  Zn1  1  0.40801611  0.63347751  0.32907935  1  1.301999  0  0.674437  0.832847  0  2.427051  0
Zn  Zn2  1  0.35300758  0.57101735  0.19977168  1  1.297056  0  0.670872  0.832177  0  2.391328  0
Zn  Zn3  1  0.92071990  0.13342182  0.32904947  1  1.303308  0  0.673939  0.831651  0  2.428349  0
Zn  Zn4  1  0.64699536  0.42898111  0.80022925  1  1.297134  0  0.670862  0.832134  0  2.391265  0
Zn  Zn5  1  0.07928129  0.86657930  0.67094999  1  1.303301  0  0.673928  0.831629  0  2.428414  0
Zn  Zn6  1  0.15350288  0.92896094  0.80022097  1  1.298953  0  0.670709  0.831232  0  2.391513  0
Zn  Zn7  1  0.59198210  0.36652096  0.67092170  1  1.301932  0  0.674483  0.832906  0  2.426962  0
H  H8  1  0.51497685  0.34609206  0.17699966  1  0.076987  0  0.099875  0.09891  0  1.017812  0
H  H9  1  0.63085900  0.23151442  0.18013585  1  0.09973  0  0.104498  0.112038  0  0.997298  0
H  H10  1  0.72724003  0.33426597  0.37209823  1  0.103584  0  0.105294  0.111878  0  0.996299  0
H  H11  1  0.61196109  0.44996050  0.36897477  1  0.082507  0  0.106676  0.115395  0  0.995015  0
H  H12  1  0.09302514  0.35244962  0.34848566  1  0.091066  0  0.10368  0.109821  0  1.002833  0
H  H13  1  0.20628751  0.47183859  0.35161208  1  0.092558  0  0.103793  0.109212  0  1.004976  0
H  H14  1  0.10078986  0.39895637  0.15984589  1  0.064388  0  0.105516  0.111417  0  0.996155  0
H  H15  1  0.98642125  0.28030570  0.15688320  1  0.048362  0  0.1017  0.104166  0  1.005095  0
H  H16  1  0.84295515  0.12265547  0.09282959  1  0.128571  0  0.128012  0.104827  0  0.985963  0
H  H17  1  0.76952130  0.06020174  0.98043631  1  0.103811  0  0.12297  0.137984  0  0.96659  0
H  H18  1  0.64267638  0.83603746  0.00628462  1  0.115292  0  0.120645  0.132919  0  0.976889  0
H  H19  1  0.72118925  0.90808622  0.11748830  1  0.131788  0  0.122671  0.096817  0  1.013241  0
H  H20  1  0.45735644  0.01674683  0.82045061  1  0.135499  0  0.114867  0.118475  0  0.995447  0
H  H21  1  0.39645794  0.95886035  0.70764724  1  0.133772  0  0.114681  0.121498  0  1.006165  0
H  H22  1  0.67837921  0.62754612  0.70737479  1  0.146236  0  0.113867  0.116838  0  1.028273  0
H  H23  1  0.73537018  0.68105040  0.82032812  1  0.149149  0  0.116828  0.122548  0  1.001162  0
H  H24  1  0.38982664  0.54272071  0.41478216  1  0.161973  0  0.1275  0.108307  0  0.993468  0
H  H25  1  0.41963726  0.58254906  0.52549901  1  0.123981  0  0.123504  0.142284  0  0.970666  0
H  H26  1  0.50666485  0.85440033  0.54262498  1  0.113276  0  0.122917  0.140248  0  0.969168  0
H  H27  1  0.47306661  0.80337514  0.43095495  1  0.125945  0  0.129053  0.102095  0  0.967765  0
H  H28  1  0.66193679  0.84580637  0.17695744  1  0.075416  0  0.100253  0.100188  0  1.01655  0
H  H29  1  0.54906494  0.73143525  0.18012876  1  0.107189  0  0.104742  0.113103  0  0.996403  0
H  H30  1  0.64410359  0.83457195  0.37206171  1  0.09744  0  0.105156  0.112827  0  0.996304  0
H  H31  1  0.75645991  0.95000129  0.36894745  1  0.086847  0  0.10639  0.115184  0  0.995617  0
H  H32  1  0.25536331  0.85253548  0.34834711  1  0.106069  0  0.103722  0.10986  0  1.002687  0
H  H33  1  0.14523903  0.97204400  0.35153431  1  0.084339  0  0.103852  0.108198  0  1.006294  0
H  H34  1  0.05875707  0.89889592  0.15974793  1  0.107635  0  0.10559  0.111769  0  0.996339  0
H  H35  1  0.17016791  0.78014132  0.15674823  1  0.090998  0  0.101918  0.104174  0  1.005149  0
H  H36  1  0.24996189  0.62250927  0.09272470  1  0.114711  0  0.128082  0.10432  0  0.985672  0
H  H37  1  0.21133918  0.55991415  0.98034508  1  0.078623  0  0.123053  0.13791  0  0.966316  0
H  H38  1  0.36401151  0.33577048  0.00641252  1  0.105773  0  0.120867  0.133855  0  0.976112  0
H  H39  1  0.39613670  0.40782223  0.11758148  1  0.134876  0  0.122481  0.0964  0  1.01313  0
H  H40  1  0.36323089  0.51683992  0.82039489  1  0.137235  0  0.115222  0.118907  0  0.994936  0
H  H41  1  0.31130533  0.45890600  0.70759434  1  0.12313  0  0.11511  0.121795  0  1.005992  0
H  H42  1  0.02941680  0.12767881  0.70754973  1  0.144029  0  0.113987  0.117973  0  1.027213  0
H  H43  1  0.08566679  0.18106205  0.82051150  1  0.135745  0  0.117044  0.12251  0  1.001067  0
H  H44  1  0.02447124  0.04256398  0.41481007  1  0.131231  0  0.127243  0.108282  0  0.993173  0
H  H45  1  0.10584189  0.08252846  0.52544790  1  0.132717  0  0.123489  0.141921  0  0.970811  0
H  H46  1  0.03554270  0.35435197  0.54259333  1  0.095868  0  0.123095  0.140371  0  0.969528  0
H  H47  1  0.95710470  0.30316753  0.43098810  1  0.108256  0  0.128983  0.101848  0  0.968606  0
H  H48  1  0.33806341  0.15419207  0.82304214  1  0.075401  0  0.100195  0.100105  0  1.016515  0
H  H49  1  0.45093929  0.26856185  0.81987055  1  0.107192  0  0.104758  0.113119  0  0.996388  0
H  H50  1  0.35589991  0.16542651  0.62793908  1  0.097558  0  0.105172  0.112874  0  0.996366  0
H  H51  1  0.24354060  0.05000116  0.63105147  1  0.086815  0  0.106402  0.115155  0  0.995623  0
H  H52  1  0.74462513  0.14745898  0.65165482  1  0.106077  0  0.103751  0.109893  0  1.002693  0
H  H53  1  0.85475312  0.02795442  0.64846416  1  0.084493  0  0.103855  0.108177  0  1.006293  0
H  H54  1  0.94124186  0.10109715  0.84025120  1  0.107662  0  0.105574  0.111729  0  0.996296  0
H  H55  1  0.82982582  0.21984776  0.84325222  1  0.090661  0  0.101938  0.10411  0  1.005267  0
H  H56  1  0.75003936  0.37748859  0.90727998  1  0.11468  0  0.128097  0.104337  0  0.985693  0
H  H57  1  0.78866246  0.44008704  0.01965827  1  0.07849  0  0.123034  0.137901  0  0.966283  0
H  H58  1  0.63598543  0.66422594  0.99358635  1  0.106049  0  0.120843  0.133842  0  0.976105  0
H  H59  1  0.60386309  0.59217217  0.88241727  1  0.135002  0  0.122428  0.096303  0  1.013277  0
H  H60  1  0.63676553  0.48316391  0.17960631  1  0.137276  0  0.115248  0.118912  0  0.994905  0
H  H61  1  0.68868910  0.54110118  0.29240660  1  0.122619  0  0.115099  0.121752  0  1.006007  0
H  H62  1  0.97058989  0.87231697  0.29245120  1  0.143977  0  0.11399  0.117979  0  1.027192  0
H  H63  1  0.91434249  0.81893170  0.17948835  1  0.136098  0  0.117069  0.122582  0  1.000967  0
H  H64  1  0.97552828  0.95743579  0.58518897  1  0.13124  0  0.127252  0.108299  0  0.993191  0
H  H65  1  0.89415496  0.91746864  0.47455166  1  0.132733  0  0.123458  0.141923  0  0.970807  0
H  H66  1  0.96445734  0.64564845  0.45740423  1  0.095837  0  0.123118  0.14041  0  0.969575  0
H  H67  1  0.04289714  0.69683155  0.56900973  1  0.108466  0  0.129017  0.101887  0  0.968558  0
H  H68  1  0.48502723  0.65390505  0.82300019  1  0.076975  0  0.099884  0.098908  0  1.017708  0
H  H69  1  0.36915061  0.76848809  0.81986593  1  0.09969  0  0.104488  0.112028  0  0.997325  0
H  H70  1  0.27275595  0.66573250  0.62790335  1  0.103662  0  0.105237  0.111814  0  0.996221  0
H  H71  1  0.38803799  0.55003795  0.63102506  1  0.082415  0  0.106681  0.115369  0  0.99504  0
H  H72  1  0.90697403  0.64755218  0.65151392  1  0.091114  0  0.103661  0.109789  0  1.002885  0
H  H73  1  0.79371215  0.52816450  0.64838469  1  0.09245  0  0.103787  0.109171  0  1.005009  0
H  H74  1  0.89921545  0.60103734  0.84015139  1  0.064248  0  0.105505  0.111396  0  0.996233  0
H  H75  1  0.01358273  0.71968735  0.84311475  1  0.048351  0  0.101708  0.104167  0  1.005174  0
H  H76  1  0.15704109  0.87735109  0.90717378  1  0.128442  0  0.128041  0.104853  0  0.985838  0
H  H77  1  0.23048272  0.93981020  0.01956846  1  0.103945  0  0.122998  0.137968  0  0.966603  0
H  H78  1  0.35733171  0.16396907  0.99371744  1  0.11513  0  0.120635  0.132849  0  0.976865  0
H  H79  1  0.27881653  0.09191561  0.88251374  1  0.131492  0  0.122654  0.096726  0  1.013311  0
H  H80  1  0.54265173  0.98326234  0.17954905  1  0.135543  0  0.114866  0.118459  0  0.995482  0
H  H81  1  0.60354083  0.04113812  0.29235367  1  0.133801  0  0.114702  0.121536  0  1.005992  0
H  H82  1  0.32162293  0.37245833  0.29262320  1  0.146272  0  0.113851  0.116873  0  1.02825  0
H  H83  1  0.26463000  0.31895136  0.17966972  1  0.149085  0  0.116847  0.122503  0  1.001045  0
H  H84  1  0.61016945  0.45727840  0.58521753  1  0.161983  0  0.127503  0.108305  0  0.993466  0
H  H85  1  0.58035924  0.41745006  0.47450109  1  0.124036  0  0.123492  0.142273  0  0.970703  0
H  H86  1  0.49332609  0.14560013  0.45737524  1  0.113175  0  0.122915  0.140261  0  0.969201  0
H  H87  1  0.52692385  0.19662465  0.56904473  1  0.125475  0  0.129033  0.102078  0  0.967827  0
C  C88  1  0.48745955  0.47253340  0.27079984  1  1.567003  0  0.209848  0.575301  0  4.205022  0
C  C89  1  0.55626915  0.40394136  0.27281402  1  -0.035604  0  -0.019671  -0.039668  0  3.981583  0
C  C90  1  0.56155221  0.34274836  0.21950432  1  -0.047379  0  -0.089676  -0.102816  0  4.004756  0
C  C91  1  0.62539577  0.27926668  0.22112594  1  -0.056394  0  -0.086532  -0.098579  0  3.981981  0
C  C92  1  0.68494476  0.27611722  0.27620972  1  -0.027494  0  -0.0148  -0.02131  0  3.95777  0
C  C93  1  0.67998065  0.33737883  0.32968374  1  -0.06153  0  -0.086711  -0.100555  0  3.98103  0
C  C94  1  0.61614642  0.40098427  0.32801192  1  -0.020856  0  -0.087413  -0.104754  0  3.985641  0
C  C95  1  0.75521356  0.20884017  0.27733843  1  1.582773  0  0.210716  0.582754  0  4.18499  0
C  C96  1  0.97197140  0.23387899  0.25176639  1  1.564686  0  0.214115  0.592189  0  4.169593  0
C  C97  1  0.03365792  0.30927261  0.25258312  1  -0.016208  0  -0.015179  -0.024796  0  3.960239  0
C  C98  1  0.09446659  0.36426415  0.30760521  1  -0.069455  0  -0.086068  -0.094407  0  3.983815  0
C  C99  1  0.15706161  0.43026693  0.30927766  1  -0.043513  0  -0.086026  -0.098404  0  3.991974  0
C  C100  1  0.16031150  0.44187200  0.25586383  1  -0.014124  0  -0.019386  -0.03843  0  3.975131  0
C  C101  1  0.09749482  0.38895957  0.20092024  1  -0.021335  0  -0.087132  -0.100303  0  3.986713  0
C  C102  1  0.03437167  0.32312396  0.19933163  1  -0.00143  0  -0.086764  -0.098686  0  3.985937  0
C  C103  1  0.23657739  0.50466002  0.25790031  1  1.559688  0  0.210965  0.579451  0  4.189267  0
C  C104  1  0.79745712  0.05977015  0.07132869  1  0.497972  0  0.061555  0.10864  0  3.91199  0
C  C105  1  0.75696273  0.02492519  0.00950276  1  0.050603  0  -0.069701  -0.19163  0  3.932466  0
C  C106  1  0.70006828  0.94375811  0.98554884  1  0.252914  0  0.116913  0.244023  0  4.004158  0
C  C107  1  0.68604239  0.89974774  0.02378599  1  0.067973  0  -0.066181  -0.177444  0  3.920344  0
C  C108  1  0.72908396  0.93901163  0.08508980  1  0.49081  0  0.063742  0.120206  0  3.896302  0
C  C109  1  0.58964582  0.95361213  0.89313826  1  1.311298  0  0.245065  0.443323  0  4.090856  0
C  C110  1  0.55185731  0.91619060  0.82708287  1  0.004305  0  -0.001987  -0.064701  0  3.979606  0
C  C111  1  0.48353577  0.95822818  0.79553782  1  0.080192  0  -0.05425  -0.047483  0  3.894044  0
C  C112  1  0.44969206  0.92616566  0.73273623  1  -0.089208  0  -0.056271  -0.053448  0  3.888725  0
C  C113  1  0.48451365  0.85220995  0.70131301  1  0.029569  0  0.000143  -0.060013  0  3.98032  0
C  C114  1  0.45026463  0.82157452  0.63509420  1  1.273769  0  0.249751  0.447235  0  4.080916  0
C  C115  1  0.55640846  0.69739631  0.63522941  1  1.277577  0  0.250482  0.447632  0  4.077412  0
C  C116  1  0.58816705  0.73092180  0.70136595  1  0.001542  0  -0.000724  -0.062933  0  3.984618  0
C  C117  1  0.65355595  0.68656386  0.73271295  1  0.008821  0  -0.055929  -0.049686  0  3.88899  0
C  C118  1  0.68535017  0.71665100  0.79557161  1  0.022664  0  -0.053194  -0.046394  0  3.888016  0
C  C119  1  0.65296363  0.79239956  0.82704178  1  0.003064  0  -0.003844  -0.069953  0  3.987922  0
C  C120  1  0.68860079  0.82389826  0.89319407  1  1.274536  0  0.24683  0.44406  0  4.089238  0
C  C121  1  0.58645041  0.83914239  0.79612265  1  0.017533  0  0.007426  0.034661  0  4.000861  0
C  C122  1  0.55281497  0.80727761  0.73232165  1  0.011959  0  0.00836  0.035005  0  3.997193  0
C  C123  1  0.41519321  0.61102686  0.44483184  1  0.441978  0  0.063149  0.116254  0  3.892677  0
C  C124  1  0.43184342  0.63340439  0.50622921  1  0.087391  0  -0.069912  -0.191139  0  3.926147  0
C  C125  1  0.46620522  0.72160072  0.54217518  1  0.314551  0  0.11551  0.244128  0  4.001865  0
C  C126  1  0.48065736  0.78500422  0.51571955  1  -0.01456  0  -0.071914  -0.194738  0  3.939893  0
C  C127  1  0.46186947  0.75722630  0.45406330  1  0.475548  0  0.060667  0.108642  0  3.927494  0
C  C128  1  0.78311288  0.97231711  0.27069386  1  1.57756  0  0.210721  0.577003  0  4.200841  0
C  C129  1  0.71624953  0.90384018  0.27276195  1  -0.042134  0  -0.018916  -0.03791  0  3.980321  0
C  C130  1  0.65773254  0.84260794  0.21946730  1  -0.038226  0  -0.090621  -0.106313  0  4.007471  0
C  C131  1  0.59546918  0.77921354  0.22110743  1  -0.075261  0  -0.08638  -0.098155  0  3.984238  0
C  C132  1  0.59085406  0.77620898  0.27619193  1  -0.017119  0  -0.014893  -0.021194  0  3.959509  0
C  C133  1  0.64916181  0.83752203  0.32965328  1  -0.044965  0  -0.086473  -0.103067  0  3.982747  0
C  C134  1  0.71139764  0.90102231  0.32797401  1  -0.050285  0  -0.08734  -0.103774  0  3.987128  0
C  C135  1  0.52168352  0.70900886  0.27733860  1  1.583136  0  0.210424  0.583099  0  4.182834  0
C  C136  1  0.27935461  0.73369719  0.25163403  1  1.579015  0  0.214113  0.59215  0  4.170555  0
C  C137  1  0.21865540  0.80922927  0.25245592  1  -0.079874  0  -0.015517  -0.024082  0  3.96082  0
C  C138  1  0.21297459  0.86435357  0.30748883  1  -0.059517  0  -0.085085  -0.093505  0  3.981543  0
C  C139  1  0.15208809  0.93042250  0.30918627  1  -0.049809  0  -0.086966  -0.098499  0  3.99254  0
C  C140  1  0.09539494  0.94197725  0.25576932  1  -0.037058  0  -0.019529  -0.038969  0  3.974665  0
C  C141  1  0.10320818  0.88896940  0.20080801  1  -0.055813  0  -0.086811  -0.099506  0  3.986497  0
C  C142  1  0.16470573  0.82307091  0.19920050  1  0.009277  0  -0.086742  -0.099474  0  3.986552  0
C  C143  1  0.02114848  0.00481319  0.25783143  1  1.564158  0  0.212719  0.583693  0  4.18551  0
C  C144  1  0.27401429  0.55957358  0.07127743  1  0.598183  0  0.061714  0.110072  0  3.912249  0
C  C145  1  0.25290288  0.52468256  0.00946862  1  -0.045188  0  -0.069638  -0.191586  0  3.934859  0
C  C146  1  0.28598918  0.44353982  0.98558157  1  0.295164  0  0.116404  0.239363  0  4.00427  0
C  C147  1  0.33810263  0.39952313  0.02386544  1  0.079066  0  -0.065336  -0.177855  0  3.921498  0
C  C148  1  0.35606911  0.43879123  0.08515394  1  0.495055  0  0.063489  0.120912  0  3.896245  0
C  C149  1  0.30386889  0.45354678  0.89315093  1  1.356984  0  0.246741  0.442383  0  4.087712  0
C  C150  1  0.27563636  0.41611882  0.82709439  1  -0.053991  0  -0.003087  -0.066263  0  3.980763  0
C  C151  1  0.31225645  0.45823476  0.79551050  1  -0.018183  0  -0.054629  -0.048431  0  3.892999  0
C  C152  1  0.28326570  0.42617188  0.73269982  1  -0.001907  0  -0.056261  -0.052717  0  3.887192  0
C  C153  1  0.21711504  0.35216521  0.70131309  1  0.034105  0  7.5e-05  -0.061478  0  3.9803  0
C  C154  1  0.18493825  0.32161602  0.63506542  1  1.245729  0  0.248911  0.446661  0  4.077878  0
C  C155  1  0.07911453  0.19746317  0.63531813  1  1.273593  0  0.251632  0.450419  0  4.072334  0
C  C156  1  0.11365878  0.23093201  0.70146318  1  -0.051333  0  -0.000462  -0.061965  0  3.983107  0
C  C157  1  0.07965410  0.18660583  0.73283987  1  0.045135  0  -0.05647  -0.052514  0  3.889734  0
C  C158  1  0.11084614  0.21663006  0.79569809  1  -0.012841  0  -0.053102  -0.045631  0  3.887984  0
C  C159  1  0.17473020  0.29230786  0.82713814  1  0.037871  0  -0.004357  -0.071259  0  3.990685  0
C  C160  1  0.20525542  0.32373549  0.89327572  1  1.268404  0  0.246643  0.440238  0  4.089986  0
C  C161  1  0.21022594  0.33904046  0.79618196  1  0.045184  0  0.007559  0.034737  0  4.002356  0
C  C162  1  0.17998455  0.30722211  0.73238717  1  0.045714  0  0.008823  0.036248  0  3.997395  0
C  C163  1  0.02919198  0.11090641  0.44484520  1  0.510837  0  0.063419  0.115603  0  3.890582  0
C  C164  1  0.07420317  0.13338235  0.50621956  1  0.034247  0  -0.069669  -0.189368  0  3.924861  0
C  C165  1  0.07586335  0.22161517  0.54219122  1  0.223321  0  0.115412  0.243618  0  4.00015  0
C  C166  1  0.03465563  0.28492318  0.51572396  1  0.103398  0  -0.072764  -0.196193  0  3.940362  0
C  C167  1  0.99154976  0.25706596  0.45408609  1  0.49359  0  0.061638  0.110365  0  3.927668  0
C  C168  1  0.21688918  0.02768273  0.72930909  1  1.577711  0  0.21072  0.576964  0  4.200806  0
C  C169  1  0.28374983  0.09615960  0.72723762  1  -0.042098  0  -0.018883  -0.037926  0  3.980352  0
C  C170  1  0.34226810  0.15739183  0.78053148  1  -0.038148  0  -0.090594  -0.106231  0  4.007451  0
C  C171  1  0.40453277  0.22078556  0.77889188  1  -0.075278  0  -0.086394  -0.09819  0  3.984286  0
C  C172  1  0.40914607  0.22378879  0.72380750  1  -0.017292  0  -0.014856  -0.021061  0  3.959394  0
C  C173  1  0.35083750  0.16247572  0.67034534  1  -0.044994  0  -0.086502  -0.103182  0  3.982802  0
C  C174  1  0.28860148  0.09897746  0.67202463  1  -0.050314  0  -0.087367  -0.103737  0  3.987089  0
C  C175  1  0.47831740  0.29098822  0.72265949  1  1.583045  0  0.210424  0.583041  0  4.182839  0
C  C176  1  0.72064368  0.26630070  0.74837185  1  1.57824  0  0.214015  0.591798  0  4.170828  0
C  C177  1  0.78134115  0.19076588  0.74754725  1  -0.079944  0  -0.015596  -0.023998  0  3.960774  0
C  C178  1  0.78701956  0.13564357  0.69251286  1  -0.059409  0  -0.085095  -0.093686  0  3.981575  0
C  C179  1  0.84790707  0.06957596  0.69081450  1  -0.049855  0  -0.086904  -0.098248  0  3.992472  0
C  C180  1  0.90460500  0.05802117  0.74422931  1  -0.037614  0  -0.019584  -0.039205  0  3.974946  0
C  C181  1  0.89678896  0.11102501  0.79919086  1  -0.055701  0  -0.086806  -0.099411  0  3.9864  0
C  C182  1  0.83529127  0.17692422  0.80080106  1  0.009635  0  -0.086692  -0.099367  0  3.986646  0
C  C183  1  0.97885038  0.99518449  0.74216329  1  1.564304  0  0.212624  0.583505  0  4.185611  0
C  C184  1  0.72598562  0.44042559  0.92872537  1  0.598299  0  0.061709  0.109959  0  3.911948  0
C  C185  1  0.74709754  0.47531861  0.99053352  1  -0.045194  0  -0.069638  -0.19156  0  3.934837  0
C  C186  1  0.71400628  0.55645863  0.01441812  1  0.295211  0  0.116471  0.239361  0  4.00455  0
C  C187  1  0.66189233  0.60047331  0.97613491  1  0.078412  0  -0.065341  -0.177885  0  3.921601  0
C  C188  1  0.64392676  0.56120319  0.91484573  1  0.495217  0  0.063627  0.121094  0  3.896309  0
C  C189  1  0.69612758  0.54645506  0.10685080  1  1.356672  0  0.246841  0.442446  0  4.087594  0
C  C190  1  0.72436189  0.58388304  0.17290842  1  -0.05382  0  -0.002997  -0.066026  0  3.980548  0
C  C191  1  0.68773831  0.54176773  0.20449028  1  -0.018459  0  -0.054667  -0.048512  0  3.892903  0
C  C192  1  0.71672907  0.57382925  0.26730015  1  -0.001486  0  -0.056268  -0.052667  0  3.88712  0
C  C193  1  0.78288228  0.64783393  0.29868782  1  0.034324  0  8.8e-05  -0.061453  0  3.980331  0
C  C194  1  0.81505827  0.67838577  0.36493429  1  1.245511  0  0.248925  0.446765  0  4.077789  0
C  C195  1  0.92088889  0.80253597  0.36468334  1  1.273591  0  0.251605  0.450387  0  4.072255  0
C  C196  1  0.88634568  0.76906781  0.29853871  1  -0.051314  0  -0.000381  -0.061834  0  3.982912  0
C  C197  1  0.92035023  0.81339130  0.26716093  1  0.045115  0  -0.05645  -0.052544  0  3.889801  0
C  C198  1  0.88915846  0.78336573  0.20430283  1  -0.01315  0  -0.053149  -0.04575  0  3.887979  0
C  C199  1  0.82527087  0.70769127  0.17286238  1  0.037854  0  -0.004398  -0.0713  0  3.990894  0
C  C200  1  0.79474522  0.67626634  0.10672603  1  1.268354  0  0.24661  0.440269  0  4.09012  0
C  C201  1  0.78977543  0.66096000  0.20381830  1  0.045164  0  0.007569  0.034702  0  4.00237  0
C  C202  1  0.82001786  0.69277903  0.26761350  1  0.045802  0  0.008743  0.03609  0  3.997279  0
C  C203  1  0.97080635  0.88909269  0.55515397  1  0.510739  0  0.063364  0.115556  0  3.890547  0
C  C204  1  0.92579292  0.86661677  0.49378014  1  0.034367  0  -0.069598  -0.189303  0  3.924807  0
C  C205  1  0.92413419  0.77838463  0.45780929  1  0.223134  0  0.11535  0.243485  0  4.00021  0
C  C206  1  0.96534382  0.71507592  0.48427494  1  0.103408  0  -0.072756  -0.196246  0  3.940491  0
C  C207  1  0.00845156  0.74293247  0.54591322  1  0.493371  0  0.061632  0.110485  0  3.927681  0
C  C208  1  0.51253886  0.52746306  0.72920120  1  1.567089  0  0.20978  0.575119  0  4.205011  0
C  C209  1  0.44372846  0.59605372  0.72718539  1  -0.035539  0  -0.019639  -0.039523  0  3.981467  0
C  C210  1  0.43844805  0.65725075  0.78049539  1  -0.047418  0  -0.089688  -0.10285  0  4.004597  0
C  C211  1  0.37460864  0.72073514  0.77887542  1  -0.056439  0  -0.086516  -0.098572  0  3.981955  0
C  C212  1  0.31505679  0.72388259  0.72379134  1  -0.027421  0  -0.014764  -0.021181  0  3.957701  0
C  C213  1  0.32001815  0.66261899  0.67031851  1  -0.061569  0  -0.08667  -0.10054  0  3.981001  0
C  C214  1  0.38385143  0.59901219  0.67198925  1  -0.02076  0  -0.087455  -0.104798  0  3.98568  0
C  C215  1  0.24478665  0.79116094  0.72266075  1  1.582816  0  0.210573  0.582496  0  4.185213  0
C  C216  1  0.02803103  0.76611944  0.74823265  1  1.564299  0  0.214159  0.592213  0  4.169425  0
C  C217  1  0.96634592  0.69072312  0.74741497  1  -0.01605  0  -0.015164  -0.024832  0  3.960239  0
C  C218  1  0.90553527  0.63573358  0.69239181  1  -0.06952  0  -0.086105  -0.094416  0  3.983909  0
C  C219  1  0.84294100  0.56973014  0.69072003  1  -0.043172  0  -0.086025  -0.098329  0  3.992064  0
C  C220  1  0.83969077  0.55812035  0.74413236  1  -0.013499  0  -0.019371  -0.038613  0  3.975192  0
C  C221  1  0.90251098  0.61103347  0.79907678  1  -0.021756  0  -0.087118  -0.100231  0  3.986549  0
C  C222  1  0.96563471  0.67686977  0.80066740  1  -0.001866  0  -0.086734  -0.098588  0  3.985816  0
C  C223  1  0.76342377  0.49533636  0.74209657  1  1.560084  0  0.211057  0.579767  0  4.189344  0
C  C224  1  0.20254265  0.94023905  0.92867295  1  0.497693  0  0.061511  0.108526  0  3.911932  0
C  C225  1  0.24303864  0.97508469  0.99049916  1  0.050749  0  -0.069786  -0.192065  0  3.933875  0
C  C226  1  0.29993585  0.05624640  0.01445320  1  0.253233  0  0.116993  0.240116  0  4.003087  0
C  C227  1  0.31396313  0.10025201  0.97621213  1  0.067693  0  -0.066223  -0.177789  0  3.921438  0
C  C228  1  0.27092087  0.06099081  0.91490860  1  0.491216  0  0.06379  0.120303  0  3.896163  0
C  C229  1  0.41036103  0.04639367  0.10686043  1  1.311414  0  0.245096  0.439307  0  4.090187  0
C  C230  1  0.44815069  0.08381787  0.17291516  1  0.004779  0  -0.002055  -0.065177  0  3.980993  0
C  C231  1  0.51646948  0.04177830  0.20446141  1  0.07982  0  -0.054219  -0.04746  0  3.894251  0
C  C232  1  0.55030918  0.07383749  0.26726417  1  -0.089086  0  -0.056361  -0.053546  0  3.888396  0
C  C233  1  0.51548450  0.14779384  0.29868578  1  0.029457  0  0.000179  -0.059984  0  3.980104  0
C  C234  1  0.54972930  0.17842528  0.36490616  1  1.273893  0  0.249792  0.447324  0  4.08074  0
C  C235  1  0.44359035  0.30260750  0.36477072  1  1.277826  0  0.250559  0.447825  0  4.077498  0
C  C236  1  0.41183631  0.26908267  0.29863326  1  0.00123  0  -0.000706  -0.062951  0  3.9847  0
C  C237  1  0.34644868  0.31344059  0.26728546  1  0.00904  0  -0.055973  -0.049824  0  3.888929  0
C  C238  1  0.31465269  0.28335343  0.20442571  1  0.022845  0  -0.053122  -0.046181  0  3.88761  0
C  C239  1  0.34704347  0.20760761  0.17295867  1  0.002896  0  -0.003887  -0.070334  0  3.989155  0
C  C240  1  0.31139970  0.17610348  0.10680270  1  1.274532  0  0.246854  0.439864  0  4.088554  0
C  C241  1  0.41355690  0.16086679  0.20387821  1  0.017807  0  0.0075  0.034524  0  4.00145  0
C  C242  1  0.44718760  0.19272951  0.26767636  1  0.011569  0  0.008366  0.035096  0  3.997309  0
C  C243  1  0.58480231  0.38897361  0.55516880  1  0.442003  0  0.063149  0.116358  0  3.892698  0
C  C244  1  0.56815237  0.36659474  0.49377156  1  0.087446  0  -0.069872  -0.191141  0  3.926085  0
C  C245  1  0.53379022  0.27839701  0.45782235  1  0.314567  0  0.115495  0.244132  0  4.001879  0
C  C246  1  0.51933727  0.21499557  0.48428015  1  -0.014478  0  -0.071957  -0.194831  0  3.939929  0
C  C247  1  0.53812556  0.24277485  0.54593761  1  0.476037  0  0.060623  0.108592  0  3.927667  0
N  N248  1  0.78337983  0.01765877  0.10843150  1  -1.237847  0  -0.315563  -0.201765  0  3.508107  0
N  N249  1  0.43042069  0.67179856  0.41937908  1  -1.243244  0  -0.320187  -0.203809  0  3.523674  0
N  N250  1  0.65798171  0.90589575  0.92180036  1  -1.168229  0  -0.231325  -0.234431  0  3.55592  0
N  N251  1  0.49056371  0.74681958  0.60601257  1  -1.149459  0  -0.228749  -0.236763  0  3.555249  0
N  N252  1  0.32503555  0.51745679  0.10842961  1  -1.253593  0  -0.315668  -0.203362  0  3.508484  0
N  N253  1  0.98832230  0.17162520  0.41940617  1  -1.248245  0  -0.320593  -0.204196  0  3.522864  0
N  N254  1  0.26445649  0.40568359  0.92185706  1  -1.166375  0  -0.232153  -0.222344  0  3.540846  0
N  N255  1  0.11558604  0.24687357  0.60603269  1  -1.123297  0  -0.228254  -0.236447  0  3.550654  0
N  N256  1  0.67496326  0.48253967  0.89157183  1  -1.253681  0  -0.315752  -0.203309  0  3.508216  0
N  N257  1  0.01167790  0.82837324  0.58059341  1  -1.24819  0  -0.320568  -0.204316  0  3.522878  0
N  N258  1  0.73554224  0.59432091  0.07814375  1  -1.165758  0  -0.232182  -0.222348  0  3.540816  0
N  N259  1  0.88441286  0.75312956  0.39396676  1  -1.1232  0  -0.228249  -0.236389  0  3.550557  0
N  N260  1  0.21662394  0.98234777  0.89157109  1  -1.237556  0  -0.315575  -0.201684  0  3.50804  0
N  N261  1  0.56957433  0.32820259  0.58062183  1  -1.243312  0  -0.320126  -0.203819  0  3.523776  0
N  N262  1  0.34202368  0.09411011  0.07820169  1  -1.168224  0  -0.231276  -0.219805  0  3.538159  0
N  N263  1  0.50943517  0.25318088  0.39398728  1  -1.15004  0  -0.228841  -0.236917  0  3.555378  0
O  O264  1  0.43318866  0.46958925  0.21926909  1  -1.180857  0  -0.315902  -0.559994  0  2.364729  0
O  O265  1  0.48876765  0.52808712  0.32065932  1  -1.161194  0  -0.31077  -0.532375  0  2.331789  0
O  O266  1  0.75052776  0.15159357  0.22709423  1  -1.178067  0  -0.319205  -0.556624  0  2.34559  0
O  O267  1  0.81392834  0.21471598  0.32800510  1  -1.168229  0  -0.316332  -0.539748  0  2.308696  0
O  O268  1  0.91682610  0.18505681  0.20123482  1  -1.172483  0  -0.319771  -0.5505  0  2.307295  0
O  O269  1  0.98106216  0.22383554  0.30228623  1  -1.167953  0  -0.318339  -0.555792  0  2.350845  0
O  O270  1  0.24074387  0.50937672  0.20823234  1  -1.159768  0  -0.316811  -0.541619  0  2.317025  0
O  O271  1  0.29410126  0.54534406  0.30950687  1  -1.177681  0  -0.316478  -0.555116  0  2.370149  0
O  O272  1  0.56528437  0.02191028  0.92275139  1  -1.11015  0  -0.27737  -0.435875  0  2.064914  0
O  O273  1  0.74270459  0.78436197  0.92294754  1  -1.099421  0  -0.266766  -0.423902  0  2.081563  0
O  O274  1  0.39129444  0.85774410  0.60564426  1  -1.099181  0  -0.265323  -0.420311  0  2.074353  0
O  O275  1  0.58571261  0.63217503  0.60620643  1  -1.108587  0  -0.260666  -0.42379  0  2.107669  0
O  O276  1  0.78588437  0.96929867  0.21914173  1  -1.177152  0  -0.316499  -0.560899  0  2.362461  0
O  O277  1  0.83166914  0.02785234  0.32053453  1  -1.170382  0  -0.311134  -0.533295  0  2.331689  0
O  O278  1  0.47611376  0.65182730  0.22709788  1  -1.182895  0  -0.319548  -0.557616  0  2.344021  0
O  O279  1  0.51361849  0.71490349  0.32801390  1  -1.154531  0  -0.316545  -0.540414  0  2.307924  0
O  O280  1  0.28380402  0.68472647  0.20107758  1  -1.171816  0  -0.319667  -0.550593  0  2.308955  0
O  O281  1  0.32077928  0.72368014  0.30215481  1  -1.171654  0  -0.31837  -0.556171  0  2.351039  0
O  O282  1  0.96740109  0.00965907  0.20818345  1  -1.164571  0  -0.318612  -0.544803  0  2.314973  0
O  O283  1  0.01516177  0.04540218  0.30944645  1  -1.172453  0  -0.316166  -0.555403  0  2.370218  0
O  O284  1  0.35759414  0.52198686  0.92273287  1  -1.106665  0  -0.278369  -0.43755  0  2.066472  0
O  O285  1  0.18090772  0.28421206  0.92303710  1  -1.094649  0  -0.266582  -0.424108  0  2.083637  0
O  O286  1  0.21428181  0.35789356  0.60560241  1  -1.099318  0  -0.264825  -0.419791  0  2.072839  0
O  O287  1  0.02079268  0.13226814  0.60635976  1  -1.105046  0  -0.26156  -0.425588  0  2.105588  0
O  O288  1  0.21412137  0.03070185  0.78086151  1  -1.177262  0  -0.316518  -0.560895  0  2.36238  0
O  O289  1  0.16833221  0.97214751  0.67946909  1  -1.170439  0  -0.311165  -0.533293  0  2.331641  0
O  O290  1  0.52388876  0.34817045  0.77290049  1  -1.182866  0  -0.319551  -0.557621  0  2.343916  0
O  O291  1  0.48637924  0.28509223  0.67198363  1  -1.154469  0  -0.316563  -0.540413  0  2.308063  0
O  O292  1  0.71620072  0.31527479  0.79892955  1  -1.171289  0  -0.319577  -0.550377  0  2.308962  0
O  O293  1  0.67921177  0.27631910  0.69785159  1  -1.171408  0  -0.318367  -0.556047  0  2.351054  0
O  O294  1  0.03260084  0.99033726  0.79181073  1  -1.164375  0  -0.318545  -0.544718  0  2.314839  0
O  O295  1  0.98483569  0.95459820  0.69054922  1  -1.17257  0  -0.316131  -0.555246  0  2.370153  0
O  O296  1  0.64240220  0.47801766  0.07726900  1  -1.106614  0  -0.278435  -0.437617  0  2.066495  0
O  O297  1  0.81909290  0.71578503  0.07696207  1  -1.094624  0  -0.266578  -0.42415  0  2.083622  0
O  O298  1  0.78571060  0.64210891  0.39439742  1  -1.099322  0  -0.264879  -0.419921  0  2.072825  0
O  O299  1  0.97921106  0.86772766  0.39364237  1  -1.105095  0  -0.261527  -0.42552  0  2.105473  0
O  O300  1  0.56681023  0.53040789  0.78073249  1  -1.180911  0  -0.315934  -0.559992  0  2.364667  0
O  O301  1  0.51122880  0.47190801  0.67934237  1  -1.161225  0  -0.310696  -0.532235  0  2.331649  0
O  O302  1  0.24947534  0.84840891  0.77290659  1  -1.177975  0  -0.31915  -0.556537  0  2.345614  0
O  O303  1  0.18607360  0.78528312  0.67199421  1  -1.168234  0  -0.316268  -0.539655  0  2.308838  0
O  O304  1  0.08317379  0.81494165  0.79876583  1  -1.172241  0  -0.319825  -0.550519  0  2.307247  0
O  O305  1  0.01893870  0.77616489  0.69771215  1  -1.167762  0  -0.318313  -0.555794  0  2.3508  0
O  O306  1  0.75925605  0.49062100  0.79176413  1  -1.159644  0  -0.316941  -0.541834  0  2.317097  0
O  O307  1  0.70589973  0.45465368  0.69049136  1  -1.178169  0  -0.316473  -0.5552  0  2.370224  0
O  O308  1  0.43472360  0.97810090  0.07724828  1  -1.110272  0  -0.277305  -0.436201  0  2.066858  0
O  O309  1  0.25729115  0.21563710  0.07704973  1  -1.099493  0  -0.266902  -0.424366  0  2.083352  0
O  O310  1  0.60869447  0.14224898  0.39435524  1  -1.099018  0  -0.265367  -0.420375  0  2.074213  0
O  O311  1  0.41428334  0.36782606  0.39379126  1  -1.108559  0  -0.260661  -0.423797  0  2.10789  0
