# generated using pymatgen
data_CdH10C12(NO2)2
_symmetry_space_group_name_H-M   'P 1'
_cell_length_a   8.28717352
_cell_length_b   8.28718423
_cell_length_c   10.72202646
_cell_angle_alpha   112.75343911
_cell_angle_beta   112.75340630
_cell_angle_gamma   90.00680859
_symmetry_Int_Tables_number   1
_chemical_formula_structural   CdH10C12(NO2)2
_chemical_formula_sum   'Cd2 H20 C24 N4 O8'
_cell_volume   616.43001421
_cell_formula_units_Z   2
loop_
 _symmetry_equiv_pos_site_id
 _symmetry_equiv_pos_as_xyz
  1  'x, y, z'
loop_
 _atom_site_type_symbol
 _atom_site_label
 _atom_site_symmetry_multiplicity
 _atom_site_fract_x
 _atom_site_fract_y
 _atom_site_fract_z
 _atom_site_occupancy
 _atom_site_hle17_bader_spin_density
 _atom_site_hle17_ddec_charge
 _atom_site_hle17_ddec_spin_density
 _atom_site_hle17_ddec_sum_bond_order
 _atom_site_hle17_magmom
 _atom_site_hse06_10hf_bader_spin_density
 _atom_site_hse06_10hf_ddec_charge
 _atom_site_hse06_10hf_ddec_spin_density
 _atom_site_hse06_10hf_ddec_sum_bond_order
 _atom_site_hse06_10hf_magmom
 _atom_site_hse06_bader_spin_density
 _atom_site_hse06_ddec_charge
 _atom_site_hse06_ddec_spin_density
 _atom_site_hse06_ddec_sum_bond_order
 _atom_site_hse06_magmom
 _atom_site_pbe_bader_spin_density
 _atom_site_pbe_cm5_charge
 _atom_site_pbe_ddec_charge
 _atom_site_pbe_ddec_spin_density
 _atom_site_pbe_ddec_sum_bond_order
 _atom_site_pbe_magmom
Cd  Cd0  1  0.74996237  0.25003833  0.50000129  1  0  1.078728  0  1.737624  0  0  0.891393  0  2.185767  0  0  0.946062  0  2.137763  0  0  0.761518  0.852564  0  2.218074  0
Cd  Cd1  1  0.50005017  0.49995109  0.00000078  1  0  1.078849  0  1.739019  0  0  0.891631  0  2.186838  0  0  0.946413  0  2.138753  0  0  0.761515  0.853016  0  2.219366  0
H  H2  1  0.58305810  0.37494085  0.25005570  1  0  -0.016578  0  0.964946  0  0  -0.009889  0  1.041295  0  0  -0.00943  0  1.037386  0  0  0.093579  -0.010343  0  1.044069  0
H  H3  1  0.66711968  0.87512068  0.25001963  1  0  -0.016932  0  0.96559  0  0  -0.010046  0  1.04173  0  0  -0.009602  0  1.037885  0  0  0.093472  -0.010555  0  1.044511  0
H  H4  1  0.12488063  0.33288067  0.74998052  1  0  -0.016967  0  0.965544  0  0  -0.010092  0  1.041709  0  0  -0.009642  0  1.037853  0  0  0.093448  -0.010602  0  1.044491  0
H  H5  1  0.62505799  0.41693880  0.74994346  1  0  -0.016559  0  0.96492  0  0  -0.00985  0  1.04125  0  0  -0.00939  0  1.037341  0  0  0.093598  -0.010304  0  1.044024  0
H  H6  1  0.06954099  0.15832504  0.40652003  1  0  0.085279  0  0.953039  0  0  0.094242  0  1.017148  0  0  0.096641  0  1.015328  0  0  0.117647  0.09244  0  1.018576  0
H  H7  1  0.33677667  0.24812478  0.40631584  1  0  0.084658  0  0.954409  0  0  0.094056  0  1.017889  0  0  0.096583  0  1.015903  0  0  0.117385  0.092213  0  1.019328  0
H  H8  1  0.49814300  0.81943146  0.90641659  1  0  0.084279  0  0.954324  0  0  0.09402  0  1.017516  0  0  0.096372  0  1.015782  0  0  0.117524  0.092261  0  1.018838  0
H  H9  1  0.40818621  0.08688882  0.90637984  1  0  0.085095  0  0.953429  0  0  0.094327  0  1.017099  0  0  0.096722  0  1.015311  0  0  0.117637  0.092558  0  1.018445  0
H  H10  1  0.18057008  0.50185895  0.09358321  1  0  0.084268  0  0.954315  0  0  0.093999  0  1.01752  0  0  0.096351  0  1.015786  0  0  0.117512  0.09224  0  1.018843  0
H  H11  1  0.91311210  0.59181309  0.09361873  1  0  0.084956  0  0.953471  0  0  0.094215  0  1.017126  0  0  0.096615  0  1.015325  0  0  0.117595  0.092447  0  1.018471  0
H  H12  1  0.75187567  0.66322275  0.59368459  1  0  0.084664  0  0.954425  0  0  0.09407  0  1.017888  0  0  0.096598  0  1.015902  0  0  0.117393  0.092217  0  1.019352  0
H  H13  1  0.84167823  0.93045630  0.59348160  1  0  0.085265  0  0.953065  0  0  0.094234  0  1.017174  0  0  0.096632  0  1.015354  0  0  0.117649  0.09245  0  1.01858  0
H  H14  1  0.29552373  0.95485493  0.40815209  1  0  0.124949  0  0.96518  0  0  0.129331  0  1.033545  0  0  0.133952  0  1.030846  0  0  0.10866  0.125943  0  1.035737  0
H  H15  1  0.11242819  0.45325606  0.40788766  1  0  0.124204  0  0.966623  0  0  0.128945  0  1.034657  0  0  0.133598  0  1.03186  0  0  0.108476  0.125541  0  1.036801  0
H  H16  1  0.70328689  0.04543004  0.90802773  1  0  0.125171  0  0.965063  0  0  0.12951  0  1.033416  0  0  0.134182  0  1.030589  0  0  0.108704  0.126105  0  1.0356  0
H  H17  1  0.20476620  0.86251780  0.90805755  1  0  0.124621  0  0.965823  0  0  0.129072  0  1.034239  0  0  0.133756  0  1.031401  0  0  0.108405  0.125672  0  1.036491  0
H  H18  1  0.95457179  0.29671414  0.09197242  1  0  0.125141  0  0.965126  0  0  0.129477  0  1.033481  0  0  0.134147  0  1.030655  0  0  0.108692  0.126058  0  1.035683  0
H  H19  1  0.13748380  0.79523494  0.09194308  1  0  0.124667  0  0.965771  0  0  0.129112  0  1.034186  0  0  0.133796  0  1.031349  0  0  0.10842  0.125709  0  1.036447  0
H  H20  1  0.54674328  0.88757013  0.59211042  1  0  0.124209  0  0.966602  0  0  0.128952  0  1.034633  0  0  0.133608  0  1.031833  0  0  0.108483  0.125544  0  1.036785  0
H  H21  1  0.04514676  0.70447232  0.59184800  1  0  0.124954  0  0.965197  0  0  0.129319  0  1.033573  0  0  0.133938  0  1.030884  0  0  0.108666  0.125933  0  1.035764  0
C  C22  1  0.71719328  0.37489792  0.25001283  1  0  0.563834  0  3.963625  0  0  0.494477  0  4.271427  0  0  0.527939  0  4.264582  0  0  0.1229  0.471882  0  4.274989  0
C  C23  1  0.53293767  0.87507562  0.24999933  1  0  0.564953  0  3.965067  0  0  0.495636  0  4.272352  0  0  0.529112  0  4.265543  0  0  0.123358  0.473032  0  4.275989  0
C  C24  1  0.12492278  0.46706269  0.75000001  1  0  0.565026  0  3.964975  0  0  0.495717  0  4.272256  0  0  0.529192  0  4.265443  0  0  0.123402  0.473112  0  4.275893  0
C  C25  1  0.62510287  0.28280503  0.74998820  1  0  0.563779  0  3.963646  0  0  0.494403  0  4.271463  0  0  0.527861  0  4.264621  0  0  0.122855  0.471807  0  4.275025  0
C  C26  1  0.07321540  0.05796495  0.44936549  1  0  0.12244  0  3.715409  0  0  0.091629  0  3.966278  0  0  0.098045  0  3.985767  0  0  0.044626  0.087542  0  3.953115  0
C  C27  1  0.37597356  0.39137271  0.44920369  1  0  0.121773  0  3.714162  0  0  0.09073  0  3.965168  0  0  0.097048  0  3.984694  0  0  0.044687  0.086632  0  3.951883  0
C  C28  1  0.64138035  0.82316504  0.94928450  1  0  0.123929  0  3.716467  0  0  0.09258  0  3.967406  0  0  0.099017  0  3.986864  0  0  0.045132  0.088463  0  3.954024  0
C  C29  1  0.30785372  0.12606310  0.94926014  1  0  0.121916  0  3.714336  0  0  0.091026  0  3.965509  0  0  0.097399  0  3.98504  0  0  0.044595  0.086913  0  3.952312  0
C  C30  1  0.17683447  0.35861938  0.05071398  1  0  0.123925  0  3.7165  0  0  0.092588  0  3.967441  0  0  0.099023  0  3.986899  0  0  0.045137  0.088469  0  3.954056  0
C  C31  1  0.87393569  0.69214879  0.05073974  1  0  0.122057  0  3.714381  0  0  0.091145  0  3.965552  0  0  0.097522  0  3.985083  0  0  0.044635  0.087032  0  3.952354  0
C  C32  1  0.60862761  0.62402612  0.55079588  1  0  0.121782  0  3.714097  0  0  0.090738  0  3.965115  0  0  0.097056  0  3.984641  0  0  0.044706  0.086637  0  3.951825  0
C  C33  1  0.94203572  0.92678230  0.55063452  1  0  0.12241  0  3.715389  0  0  0.091581  0  3.966272  0  0  0.097998  0  3.985761  0  0  0.044595  0.087483  0  3.953102  0
C  C34  1  0.19644204  0.94428838  0.44980241  1  0  -0.150502  0  3.673079  0  0  -0.166646  0  3.918607  0  0  -0.17415  0  3.93895  0  0  -0.076908  -0.161814  0  3.905243  0
C  C35  1  0.25319768  0.50553425  0.44959240  1  0  -0.149299  0  3.677323  0  0  -0.165831  0  3.922419  0  0  -0.173352  0  3.942829  0  0  -0.07672  -0.160938  0  3.908807  0
C  C36  1  0.75554135  0.94639513  0.94971285  1  0  -0.151123  0  3.675871  0  0  -0.167585  0  3.921412  0  0  -0.175111  0  3.941771  0  0  -0.076907  -0.162594  0  3.907814  0
C  C37  1  0.19416129  0.00327076  0.94970223  1  0  -0.149288  0  3.673628  0  0  -0.165819  0  3.918897  0  0  -0.173334  0  3.939302  0  0  -0.076399  -0.160932  0  3.905487  0
C  C38  1  0.05360602  0.24446005  0.05028755  1  0  -0.15105  0  3.675983  0  0  -0.167512  0  3.92148  0  0  -0.175042  0  3.941854  0  0  -0.076875  -0.162513  0  3.90789  0
C  C39  1  0.99672955  0.80583989  0.05029864  1  0  -0.149331  0  3.673615  0  0  -0.165844  0  3.918889  0  0  -0.173364  0  3.939297  0  0  -0.076391  -0.160957  0  3.905479  0
C  C40  1  0.49446473  0.74680169  0.55040584  1  0  -0.149327  0  3.677266  0  0  -0.165864  0  3.922378  0  0  -0.173389  0  3.942792  0  0  -0.076779  -0.16097  0  3.908762  0
C  C41  1  0.05571202  0.80355564  0.55019782  1  0  -0.150385  0  3.673013  0  0  -0.166499  0  3.91853  0  0  -0.174004  0  3.938872  0  0  -0.076837  -0.161666  0  3.905164  0
C  C42  1  0.18709837  0.81290248  0.50000062  1  0  0.106522  0  3.735824  0  0  0.11869  0  3.961996  0  0  0.122604  0  3.983205  0  0  0.018609  0.116097  0  3.947592  0
C  C43  1  0.31281626  0.68718287  0.49999913  1  0  0.105447  0  3.743117  0  0  0.117803  0  3.968948  0  0  0.121767  0  3.990107  0  0  0.018371  0.115338  0  3.954509  0
C  C44  1  0.93715210  0.93711524  0.99998883  1  0  0.105766  0  3.739623  0  0  0.118536  0  3.964537  0  0  0.122468  0  3.985765  0  0  0.017875  0.115988  0  3.950082  0
C  C45  1  0.06288613  0.06284978  0.00001077  1  0  0.10574  0  3.739642  0  0  0.118546  0  3.964522  0  0  0.122476  0  3.985749  0  0  0.017873  0.115998  0  3.950065  0
N  N46  1  0.94923083  0.05076925  0.50000103  1  0  -0.342695  0  3.292156  0  0  -0.261481  0  3.552549  0  0  -0.281612  0  3.571678  0  0  -0.333713  -0.247847  0  3.539186  0
N  N47  1  0.55068936  0.44931139  0.50000138  1  0  -0.340937  0  3.286936  0  0  -0.259891  0  3.547742  0  0  -0.280039  0  3.56703  0  0  -0.333199  -0.246263  0  3.534404  0
N  N48  1  0.69926090  0.69927231  0.00003181  1  0  -0.342563  0  3.29233  0  0  -0.261753  0  3.553447  0  0  -0.28186  0  3.572559  0  0  -0.33367  -0.248059  0  3.540111  0
N  N49  1  0.30072936  0.30074043  0.99996864  1  0  -0.342563  0  3.292274  0  0  -0.261753  0  3.553374  0  0  -0.281857  0  3.572485  0  0  -0.333667  -0.248058  0  3.540036  0
O  O50  1  0.82674805  0.30782474  0.32822805  1  0  -0.607038  0  2.039244  0  0  -0.542129  0  2.29535  0  0  -0.570608  0  2.285825  0  0  -0.335007  -0.522037  0  2.30093  0
O  O51  1  0.50165732  0.02038583  0.32826809  1  0  -0.607416  0  2.042188  0  0  -0.54243  0  2.298183  0  0  -0.570978  0  2.288648  0  0  -0.335229  -0.522418  0  2.303839  0
O  O52  1  0.27030473  0.57661331  0.82833518  1  0  -0.60761  0  2.041049  0  0  -0.542766  0  2.297216  0  0  -0.571234  0  2.287546  0  0  -0.335194  -0.52274  0  2.302988  0
O  O53  1  0.55802861  0.25160216  0.82824453  1  0  -0.607528  0  2.041417  0  0  -0.542372  0  2.297267  0  0  -0.570841  0  2.287679  0  0  -0.335195  -0.522275  0  2.3028  0
O  O54  1  0.42338871  0.72969524  0.17166510  1  0  -0.607586  0  2.041108  0  0  -0.542741  0  2.297267  0  0  -0.571211  0  2.287594  0  0  -0.335183  -0.522716  0  2.303038  0
O  O55  1  0.74839720  0.44197162  0.17175573  1  0  -0.607531  0  2.041375  0  0  -0.542384  0  2.297241  0  0  -0.57085  0  2.28764  0  0  -0.335216  -0.522285  0  2.302773  0
O  O56  1  0.97961391  0.49834259  0.67173212  1  0  -0.607433  0  2.042224  0  0  -0.542452  0  2.298206  0  0  -0.571003  0  2.288676  0  0  -0.335238  -0.522439  0  2.303864  0
O  O57  1  0.69217637  0.17325023  0.67177207  1  0  -0.607018  0  2.039265  0  0  -0.542102  0  2.29537  0  0  -0.570586  0  2.285864  0  0  -0.335004  -0.52201  0  2.300953  0
