# generated using pymatgen
data_NiH34C24(N3O2)2
_symmetry_space_group_name_H-M   'P 1'
_cell_length_a   9.04052689
_cell_length_b   9.52526560
_cell_length_c   9.72015070
_cell_angle_alpha   124.48590926
_cell_angle_beta   96.93042561
_cell_angle_gamma   109.75933953
_symmetry_Int_Tables_number   1
_chemical_formula_structural   NiH34C24(N3O2)2
_chemical_formula_sum   'Ni1 H34 C24 N6 O4'
_cell_volume   594.45320161
_cell_formula_units_Z   1
loop_
 _symmetry_equiv_pos_site_id
 _symmetry_equiv_pos_as_xyz
  1  'x, y, z'
loop_
 _atom_site_type_symbol
 _atom_site_label
 _atom_site_symmetry_multiplicity
 _atom_site_fract_x
 _atom_site_fract_y
 _atom_site_fract_z
 _atom_site_occupancy
 _atom_site_hle17_ddec_charge
 _atom_site_hle17_ddec_spin_density
 _atom_site_hle17_ddec_sum_bond_order
 _atom_site_hle17_magmom
 _atom_site_hse06_10hf_ddec_charge
 _atom_site_hse06_10hf_ddec_spin_density
 _atom_site_hse06_10hf_ddec_sum_bond_order
 _atom_site_hse06_10hf_magmom
 _atom_site_hse06_ddec_charge
 _atom_site_hse06_ddec_spin_density
 _atom_site_hse06_ddec_sum_bond_order
 _atom_site_hse06_magmom
 _atom_site_pbe_cm5_charge
 _atom_site_pbe_ddec_charge
 _atom_site_pbe_ddec_spin_density
 _atom_site_pbe_ddec_sum_bond_order
 _atom_site_pbe_magmom
Ni  Ni0  1  0.99999624  0.99999533  0.49999148  1  0.687937  1.708153  2.105307  1.435  0.68017  1.772296  2.482053  1.551  0.765626  1.834081  2.424395  1.646  0.649176  0.620827  1.715683  2.522272  1.468
H  H1  1  0.90872652  0.99319828  0.85619364  1  0.081974  -8.3e-05  0.944714  0.0  0.09922  -5e-05  1.013355  0.0  0.100825  -5.7e-05  1.012376  0.0  0.088274  0.09819  -3.7e-05  1.014161  0.0
H  H2  1  0.09127588  0.00681229  0.14382041  1  0.081947  -8e-05  0.944634  0.0  0.099171  -5e-05  1.013319  0.0  0.100775  -5.6e-05  1.012337  0.0  0.088268  0.098146  -3.7e-05  1.014127  0.0
H  H3  1  0.72830983  0.02014009  0.89594964  1  0.08415  5.6e-05  0.98204  0.0  0.102746  7.2e-05  1.051864  0.0  0.103099  5e-05  1.052352  0.0  0.094628  0.102357  0.000121  1.051753  0.0
H  H4  1  0.27169507  0.97988195  0.10405718  1  0.084072  5.8e-05  0.982187  0.0  0.102719  7.2e-05  1.051939  0.0  0.103072  5e-05  1.052425  0.0  0.094644  0.102333  0.000121  1.051832  0.0
H  H5  1  0.93870947  0.21379450  0.05728095  1  0.089367  6.2e-05  0.955513  0.0  0.110669  6.2e-05  1.019931  0.0  0.110615  4.8e-05  1.02112  0.0  0.096758  0.110787  7.8e-05  1.019037  0.0
H  H6  1  0.06129732  0.78623757  0.94271794  1  0.089399  6.9e-05  0.955442  0.0  0.110669  6.2e-05  1.019914  0.0  0.110611  4.9e-05  1.021108  0.0  0.096762  0.110786  7.8e-05  1.01902  0.0
H  H7  1  0.72267622  0.12867680  0.59582774  1  0.057192  0.000132  0.941475  0.001  0.069233  0.00018  1.013469  0.0  0.068732  0.000109  1.014095  0.0  0.113103  0.069632  0.00022  1.012917  0.001
H  H8  1  0.27732107  0.87130146  0.40413819  1  0.057178  0.000135  0.941522  0.001  0.069191  0.00018  1.013483  0.0  0.068692  0.000109  1.014111  0.0  0.113083  0.06959  0.00022  1.012931  0.001
H  H9  1  0.60165830  0.98035114  0.64324262  1  0.046639  0.002798  0.923449  0.004  0.060194  0.002243  0.990754  0.003  0.05963  0.001663  0.991328  0.002  0.104763  0.061028  0.002743  0.989857  0.003
H  H10  1  0.39833180  0.01962602  0.35671791  1  0.046786  0.002797  0.923309  0.004  0.06022  0.002243  0.990671  0.003  0.059648  0.001663  0.991266  0.002  0.104799  0.06106  0.002743  0.989763  0.003
H  H11  1  0.99091063  0.61336990  0.19145310  1  0.058095  0.000295  0.949016  0.001  0.068855  0.000284  1.02261  0.001  0.069709  0.000175  1.020502  0.001  0.113746  0.068166  0.000436  1.024171  0.001
H  H12  1  0.00907341  0.38660355  0.80850202  1  0.058145  0.000296  0.949273  0.001  0.068901  0.000284  1.022795  0.001  0.06976  0.000175  1.020684  0.001  0.113816  0.06821  0.000436  1.02435  0.001
H  H13  1  0.90434622  0.57279508  0.98955209  1  0.040958  0.00302  0.932239  0.004  0.053138  0.002304  1.004116  0.003  0.053019  0.001716  1.003409  0.002  0.105033  0.053379  0.002931  1.004716  0.004
H  H14  1  0.09563957  0.42718491  0.01041548  1  0.040926  0.003019  0.932312  0.004  0.053131  0.002304  1.004114  0.003  0.053019  0.001715  1.003394  0.002  0.104991  0.053372  0.002931  1.004714  0.004
H  H15  1  0.61560688  0.84577498  0.28542464  1  0.071275  -4.5e-05  0.924408  0.0  0.090107  -1.5e-05  0.983522  0.0  0.09048  -2.5e-05  0.983757  0.0  0.109071  0.089733  5.1e-05  0.983429  0.0
H  H16  1  0.38438567  0.15419987  0.71454348  1  0.071176  -4.4e-05  0.924599  0.0  0.090106  -1.5e-05  0.983615  0.0  0.09048  -2.5e-05  0.983844  0.0  0.109027  0.089731  5.1e-05  0.983522  0.0
H  H17  1  0.51000898  0.65647166  0.29272798  1  0.049736  0.001838  0.953026  0.003  0.064288  0.001439  1.023122  0.002  0.064516  0.001015  1.023432  0.001  0.092847  0.064382  0.00182  1.022733  0.002
H  H18  1  0.48998897  0.34350016  0.70723834  1  0.049802  0.001832  0.953018  0.002  0.064323  0.001439  1.023164  0.002  0.064551  0.001014  1.023481  0.001  0.092835  0.064422  0.00182  1.022775  0.002
H  H19  1  0.73515471  0.55602013  0.22493705  1  0.075025  5.4e-05  0.92977  0.0  0.092448  1.6e-05  0.991185  0.0  0.092816  -6e-06  0.99193  0.0  0.107513  0.09173  3.4e-05  0.991266  0.0
H  H20  1  0.26485167  0.44396885  0.77504290  1  0.075016  5.5e-05  0.929769  0.0  0.092425  1.6e-05  0.991202  0.0  0.092793  -6e-06  0.991947  0.0  0.10748  0.091706  3.4e-05  0.991283  0.0
H  H21  1  0.62121320  0.53670987  0.04740122  1  0.049827  0.002073  0.949642  0.003  0.070818  0.001516  1.007401  0.002  0.070928  0.001104  1.007469  0.001  0.09583  0.070466  0.001881  1.008154  0.002
H  H22  1  0.37878854  0.46326825  0.95257035  1  0.049876  0.002074  0.949634  0.003  0.070859  0.001516  1.007393  0.002  0.070966  0.001104  1.007469  0.001  0.095837  0.070502  0.001881  1.008152  0.002
H  H23  1  0.90551678  0.47418613  0.68687115  1  0.08967  0.000123  0.976594  0.0  0.097981  0.000117  1.045047  0.0  0.101855  7e-05  1.041742  0.0  0.099705  0.095103  0.000246  1.047597  0.0
H  H24  1  0.09447948  0.52584338  0.31318291  1  0.089632  0.000124  0.976412  0.0  0.098007  0.000117  1.044835  0.0  0.101845  7e-05  1.041583  0.0  0.099764  0.095179  0.000246  1.047333  0.0
H  H25  1  0.72589021  0.63004526  0.76127740  1  0.093802  3.7e-05  0.961048  0.0  0.107777  7e-05  1.016882  0.0  0.110779  4.6e-05  1.015369  0.0  0.102787  0.104525  9.8e-05  1.020238  0.0
H  H26  1  0.27412853  0.37000368  0.23876460  1  0.093795  3.9e-05  0.961186  0.0  0.107763  7e-05  1.017029  0.0  0.110766  4.6e-05  1.01552  0.0  0.10277  0.1045  9.8e-05  1.020386  0.0
H  H27  1  0.62180696  0.12824520  0.11779778  1  0.09669  -2.6e-05  0.970763  0.0  0.1066  -4e-06  1.033536  0.0  0.109825  -5e-06  1.031286  0.0  0.103326  0.104287  -0.0  1.035133  0.0
H  H28  1  0.37823241  0.87178906  0.88224934  1  0.096672  -2.3e-05  0.970782  0.0  0.106599  -3e-06  1.033562  0.0  0.109825  -5e-06  1.03131  0.0  0.10331  0.104283  -0.0  1.035161  0.0
H  H29  1  0.43847305  0.27860991  0.18432667  1  0.096793  4.5e-05  0.962869  0.0  0.109236  4.2e-05  1.020682  0.0  0.112584  2.8e-05  1.018563  0.0  0.102937  0.106451  5e-05  1.022981  0.0
H  H30  1  0.56154212  0.72139394  0.81568682  1  0.096791  4.1e-05  0.963027  0.0  0.109225  4.2e-05  1.020824  0.0  0.112583  2.7e-05  1.018691  0.0  0.102919  0.106406  5e-05  1.023165  0.0
H  H31  1  0.76649968  0.81058067  0.54225224  1  0.254878  -0.002088  0.895389  -0.002  0.250702  -0.00062  0.948241  -0.001  0.255318  -0.000785  0.947235  -0.001  0.299787  0.247183  -0.000302  0.949472  0.0
H  H32  1  0.23349488  0.18939372  0.45771380  1  0.255007  -0.002088  0.895313  -0.002  0.250839  -0.000621  0.948116  -0.001  0.255456  -0.000784  0.947107  -0.001  0.299809  0.247315  -0.000303  0.949353  0.0
H  H33  1  0.85638475  0.85249128  0.18027505  1  0.260255  -0.001414  0.957667  -0.002  0.252368  -0.000394  1.011752  -0.001  0.260037  -0.000573  1.006799  -0.001  0.285648  0.246274  -0.00025  1.016337  0.0
H  H34  1  0.14361588  0.14751538  0.81972666  1  0.260252  -0.001413  0.957714  -0.002  0.252332  -0.000393  1.011812  -0.001  0.26  -0.000572  1.006859  -0.001  0.28565  0.246241  -0.000249  1.016391  0.0
C  C35  1  0.85854120  0.09654909  0.91080954  1  -0.162881  -0.000132  3.694045  0.0  -0.260109  -6e-06  3.955583  0.0  -0.256662  -3.6e-05  3.964994  0.0  -0.151119  -0.261996  0.000109  3.948472  0.0
C  C36  1  0.14146007  0.90346186  0.08918785  1  -0.162746  -0.000165  3.693963  0.0  -0.259988  -8e-06  3.955545  0.0  -0.256539  -4.3e-05  3.964961  0.0  -0.15113  -0.261869  0.000109  3.948408  0.0
C  C37  1  0.72726699  0.04729156  0.64155924  1  0.133653  -0.004022  3.658304  -0.004  0.063008  -0.001448  3.926177  -0.002  0.073852  -0.001838  3.935057  -0.002  0.024906  0.055158  -0.000953  3.919927  -0.002
C  C38  1  0.27272718  0.95268451  0.35840854  1  0.133734  -0.004036  3.658519  -0.004  0.063415  -0.001447  3.925886  -0.002  0.074244  -0.001836  3.934778  -0.002  0.025029  0.05556  -0.000952  3.919645  -0.002
C  C39  1  0.97691799  0.68627464  0.13895204  1  0.135427  -0.003964  3.677093  -0.004  0.064702  -0.001123  3.945889  -0.002  0.075612  -0.001575  3.954776  -0.002  0.024093  0.05692  -0.000888  3.939794  -0.002
C  C40  1  0.02307417  0.31370736  0.86101291  1  0.135319  -0.003963  3.677647  -0.004  0.064729  -0.001124  3.945997  -0.002  0.075638  -0.001574  3.954888  -0.002  0.024102  0.056953  -0.00089  3.939902  -0.002
C  C41  1  0.63568516  0.75648676  0.31528781  1  0.008313  -0.003272  3.645026  -0.003  -0.050187  -0.000814  3.917833  -0.001  -0.045828  -0.001266  3.929718  -0.002  -0.070877  -0.053052  -0.000315  3.909183  -0.001
C  C42  1  0.36431138  0.24348696  0.68468127  1  0.008259  -0.003253  3.645137  -0.003  -0.050346  -0.000812  3.918047  -0.001  -0.045987  -0.00126  3.929934  -0.002  -0.070899  -0.053216  -0.000314  3.909394  -0.001
C  C43  1  0.71156132  0.64132735  0.19144853  1  0.011974  -0.003566  3.644801  -0.004  -0.046419  -0.000927  3.913687  -0.002  -0.042001  -0.001377  3.925718  -0.002  -0.072239  -0.049723  -0.000269  3.905889  -0.001
C  C44  1  0.28843902  0.35865267  0.80852581  1  0.012119  -0.003575  3.64473  -0.004  -0.046303  -0.000928  3.913611  -0.002  -0.041886  -0.001375  3.925643  -0.002  -0.072157  -0.049604  -0.00027  3.905817  -0.001
C  C45  1  0.85970634  0.16431293  0.35045254  1  0.617292  -0.002258  3.931643  -0.002  0.572579  0.001188  4.235935  0.001  0.607697  0.000654  4.229219  0.001  0.197737  0.54788  0.002014  4.240219  0.002
C  C46  1  0.14029471  0.83570138  0.64960370  1  0.616937  -0.002252  3.932288  -0.002  0.572101  0.001193  4.236645  0.001  0.607218  0.000658  4.229926  0.001  0.197383  0.547402  0.002019  4.240925  0.002
C  C47  1  0.77053591  0.28412932  0.39707955  1  -0.061427  0.004505  3.751325  0.006  -0.03976  0.002926  3.983246  0.004  -0.046932  0.001892  4.005703  0.003  -0.020464  -0.034634  0.004516  3.968784  0.005
C  C48  1  0.22947375  0.71590039  0.60296974  1  -0.061352  0.004495  3.751627  0.006  -0.039363  0.002922  3.983173  0.004  -0.046532  0.001889  4.005621  0.003  -0.020283  -0.034242  0.004513  3.968722  0.005
C  C49  1  0.80095004  0.43105124  0.57795506  1  -0.072536  -0.000871  3.762321  -0.001  -0.097874  8e-05  4.016175  0.0  -0.09697  4.3e-05  4.034754  0.0  -0.089147  -0.098732  9.1e-05  4.004656  0.0
C  C50  1  0.19905063  0.56897832  0.42209322  1  -0.072531  -0.000872  3.762411  -0.001  -0.098044  8.2e-05  4.016289  0.0  -0.09712  4.5e-05  4.034875  0.0  -0.089345  -0.098941  9.2e-05  4.004743  0.0
C  C51  1  0.69827993  0.51762563  0.61846995  1  -0.121692  0.000144  3.740501  0.0  -0.140904  8.9e-05  3.994133  0.0  -0.14366  -2.6e-05  4.013094  0.0  -0.09402  -0.140028  0.000564  3.983505  0.0
C  C52  1  0.30171796  0.48240288  0.38156714  1  -0.121484  0.00013  3.740608  0.0  -0.140699  8.8e-05  3.994283  0.0  -0.143456  -2.5e-05  4.013238  0.0  -0.09386  -0.139813  0.000564  3.983656  0.0
C  C53  1  0.55969148  0.46065589  0.47912633  1  0.044433  -0.000388  3.767599  0.0  0.057184  0.000271  4.004495  0.0  0.058865  0.000134  4.026532  0.0  -0.011374  0.055668  0.000308  3.990357  0.0
C  C54  1  0.44031178  0.53935905  0.52090224  1  0.044196  -0.000373  3.767816  0.0  0.056985  0.000272  4.004679  0.0  0.058666  0.000134  4.026724  0.0  -0.011431  0.055472  0.000309  3.990525  0.0
C  C55  1  0.53941585  0.32424143  0.29804992  1  -0.122755  0.000424  3.74315  0.001  -0.141543  0.000248  3.995039  0.0  -0.144615  0.00012  4.014433  0.0  -0.091569  -0.138502  0.000513  3.981354  0.001
C  C56  1  0.46059157  0.67577023  0.70197556  1  -0.122622  0.00043  3.743648  0.001  -0.141386  0.000247  3.99548  0.0  -0.144467  0.00012  4.014876  0.0  -0.091512  -0.13832  0.000512  3.981798  0.001
C  C57  1  0.64238459  0.23796211  0.25845153  1  -0.069269  -0.000389  3.750183  0.0  -0.091816  0.000303  3.996691  0.0  -0.090866  0.000198  4.015466  0.0  -0.085202  -0.092755  0.000329  3.983933  0.001
C  C58  1  0.35763814  0.76206181  0.74158930  1  -0.069415  -0.000384  3.750554  0.0  -0.092067  0.000305  3.996995  0.0  -0.091119  0.000199  4.015777  0.0  -0.085311  -0.093001  0.00033  3.98422  0.001
N  N59  1  0.85613878  0.18090265  0.82424992  1  -0.230515  -0.000418  3.341527  0.001  -0.155098  -1.6e-05  3.615309  0.001  -0.171496  -0.000132  3.634512  0.001  -0.351094  -0.142928  0.000202  3.601578  0.001
N  N60  1  0.14385475  0.81907723  0.17571738  1  -0.230824  -0.000412  3.341767  0.001  -0.155369  -1.5e-05  3.615491  0.001  -0.171761  -0.000128  3.634682  0.001  -0.35119  -0.1432  0.000202  3.601768  0.001
N  N61  1  0.76051245  0.89111311  0.50555507  1  -0.396693  0.055335  3.246946  0.086  -0.351386  0.038419  3.516156  0.061  -0.378559  0.030432  3.530789  0.051  -0.489509  -0.331689  0.043868  3.505785  0.066
N  N62  1  0.23947998  0.10886149  0.49441188  1  -0.396957  0.055325  3.247013  0.086  -0.35172  0.038413  3.516288  0.061  -0.378867  0.030423  3.53085  0.051  -0.489513  -0.332015  0.043862  3.505941  0.066
N  N63  1  0.87659686  0.77965309  0.22345453  1  -0.416045  0.057069  3.279675  0.089  -0.368571  0.038258  3.545935  0.06  -0.397212  0.030432  3.559233  0.051  -0.506516  -0.348357  0.043972  3.536641  0.065
N  N64  1  0.12340240  0.22033482  0.77652629  1  -0.416316  0.057068  3.280244  0.089  -0.368696  0.038259  3.546209  0.06  -0.397346  0.030431  3.559527  0.051  -0.506588  -0.348498  0.043975  3.536941  0.065
O  O65  1  0.96519291  0.20639254  0.48622105  1  -0.620439  0.039707  2.041817  0.066  -0.588754  0.027762  2.312606  0.047  -0.623999  0.019969  2.306124  0.036  -0.324644  -0.562131  0.035625  2.316241  0.057
O  O66  1  0.03479551  0.79359998  0.51381804  1  -0.620551  0.039697  2.041513  0.066  -0.588848  0.027751  2.312372  0.047  -0.62409  0.01996  2.305886  0.036  -0.324661  -0.56223  0.035616  2.316018  0.057
O  O67  1  0.81701674  0.02553530  0.18355499  1  -0.616908  0.001157  1.925978  0.003  -0.571447  0.001382  2.148543  0.003  -0.594735  0.000762  2.140722  0.002  -0.329285  -0.555116  0.002354  2.154939  0.004
O  O68  1  0.18297086  0.97446846  0.81648790  1  -0.616428  0.001161  1.926384  0.003  -0.571034  0.001385  2.149061  0.003  -0.59432  0.000765  2.14124  0.002  -0.329008  -0.554699  0.002358  2.155437  0.004
