# generated using pymatgen
data_CuH36C16S4(ClO6)2
_symmetry_space_group_name_H-M   'P 1'
_cell_length_a   7.79022243
_cell_length_b   8.76385961
_cell_length_c   11.43921829
_cell_angle_alpha   98.75491984
_cell_angle_beta   97.32465201
_cell_angle_gamma   114.41316654
_symmetry_Int_Tables_number   1
_chemical_formula_structural   CuH36C16S4(ClO6)2
_chemical_formula_sum   'Cu1 H36 C16 S4 Cl2 O12'
_cell_volume   686.95862275
_cell_formula_units_Z   1
loop_
 _symmetry_equiv_pos_site_id
 _symmetry_equiv_pos_as_xyz
  1  'x, y, z'
loop_
 _atom_site_type_symbol
 _atom_site_label
 _atom_site_symmetry_multiplicity
 _atom_site_fract_x
 _atom_site_fract_y
 _atom_site_fract_z
 _atom_site_occupancy
 _atom_site_hle17_ddec_charge
 _atom_site_hle17_ddec_spin_density
 _atom_site_hle17_ddec_sum_bond_order
 _atom_site_hle17_magmom
 _atom_site_hse06_10hf_ddec_charge
 _atom_site_hse06_10hf_ddec_spin_density
 _atom_site_hse06_10hf_ddec_sum_bond_order
 _atom_site_hse06_10hf_magmom
 _atom_site_hse06_ddec_charge
 _atom_site_hse06_ddec_spin_density
 _atom_site_hse06_ddec_sum_bond_order
 _atom_site_hse06_magmom
 _atom_site_pbe_cm5_charge
 _atom_site_pbe_ddec_charge
 _atom_site_pbe_ddec_spin_density
 _atom_site_pbe_ddec_sum_bond_order
 _atom_site_pbe_magmom
Cu  Cu0  1  0.50000018  0.00000156  0.50000160  1  0.999595  0.677092  1.710815  0.508  1.015022  0.783017  2.085643  0.639  1.097659  0.849943  2.0289  0.73  0.704226  0.950589  0.733295  2.145953  0.578
H  H1  1  0.55759440  0.38014593  0.01528071  1  0.099376  2e-05  0.967556  0.0  0.121332  5e-06  1.029213  0.0  0.121906  -3e-06  1.030602  0.0  0.088888  0.120876  1.7e-05  1.028292  0.0
H  H2  1  0.44240468  0.61985451  0.98471620  1  0.099308  2.2e-05  0.967586  0.0  0.121291  5e-06  1.029244  0.0  0.121865  -3e-06  1.030631  0.0  0.088883  0.120833  1.7e-05  1.028325  0.0
H  H3  1  0.74392972  0.57030401  0.99462547  1  0.086498  1e-06  0.965155  0.0  0.109063  5e-06  1.027714  0.0  0.109772  1e-06  1.028737  0.0  0.082655  0.108505  1.1e-05  1.027047  0.0
H  H4  1  0.25606871  0.42969772  0.00537154  1  0.086445  -2e-06  0.965171  0.0  0.109027  5e-06  1.027716  0.0  0.109729  1e-06  1.028749  0.0  0.082648  0.108466  1.1e-05  1.027055  0.0
H  H5  1  0.77111935  0.37735685  0.98145987  1  0.099792  -1.5e-05  0.960517  0.0  0.119572  -7e-06  1.024427  0.0  0.120728  -4e-06  1.02488  0.0  0.086637  0.118695  -1e-05  1.024147  0.0
H  H6  1  0.22887909  0.62264489  0.01853801  1  0.099807  -1.5e-05  0.960425  0.0  0.119564  -7e-06  1.024378  0.0  0.120719  -4e-06  1.024829  0.0  0.086644  0.118687  -1e-05  1.024098  0.0
H  H7  1  0.49672284  0.23923867  0.79582679  1  0.078714  5e-06  0.926199  0.0  0.09682  1.2e-05  0.982944  0.0  0.097881  5e-06  0.982977  0.0  0.092476  0.095986  1.9e-05  0.983007  0.0
H  H8  1  0.50327754  0.76076178  0.20417023  1  0.078698  9e-06  0.926193  0.0  0.096816  1.2e-05  0.982929  0.0  0.097879  5e-06  0.982962  0.0  0.092464  0.095981  1.9e-05  0.982992  0.0
H  H9  1  0.47242010  0.43287336  0.80974578  1  0.063612  0.0  0.936564  0.0  0.08394  1.2e-05  0.995157  0.0  0.084262  1e-05  0.996075  0.0  0.08955  0.083603  1.5e-05  0.994651  0.0
H  H10  1  0.52757833  0.56712837  0.19025122  1  0.063558  5e-06  0.936586  0.0  0.08393  1.2e-05  0.995128  0.0  0.084252  1e-05  0.996045  0.0  0.089551  0.083592  1.5e-05  0.994621  0.0
H  H11  1  0.84325995  0.40001670  0.77374545  1  0.117927  -1.5e-05  0.929287  0.0  0.131124  7.1e-05  0.988588  0.0  0.132635  4.3e-05  0.988576  0.0  0.104704  0.129936  0.000106  0.988838  0.0
H  H12  1  0.15674039  0.59998889  0.22625214  1  0.11792  -2.3e-05  0.929284  0.0  0.131158  7.2e-05  0.98856  0.0  0.13267  4.2e-05  0.988547  0.0  0.104722  0.129967  0.000106  0.988808  0.0
H  H13  1  0.80989682  0.58802433  0.77504807  1  0.113486  -3.2e-05  0.946198  0.0  0.12717  1.9e-05  1.008312  0.0  0.128284  1.2e-05  1.008622  0.0  0.104651  0.126225  2.6e-05  1.008344  0.0
H  H14  1  0.19010095  0.41197869  0.22494902  1  0.113563  -3.3e-05  0.946098  0.0  0.127226  1.9e-05  1.008273  0.0  0.128341  1.2e-05  1.008585  0.0  0.104654  0.126279  2.6e-05  1.008307  0.0
H  H15  1  0.44249351  0.51062842  0.62520177  1  0.131422  -0.000317  0.928817  0.0  0.144159  -9.7e-05  0.986058  0.0  0.145849  -0.000107  0.985798  0.0  0.108899  0.142811  -5.6e-05  0.98651  0.0
H  H16  1  0.55750496  0.48937076  0.37479670  1  0.131403  -0.000329  0.92884  0.0  0.144127  -9.6e-05  0.986111  0.0  0.145811  -0.000107  0.985852  0.0  0.108888  0.142778  -5.6e-05  0.98656  0.0
H  H17  1  0.66639534  0.65302491  0.59385178  1  0.103639  0.000722  0.990341  0.001  0.10837  0.000716  1.067485  0.001  0.109563  0.000464  1.068372  0.001  0.098289  0.107329  0.000929  1.067141  0.001
H  H18  1  0.33360248  0.34697296  0.40614474  1  0.103712  0.000711  0.990261  0.001  0.10845  0.000716  1.067393  0.001  0.109641  0.000463  1.068281  0.001  0.098332  0.107408  0.000929  1.06705  0.001
H  H19  1  0.09672803  0.19019962  0.57235589  1  0.139645  -6e-05  0.899427  0.0  0.157593  -3.6e-05  0.947747  0.0  0.159665  -5.7e-05  0.94701  0.0  0.116112  0.15602  1.3e-05  0.948429  0.0
H  H20  1  0.90327049  0.80979700  0.42764404  1  0.139687  -5.9e-05  0.899417  0.0  0.157598  -3.5e-05  0.947763  0.0  0.159669  -5.6e-05  0.947026  0.0  0.116107  0.156024  1.3e-05  0.948443  0.0
H  H21  1  0.15459871  0.02153644  0.60936676  1  0.13633  0.000224  0.937535  0.0  0.144693  0.000165  1.003982  0.0  0.146524  6.1e-05  1.003031  0.0  0.1113  0.143363  0.000267  1.00466  0.001
H  H22  1  0.84540048  0.97846150  0.39063512  1  0.136325  0.000226  0.937535  0.0  0.144674  0.000165  1.003992  0.0  0.146504  6.1e-05  1.003041  0.0  0.111279  0.143344  0.000267  1.004669  0.001
H  H23  1  0.08092123  0.04640000  0.82259272  1  0.124883  0.000644  0.933231  0.001  0.139965  0.000711  0.99203  0.001  0.141026  0.00051  0.992561  0.001  0.109273  0.138979  0.000861  0.992038  0.001
H  H24  1  0.91908242  0.95360436  0.17740939  1  0.124868  0.000643  0.933274  0.001  0.139966  0.00071  0.992046  0.001  0.141025  0.000511  0.992576  0.001  0.109281  0.138979  0.000861  0.992057  0.001
H  H25  1  0.07049557  0.24081347  0.79631709  1  0.121634  -0.000338  0.917644  0.0  0.13889  -0.000112  0.971642  0.0  0.14044  -0.000123  0.971547  0.0  0.111434  0.137721  -7.1e-05  0.971907  0.0
H  H26  1  0.92950481  0.75918957  0.20368197  1  0.121655  -0.000341  0.917618  0.0  0.138859  -0.000111  0.971678  0.0  0.140407  -0.000123  0.971584  0.0  0.111396  0.137691  -7.1e-05  0.971943  0.0
H  H27  1  0.92081817  0.17514243  0.97053423  1  0.073027  0.000176  0.948415  0.0  0.091726  8.1e-05  1.009585  0.0  0.092167  4e-05  1.009674  0.0  0.094096  0.091292  0.000121  1.009707  0.0
H  H28  1  0.07918608  0.82486319  0.02946632  1  0.073082  0.000182  0.948384  0.0  0.091719  8.1e-05  1.009615  0.0  0.092169  3.9e-05  1.009693  0.0  0.09409  0.091285  0.000121  1.009737  0.0
H  H29  1  0.73431371  0.12615790  0.84628321  1  0.078165  7.3e-05  0.935345  0.0  0.099373  6.6e-05  0.989191  0.0  0.099639  4e-05  0.990497  0.0  0.096501  0.099052  9e-05  0.988434  0.0
H  H30  1  0.26568995  0.87384388  0.15371773  1  0.078136  8e-05  0.935361  0.0  0.09935  6.6e-05  0.989201  0.0  0.099616  4e-05  0.990508  0.0  0.096493  0.099028  9e-05  0.988442  0.0
H  H31  1  0.64955171  0.90056409  0.96821065  1  0.113239  -6e-06  0.942665  0.0  0.13814  7e-06  0.995382  0.0  0.139496  3e-06  0.99546  0.0  0.092885  0.13708  1.2e-05  0.995454  0.0
H  H32  1  0.35045517  0.09944157  0.03179275  1  0.113229  -2e-06  0.942684  0.0  0.138128  7e-06  0.995406  0.0  0.139482  3e-06  0.995487  0.0  0.092891  0.137067  1.2e-05  0.995481  0.0
H  H33  1  0.84255097  0.85546350  0.93277306  1  0.086667  1.3e-05  0.9767  0.0  0.110085  1.8e-05  1.039286  0.0  0.110735  1.2e-05  1.040461  0.0  0.081445  0.10954  2.4e-05  1.038562  0.0
H  H34  1  0.15745269  0.14454087  0.06722993  1  0.086693  1.2e-05  0.976693  0.0  0.110095  1.8e-05  1.03929  0.0  0.110743  1.3e-05  1.040463  0.0  0.081437  0.109553  2.4e-05  1.038569  0.0
H  H35  1  0.64223470  0.81274402  0.81689854  1  0.093699  6.4e-05  0.973414  0.0  0.11223  3.9e-05  1.042061  0.0  0.112987  3.1e-05  1.043252  0.0  0.079259  0.111557  4.9e-05  1.041381  0.0
H  H36  1  0.35776964  0.18725908  0.18310610  1  0.093738  5.9e-05  0.973356  0.0  0.112259  3.9e-05  1.04202  0.0  0.113016  3e-05  1.043212  0.0  0.079279  0.111586  4.9e-05  1.041336  0.0
C  C37  1  0.66746402  0.42976674  0.96190195  1  -0.284041  2.3e-05  3.695224  0.0  -0.358831  -2.5e-05  3.940043  0.0  -0.361579  -3.5e-05  3.952017  0.0  -0.244552  -0.356646  -6e-06  3.931693  0.0
C  C38  1  0.33253570  0.57023499  0.03809516  1  -0.283925  2.7e-05  3.695132  0.0  -0.358727  -2.5e-05  3.939929  0.0  -0.361468  -3.5e-05  3.951909  0.0  -0.244541  -0.356547  -6e-06  3.9316  0.0
C  C39  1  0.57687265  0.38002117  0.82671038  1  -0.048993  -0.000137  3.703744  0.0  -0.084608  -7e-05  3.963745  0.0  -0.084717  -9.7e-05  3.978242  0.0  -0.167564  -0.084302  1e-06  3.95358  0.0
C  C40  1  0.42312709  0.61998057  0.17328761  1  -0.048908  -0.000165  3.703688  0.0  -0.084533  -6.9e-05  3.963738  0.0  -0.084645  -9.7e-05  3.978238  0.0  -0.167556  -0.084235  0.0  3.953568  0.0
C  C41  1  0.73406781  0.44692822  0.75548723  1  -0.23629  0.001028  3.583432  0.001  -0.269711  0.000599  3.840537  0.001  -0.271472  0.000245  3.850632  0.0  -0.152697  -0.268532  0.000946  3.833813  0.001
C  C42  1  0.26593126  0.55307480  0.24451085  1  -0.23638  0.001036  3.583383  0.001  -0.26993  0.000599  3.840693  0.001  -0.271697  0.000246  3.850795  0.0  -0.152731  -0.268744  0.000946  3.833963  0.001
C  C43  1  0.54687329  0.52286750  0.56671165  1  -0.221062  0.008948  3.601952  0.01  -0.252572  0.005704  3.852912  0.006  -0.255513  0.00363  3.863705  0.004  -0.154942  -0.250572  0.007396  3.845892  0.008
C  C44  1  0.45312514  0.47713423  0.43328536  1  -0.221165  0.008996  3.601999  0.01  -0.25269  0.005703  3.852984  0.006  -0.25562  0.00363  3.863765  0.004  -0.154975  -0.25069  0.007397  3.845962  0.008
C  C45  1  0.04233105  0.05107987  0.56520788  1  -0.226567  0.000774  3.597933  0.001  -0.262273  0.000462  3.854478  0.001  -0.263898  6.2e-05  3.863101  0.0  -0.15327  -0.26108  0.000893  3.848628  0.001
C  C46  1  0.95766750  0.94891678  0.43479381  1  -0.226638  0.000772  3.597971  0.001  -0.262272  0.000459  3.854455  0.001  -0.263893  6.2e-05  3.863074  0.0  -0.153232  -0.261076  0.000893  3.8486  0.001
C  C47  1  0.98494569  0.10593797  0.79957460  1  -0.242732  0.007995  3.582555  0.008  -0.281024  0.005226  3.845513  0.006  -0.283933  0.00356  3.85611  0.004  -0.145582  -0.279237  0.00649  3.838775  0.007
C  C48  1  0.01505730  0.89406508  0.20042555  1  -0.242738  0.008009  3.582675  0.008  -0.281014  0.005225  3.845627  0.006  -0.283914  0.00356  3.856219  0.004  -0.145553  -0.279233  0.00649  3.838896  0.007
C  C49  1  0.84179804  0.08519192  0.88275543  1  -0.053442  -0.000696  3.699023  -0.001  -0.088435  -0.000221  3.956066  0.0  -0.088385  -0.00019  3.970401  0.0  -0.165626  -0.08824  -0.000221  3.946224  0.0
C  C50  1  0.15820368  0.91481115  0.11724636  1  -0.053453  -0.000748  3.699096  -0.001  -0.0884  -0.000219  3.956113  0.0  -0.088357  -0.000191  3.970442  0.0  -0.165615  -0.088204  -0.000221  3.946268  0.0
C  C51  1  0.73864380  0.90268770  0.90098878  1  -0.291257  3.8e-05  3.689186  0.0  -0.366523  5.7e-05  3.930947  0.0  -0.369323  3.1e-05  3.942856  0.0  -0.251883  -0.364312  8.6e-05  3.922782  0.0
C  C52  1  0.26136183  0.09731540  0.09901509  1  -0.291304  4.8e-05  3.689222  0.0  -0.366544  5.7e-05  3.930981  0.0  -0.369338  3.2e-05  3.94289  0.0  -0.251886  -0.364339  8.6e-05  3.922821  0.0
S  S53  1  0.65422750  0.38018947  0.59161224  1  0.695999  0.002955  3.38232  0.0  0.658131  0.002857  3.819251  0.0  0.675254  0.000114  3.816635  -0.001  0.311672  0.646594  0.005969  3.81994  0.001
S  S54  1  0.34577290  0.61981099  0.40838566  1  0.696039  0.002947  3.382268  0.0  0.658214  0.002859  3.819236  0.0  0.675338  0.000114  3.816615  -0.001  0.311673  0.646672  0.00597  3.819922  0.001
S  S55  1  0.85132921  0.99267304  0.64766245  1  0.680065  0.00202  3.47872  -0.001  0.654386  0.002866  3.915836  0.001  0.671158  0.000426  3.91356  0.0  0.318248  0.64293  0.005584  3.916338  0.002
S  S56  1  0.14866867  0.00732488  0.35233845  1  0.680084  0.002017  3.478783  -0.001  0.65441  0.002868  3.91586  0.001  0.671178  0.000426  3.913582  0.0  0.318258  0.642954  0.005584  3.916353  0.002
Cl  Cl57  1  0.19994647  0.73931585  0.71478482  1  1.390202  -0.000189  6.203291  0.0  1.337013  -0.000243  6.764674  0.0  1.388805  -0.000195  6.741487  0.0  0.717452  1.301095  -0.000259  6.779238  0.0
Cl  Cl58  1  0.80005409  0.26067698  0.28521922  1  1.390336  -0.000186  6.203162  0.0  1.3371  -0.000244  6.764611  0.0  1.388894  -0.000203  6.74142  0.0  0.717466  1.301181  -0.000259  6.779181  0.0
O  O59  1  0.47070324  0.20548990  0.56584985  1  -0.642068  0.072266  2.049354  0.099  -0.608245  0.047303  2.367558  0.07  -0.643934  0.0355  2.359851  0.057  -0.358626  -0.582511  0.054446  2.372246  0.076
O  O60  1  0.52929203  0.79451060  0.43415112  1  -0.642101  0.072263  2.049267  0.099  -0.60828  0.0473  2.367465  0.07  -0.643968  0.035498  2.359755  0.057  -0.358671  -0.582545  0.054445  2.372153  0.076
O  O61  1  0.74768543  0.10188367  0.61454494  1  -0.62514  0.067272  2.064009  0.092  -0.590886  0.04448  2.3797  0.066  -0.625042  0.033414  2.370334  0.054  -0.354938  -0.565842  0.051411  2.38507  0.072
O  O62  1  0.25231437  0.89811553  0.38545539  1  -0.625126  0.067271  2.063966  0.092  -0.590877  0.044481  2.379655  0.066  -0.625031  0.033415  2.370287  0.054  -0.354944  -0.565831  0.051416  2.385019  0.072
O  O63  1  0.19418318  0.82051843  0.83494124  1  -0.55291  -9e-05  1.825502  0.0  -0.523867  -0.000105  2.058847  0.0  -0.539457  -0.00012  2.046812  0.0  -0.321451  -0.512953  -8.5e-05  2.066856  0.0
O  O64  1  0.80580504  0.17947306  0.16505814  1  -0.552932  -0.00016  1.825384  0.0  -0.52387  -0.000102  2.058724  0.0  -0.539461  -9.8e-05  2.046688  0.0  -0.321418  -0.512958  -8.5e-05  2.066734  0.0
O  O65  1  0.02597219  0.70801266  0.62844108  1  -0.572886  -9e-05  1.87272  0.0  -0.545999  -0.000143  2.127437  0.0  -0.562419  -0.000197  2.116041  0.0  -0.325832  -0.534339  -4.1e-05  2.134752  0.0
O  O66  1  0.97402960  0.29197233  0.37155344  1  -0.572962  -4.3e-05  1.872805  0.0  -0.546064  -0.000145  2.127574  0.0  -0.562463  -0.000218  2.116127  0.0  -0.325823  -0.534406  -4.1e-05  2.134892  0.0
O  O67  1  0.20899436  0.57675131  0.71820657  1  -0.547322  -4.6e-05  1.803764  0.0  -0.521843  -0.000103  2.037902  0.0  -0.53635  -0.000117  2.024775  0.0  -0.325341  -0.511711  -5.7e-05  2.046694  0.0
O  O68  1  0.79101010  0.42324412  0.28180072  1  -0.547444  -4.2e-05  1.803707  0.0  -0.521911  -9.9e-05  2.037812  0.0  -0.536417  -0.00012  2.02468  0.0  -0.325415  -0.51178  -5.7e-05  2.046604  0.0
O  O69  1  0.37068063  0.85547884  0.67677908  1  -0.58309  -0.001747  1.893344  0.0  -0.576437  -0.00183  2.17324  0.0  -0.59156  -0.001939  2.155066  0.0  -0.326223  -0.564158  -0.001628  2.184974  0.0
O  O70  1  0.62931928  0.14451268  0.32322389  1  -0.583025  -0.00176  1.893409  0.0  -0.576389  -0.001832  2.17333  0.0  -0.591525  -0.00193  2.155179  0.0  -0.326202  -0.564108  -0.001628  2.185059  0.0
