# generated using pymatgen
data_CsH2C5N3O5
_symmetry_space_group_name_H-M   'P 1'
_cell_length_a   4.23576156
_cell_length_b   14.04725550
_cell_length_c   15.02236967
_cell_angle_alpha   89.99997365
_cell_angle_beta   89.99982082
_cell_angle_gamma   94.65047894
_symmetry_Int_Tables_number   1
_chemical_formula_structural   CsH2C5N3O5
_chemical_formula_sum   'Cs4 H8 C20 N12 O20'
_cell_volume   890.90070687
_cell_formula_units_Z   4
loop_
 _symmetry_equiv_pos_site_id
 _symmetry_equiv_pos_as_xyz
  1  'x, y, z'
loop_
 _atom_site_type_symbol
 _atom_site_label
 _atom_site_symmetry_multiplicity
 _atom_site_fract_x
 _atom_site_fract_y
 _atom_site_fract_z
 _atom_site_occupancy
 _atom_site_hle17_bader_spin_density
 _atom_site_hle17_ddec_charge
 _atom_site_hle17_ddec_spin_density
 _atom_site_hle17_ddec_sum_bond_order
 _atom_site_hle17_magmom
 _atom_site_hse06_10hf_bader_spin_density
 _atom_site_hse06_10hf_ddec_charge
 _atom_site_hse06_10hf_ddec_spin_density
 _atom_site_hse06_10hf_ddec_sum_bond_order
 _atom_site_hse06_10hf_magmom
 _atom_site_hse06_bader_spin_density
 _atom_site_hse06_ddec_charge
 _atom_site_hse06_ddec_spin_density
 _atom_site_hse06_ddec_sum_bond_order
 _atom_site_hse06_magmom
 _atom_site_pbe_bader_spin_density
 _atom_site_pbe_cm5_charge
 _atom_site_pbe_ddec_charge
 _atom_site_pbe_ddec_spin_density
 _atom_site_pbe_ddec_sum_bond_order
 _atom_site_pbe_magmom
Cs  Cs0  1  0.57465142  0.19256004  0.42457054  1  0  0.921304  0  0.65235  0  0  0.846342  0  0.923948  0  0  0.864465  0  0.897154  0  0  0.950037  0.833275  0  0.942672  0
Cs  Cs1  1  0.42534997  0.30743975  0.92457159  1  0  0.921306  0  0.652343  0  0  0.846346  0  0.923937  0  0  0.864465  0  0.897147  0  0  0.950061  0.833292  0  0.942663  0
Cs  Cs2  1  0.42534988  0.80744044  0.57542949  1  0  0.921304  0  0.652337  0  0  0.846342  0  0.923936  0  0  0.864468  0  0.897138  0  0  0.950035  0.833283  0  0.942662  0
Cs  Cs3  1  0.57465096  0.69255931  0.07542844  1  0  0.921313  0  0.652338  0  0  0.846357  0  0.923931  0  0  0.864476  0  0.897148  0  0  0.950069  0.833303  0  0.942658  0
H  H4  1  0.96734405  0.78137043  0.26688806  1  0  0.106586  0  0.934666  0  0  0.107804  0  1.006092  0  0  0.111795  0  1.000884  0  0  0.128644  0.104907  0  1.009821  0
H  H5  1  0.03265446  0.71862846  0.76688816  1  0  0.106573  0  0.934675  0  0  0.107791  0  1.006098  0  0  0.11178  0  1.000897  0  0  0.128649  0.104895  0  1.009828  0
H  H6  1  0.03265508  0.21863077  0.73311197  1  0  0.106538  0  0.934721  0  0  0.10776  0  1.006136  0  0  0.111747  0  1.000932  0  0  0.12862  0.104864  0  1.009865  0
H  H7  1  0.96734393  0.28136988  0.23311253  1  0  0.106571  0  0.934687  0  0  0.107793  0  1.006101  0  0  0.111779  0  1.0009  0  0  0.128645  0.104896  0  1.00983  0
H  H8  1  0.29785646  0.95069562  0.05457561  1  0  0.094266  0  0.939085  0  0  0.096507  0  1.010625  0  0  0.10036  0  1.005159  0  0  0.123269  0.09374  0  1.01448  0
H  H9  1  0.70214462  0.54930415  0.55457652  1  0  0.094288  0  0.93908  0  0  0.096511  0  1.010647  0  0  0.100367  0  1.005176  0  0  0.123255  0.093739  0  1.014501  0
H  H10  1  0.70214285  0.04930629  0.94542442  1  0  0.094317  0  0.939034  0  0  0.096528  0  1.010624  0  0  0.100384  0  1.00515  0  0  0.123255  0.09376  0  1.01448  0
H  H11  1  0.29785886  0.45069562  0.44542351  1  0  0.094247  0  0.939095  0  0  0.0965  0  1.010615  0  0  0.100351  0  1.005152  0  0  0.123281  0.09373  0  1.014469  0
C  C12  1  0.07693579  0.02954835  0.26310958  1  0  0.365963  0  3.898422  0  0  0.340196  0  4.176473  0  0  0.364963  0  4.184879  0  0  0.120012  0.324055  0  4.170142  0
C  C13  1  0.92306469  0.47045014  0.76311079  1  0  0.365904  0  3.898246  0  0  0.340066  0  4.176435  0  0  0.364834  0  4.18484  0  0  0.119932  0.323928  0  4.170106  0
C  C14  1  0.92306315  0.97045214  0.73689045  1  0  0.365967  0  3.8984  0  0  0.340184  0  4.176444  0  0  0.364951  0  4.18485  0  0  0.120012  0.324045  0  4.170115  0
C  C15  1  0.07693407  0.52954963  0.23688924  1  0  0.365985  0  3.898378  0  0  0.340123  0  4.176533  0  0  0.36489  0  4.184942  0  0  0.119969  0.323984  0  4.170201  0
C  C16  1  0.99351820  0.93185099  0.29280070  1  0  -0.098008  0  3.619946  0  0  -0.1144  0  3.874262  0  0  -0.1307  0  3.896569  0  0  0.065835  -0.104096  0  3.859457  0
C  C17  1  0.00648002  0.56814788  0.79280156  1  0  -0.097932  0  3.619919  0  0  -0.114347  0  3.874255  0  0  -0.130647  0  3.896563  0  0  0.065848  -0.104046  0  3.859456  0
C  C18  1  0.00648093  0.06815021  0.70719733  1  0  -0.09801  0  3.619999  0  0  -0.114371  0  3.874275  0  0  -0.13067  0  3.89658  0  0  0.065864  -0.104066  0  3.85947  0
C  C19  1  0.99351619  0.43185117  0.20719980  1  0  -0.098038  0  3.620042  0  0  -0.114367  0  3.874281  0  0  -0.130669  0  3.896591  0  0  0.06586  -0.104066  0  3.859479  0
C  C20  1  0.02997295  0.85255346  0.23974294  1  0  0.122628  0  3.728357  0  0  0.081526  0  4.002722  0  0  0.096244  0  4.015682  0  0  0.052542  0.072201  0  3.993507  0
C  C21  1  0.97002822  0.64744545  0.73974424  1  0  0.122731  0  3.728376  0  0  0.081637  0  4.002739  0  0  0.096354  0  4.015698  0  0  0.052587  0.07231  0  3.993531  0
C  C22  1  0.97002636  0.14744845  0.76025709  1  0  0.122699  0  3.728479  0  0  0.08159  0  4.002838  0  0  0.096312  0  4.015794  0  0  0.05258  0.072262  0  3.993628  0
C  C23  1  0.02997035  0.35255360  0.26025645  1  0  0.122693  0  3.728384  0  0  0.08158  0  4.002746  0  0  0.096301  0  4.015704  0  0  0.052554  0.072253  0  3.993534  0
C  C24  1  0.21058157  0.94582739  0.12292505  1  0  0.127247  0  3.738297  0  0  0.087303  0  4.011399  0  0  0.101975  0  4.024366  0  0  0.055273  0.078243  0  4.002238  0
C  C25  1  0.78942092  0.55417161  0.62292589  1  0  0.127245  0  3.738355  0  0  0.087306  0  4.011437  0  0  0.101976  0  4.024408  0  0  0.055288  0.078252  0  4.002268  0
C  C26  1  0.78941756  0.05417380  0.87707431  1  0  0.127226  0  3.738375  0  0  0.087297  0  4.01144  0  0  0.101968  0  4.02441  0  0  0.055294  0.07824  0  4.00228  0
C  C27  1  0.21058256  0.44582816  0.37707481  1  0  0.12734  0  3.738253  0  0  0.087376  0  4.011352  0  0  0.10205  0  4.024319  0  0  0.05529  0.078317  0  4.002185  0
C  C28  1  0.19936788  0.02907334  0.17236020  1  0  -0.106386  0  3.619878  0  0  -0.119524  0  3.879772  0  0  -0.135469  0  3.902993  0  0  0.05859  -0.110503  0  3.864916  0
C  C29  1  0.80063617  0.47092593  0.67236151  1  0  -0.106396  0  3.619885  0  0  -0.119509  0  3.879793  0  0  -0.135454  0  3.903016  0  0  0.058589  -0.110489  0  3.864934  0
C  C30  1  0.80063125  0.97092786  0.82763984  1  0  -0.106418  0  3.619969  0  0  -0.119541  0  3.87985  0  0  -0.135486  0  3.903074  0  0  0.058553  -0.110527  0  3.864999  0
C  C31  1  0.19936694  0.52907241  0.32763919  1  0  -0.106457  0  3.619911  0  0  -0.11954  0  3.879793  0  0  -0.135485  0  3.903015  0  0  0.058561  -0.11052  0  3.864934  0
N  N32  1  0.13033853  0.85782117  0.15487945  1  0  -0.388698  0  3.139673  0  0  -0.351633  0  3.428147  0  0  -0.37226  0  3.443518  0  0  -0.434979  -0.337519  0  3.41692  0
N  N33  1  0.86966124  0.64217781  0.65488085  1  0  -0.388769  0  3.139714  0  0  -0.351711  0  3.428186  0  0  -0.372337  0  3.443557  0  0  -0.435012  -0.337594  0  3.416958  0
N  N34  1  0.86966296  0.14218003  0.84511925  1  0  -0.388741  0  3.139834  0  0  -0.35168  0  3.428302  0  0  -0.372306  0  3.443672  0  0  -0.435022  -0.337565  0  3.417078  0
N  N35  1  0.13033951  0.35782053  0.34512052  1  0  -0.388747  0  3.139615  0  0  -0.351694  0  3.428108  0  0  -0.372321  0  3.443477  0  0  -0.434998  -0.337577  0  3.416878  0
N  N36  1  0.87394878  0.91375073  0.38126150  1  0  0.516005  0  3.95001  0  0  0.579873  0  4.18693  0  0  0.603937  0  4.193507  0  0  0.034604  0.563704  0  4.182629  0
N  N37  1  0.12605316  0.58624807  0.88126291  1  0  0.515826  0  3.950425  0  0  0.579785  0  4.187221  0  0  0.603849  0  4.193796  0  0  0.034596  0.563618  0  4.182925  0
N  N38  1  0.12604998  0.08624903  0.61873786  1  0  0.516017  0  3.950099  0  0  0.579869  0  4.18701  0  0  0.603932  0  4.193589  0  0  0.034629  0.563701  0  4.182709  0
N  N39  1  0.87394342  0.41375241  0.11873845  1  0  0.515829  0  3.950308  0  0  0.579739  0  4.187165  0  0  0.603803  0  4.193742  0  0  0.034522  0.563572  0  4.182868  0
N  N40  1  0.31965313  0.11705977  0.13008384  1  0  0.501261  0  3.952344  0  0  0.548496  0  4.222236  0  0  0.570565  0  4.231928  0  0  0.049973  0.535701  0  4.215182  0
N  N41  1  0.68034884  0.38293882  0.63008530  1  0  0.50121  0  3.952371  0  0  0.548441  0  4.222266  0  0  0.570508  0  4.231956  0  0  0.049946  0.535644  0  4.215208  0
N  N42  1  0.68035072  0.88294143  0.86991619  1  0  0.501225  0  3.952385  0  0  0.548441  0  4.222287  0  0  0.57051  0  4.23198  0  0  0.050019  0.535662  0  4.215228  0
N  N43  1  0.31965464  0.61706096  0.36991340  1  0  0.501176  0  3.952446  0  0  0.548398  0  4.222336  0  0  0.570465  0  4.232027  0  0  0.049928  0.535604  0  4.215276  0
O  O44  1  0.05006455  0.10295941  0.30900646  1  0  -0.593672  0  2.061167  0  0  -0.561371  0  2.310053  0  0  -0.585858  0  2.30649  0  0  -0.469774  -0.543843  0  2.311646  0
O  O45  1  0.94993995  0.39703833  0.80900768  1  0  -0.593644  0  2.061032  0  0  -0.561302  0  2.309935  0  0  -0.585787  0  2.306369  0  0  -0.469732  -0.543776  0  2.311532  0
O  O46  1  0.94993439  0.89704107  0.69099357  1  0  -0.593637  0  2.061158  0  0  -0.561346  0  2.310056  0  0  -0.585834  0  2.306493  0  0  -0.469752  -0.543819  0  2.311651  0
O  O47  1  0.05006298  0.60295930  0.19099235  1  0  -0.593648  0  2.061192  0  0  -0.561334  0  2.310146  0  0  -0.585822  0  2.306585  0  0  -0.469752  -0.543808  0  2.31174  0
O  O48  1  0.95012877  0.84024960  0.42028596  1  0  -0.431888  0  1.808847  0  0  -0.42857  0  2.022287  0  0  -0.442429  0  2.01675  0  0  -0.235001  -0.419265  0  2.026161  0
O  O49  1  0.04987292  0.65974989  0.92028607  1  0  -0.431868  0  1.808917  0  0  -0.428583  0  2.02232  0  0  -0.442437  0  2.016781  0  0  -0.235024  -0.419278  0  2.026199  0
O  O50  1  0.04987254  0.15975088  0.57971274  1  0  -0.431914  0  1.808822  0  0  -0.428585  0  2.022262  0  0  -0.442441  0  2.016726  0  0  -0.235024  -0.419272  0  2.026119  0
O  O51  1  0.95013056  0.34024989  0.07971463  1  0  -0.431836  0  1.808769  0  0  -0.428547  0  2.022222  0  0  -0.442399  0  2.016669  0  0  -0.234986  -0.419238  0  2.026087  0
O  O52  1  0.69677353  0.97034077  0.41533143  1  0  -0.384662  0  1.773925  0  0  -0.381733  0  1.976297  0  0  -0.392814  0  1.970857  0  0  -0.187983  -0.374244  0  1.980069  0
O  O53  1  0.30322349  0.52965872  0.91533204  1  0  -0.384577  0  1.774221  0  0  -0.381671  0  1.976548  0  0  -0.392757  0  1.97112  0  0  -0.187953  -0.37418  0  1.980323  0
O  O54  1  0.30322523  0.02965900  0.58466794  1  0  -0.38468  0  1.773961  0  0  -0.381758  0  1.97634  0  0  -0.39284  0  1.970901  0  0  -0.18802  -0.374269  0  1.980111  0
O  O55  1  0.69677527  0.47034104  0.08466866  1  0  -0.384565  0  1.774174  0  0  -0.38166  0  1.976546  0  0  -0.392737  0  1.971097  0  0  -0.187939  -0.374172  0  1.980321  0
O  O56  1  0.44957089  0.18185769  0.17683538  1  0  -0.340802  0  1.75083  0  0  -0.332749  0  1.953434  0  0  -0.342322  0  1.948651  0  0  -0.121996  -0.327121  0  1.956701  0
O  O57  1  0.55043093  0.31814229  0.67683498  1  0  -0.340828  0  1.750882  0  0  -0.332756  0  1.953489  0  0  -0.342327  0  1.948705  0  0  -0.122  -0.32713  0  1.956753  0
O  O58  1  0.55043060  0.81814351  0.82316532  1  0  -0.340806  0  1.750883  0  0  -0.332738  0  1.953476  0  0  -0.342311  0  1.948693  0  0  -0.122001  -0.327115  0  1.95674  0
O  O59  1  0.44956764  0.68185676  0.32316372  1  0  -0.340827  0  1.750983  0  0  -0.33274  0  1.953578  0  0  -0.342306  0  1.948786  0  0  -0.121991  -0.327115  0  1.956843  0
O  O60  1  0.29328225  0.12268013  0.04709960  1  0  -0.41115  0  1.754414  0  0  -0.398067  0  1.962075  0  0  -0.412454  0  1.957907  0  0  -0.189055  -0.389245  0  1.96492  0
O  O61  1  0.70671867  0.37731995  0.54710038  1  0  -0.41106  0  1.754381  0  0  -0.398001  0  1.96204  0  0  -0.412388  0  1.957872  0  0  -0.189016  -0.389177  0  1.96488  0
O  O62  1  0.70671923  0.87732107  0.95289976  1  0  -0.411093  0  1.754391  0  0  -0.398005  0  1.962055  0  0  -0.412391  0  1.957887  0  0  -0.189054  -0.38919  0  1.964899  0
O  O63  1  0.29328009  0.62267982  0.45289966  1  0  -0.411032  0  1.754318  0  0  -0.397975  0  1.961984  0  0  -0.412364  0  1.957817  0  0  -0.189008  -0.389153  0  1.964824  0
