# generated using pymatgen
data_Al3H33C42NO16
_symmetry_space_group_name_H-M   'P 1'
_cell_length_a   12.90235342
_cell_length_b   13.01102374
_cell_length_c   28.37798663
_cell_angle_alpha   89.82165465
_cell_angle_beta   89.96675897
_cell_angle_gamma   61.51512171
_symmetry_Int_Tables_number   1
_chemical_formula_structural   Al3H33C42NO16
_chemical_formula_sum   'Al6 H66 C84 N2 O32'
_cell_volume   4187.16782812
_cell_formula_units_Z   2
loop_
 _symmetry_equiv_pos_site_id
 _symmetry_equiv_pos_as_xyz
  1  'x, y, z'
loop_
 _atom_site_type_symbol
 _atom_site_label
 _atom_site_symmetry_multiplicity
 _atom_site_fract_x
 _atom_site_fract_y
 _atom_site_fract_z
 _atom_site_occupancy
 _atom_site_pbe_bader_charge
 _atom_site_pbe_bader_spin_density
 _atom_site_pbe_cm5_charge
 _atom_site_pbe_ddec_charge
 _atom_site_pbe_ddec_spin_density
 _atom_site_pbe_ddec_sum_bond_order
 _atom_site_pbe_magmom
Al  Al0  1  0.40599135  0.41267598  0.50227488  1  2.495517  0  0.398704  1.684121  0  2.552552  0
Al  Al1  1  0.42022009  0.65231330  0.49922347  1  2.480441  0  0.506675  1.659992  0  2.513106  0
Al  Al2  1  0.64769558  0.42643654  0.50038368  1  2.476041  0  0.507147  1.66208  0  2.510053  0
Al  Al3  1  0.93347032  0.91444187  0.00200583  1  2.491668  0  0.398481  1.683402  0  2.5538  0
Al  Al4  1  0.68682894  0.90954917  0.00066138  1  2.477229  0  0.508751  1.658938  0  2.512018  0
Al  Al5  1  0.90972375  0.67991008  0.00109827  1  2.479808  0  0.507173  1.657483  0  2.517215  0
H  H6  1  0.46996077  0.76149296  0.78564739  1  0.053699  0  0.10381  0.093561  0  0.988599  0
H  H7  1  0.54186883  0.86827002  0.71481241  1  0.086258  0  0.107836  0.100317  0  0.983574  0
H  H8  1  0.57502475  0.54909117  0.73358065  1  0.065072  0  0.099122  0.08709  0  1.021435  0
H  H9  1  0.78922756  0.47894207  0.78287044  1  0.05609  0  0.107316  0.098912  0  0.982495  0
H  H10  1  0.86127943  0.58606324  0.71213210  1  0.080971  0  0.107491  0.10291  0  0.983477  0
H  H11  1  0.75628701  0.79813389  0.76410428  1  0.066064  0  0.099685  0.085995  0  1.011933  0
H  H12  1  0.73869121  0.27158128  0.80264236  1  0.03515  0  0.094426  0.092476  0  0.980577  0
H  H13  1  0.71945667  0.31573791  0.72193634  1  0.04576  0  0.093903  0.090969  0  0.984027  0
H  H14  1  0.79377833  0.00532067  0.69613750  1  0.017484  0  0.092809  0.090286  0  0.982696  0
H  H15  1  0.85456210  0.09973638  0.70548880  1  0.038887  0  0.095404  0.094896  0  0.977252  0
H  H16  1  0.86910361  0.05682705  0.78631048  1  0.027566  0  0.094826  0.093337  0  0.982567  0
H  H17  1  0.80592229  0.96433021  0.77702840  1  0.004261  0  0.087333  0.077648  0  1.006678  0
H  H18  1  0.47829041  0.23468143  0.71227561  1  0.030407  0  0.095366  0.098283  0  0.979165  0
H  H19  1  0.57093076  0.08517088  0.70076515  1  0.051152  0  0.093692  0.090515  0  0.982876  0
H  H20  1  0.49239678  0.19605308  0.79324265  1  0.047624  0  0.093802  0.097576  0  1.00339  0
H  H21  1  0.56556534  0.36887191  0.72552237  1  0.016646  0  0.088442  0.081333  0  1.005122  0
H  H22  1  0.58449444  0.32916793  0.80675630  1  0.062588  0  0.091813  0.097614  0  1.001172  0
H  H23  1  0.58401695  0.04618174  0.78199969  1  0.020443  0  0.091181  0.088827  0  0.984858  0
H  H24  1  0.32053341  0.49006811  0.71537576  1  0.067676  0  0.110038  0.118186  0  0.989072  0
H  H25  1  0.00473359  0.70141225  0.69604321  1  0.046459  0  0.095956  0.095543  0  0.979439  0
H  H26  1  0.11008626  0.55170799  0.70074344  1  0.089918  0  0.101878  0.106771  0  0.972148  0
H  H27  1  0.06562622  0.55984605  0.78087301  1  0.067716  0  0.098694  0.105066  0  0.988873  0
H  H28  1  0.97268034  0.71236667  0.77769797  1  0.013896  0  0.093934  0.091759  0  0.996331  0
H  H29  1  0.22026542  0.81367140  0.71791255  1  0.040985  0  0.097315  0.098973  0  0.974812  0
H  H30  1  0.06965720  0.85639876  0.70979224  1  0.022328  0  0.098356  0.102596  0  0.97551  0
H  H31  1  0.19918576  0.80449099  0.79990914  1  0.033548  0  0.098839  0.09822  0  0.974207  0
H  H32  1  0.37108043  0.59458242  0.72227494  1  0.049216  0  0.099395  0.102796  0  0.992385  0
H  H33  1  0.33922703  0.59775173  0.80358652  1  0.106526  0  0.125032  0.093473  0  0.95929  0
H  H34  1  0.04767451  0.85341976  0.79178489  1  0.046676  0  0.100756  0.104213  0  0.986273  0
H  H35  1  0.68843552  0.49656838  0.19725491  1  0.033465  0  0.094859  0.093359  0  0.983347  0
H  H36  1  0.66765401  0.48075569  0.27854191  1  0.030942  0  0.092795  0.087561  0  1.002218  0
H  H37  1  0.80279904  0.67455556  0.29967979  1  0.032263  0  0.09533  0.0962  0  0.979668  0
H  H38  1  0.83320211  0.52863257  0.29143495  1  0.058043  0  0.09614  0.095315  0  0.974392  0
H  H39  1  0.85010434  0.55023680  0.21021798  1  0.033443  0  0.097037  0.098146  0  0.972098  0
H  H40  1  0.81440635  0.69752407  0.21840511  1  0.060396  0  0.092506  0.094607  0  1.036606  0
H  H41  1  0.47394180  0.80523013  0.28821820  1  0.024009  0  0.095549  0.094494  0  0.980242  0
H  H42  1  0.59025150  0.83840087  0.29607257  1  0.014777  0  0.092704  0.092027  0  0.979968  0
H  H43  1  0.48678226  0.81816638  0.20629825  1  0.028447  0  0.096376  0.097604  0  0.972645  0
H  H44  1  0.52013897  0.59400556  0.27567819  1  0.014829  0  0.091831  0.087329  0  1.007656  0
H  H45  1  0.53951955  0.60646324  0.19420384  1  0.045802  0  0.094412  0.091844  0  0.989128  0
H  H46  1  0.59875282  0.85760912  0.21390346  1  0.0388  0  0.08914  0.08513  0  1.024851  0
H  H47  1  0.48329144  0.25573617  0.20670858  1  0.061729  0  0.098622  0.098157  0  0.973108  0
H  H48  1  0.47505380  0.31830992  0.28486098  1  0.048901  0  0.097679  0.097454  0  0.995804  0
H  H49  1  0.71572877  0.01393761  0.30667698  1  0.083462  0  0.109283  0.117377  0  0.989661  0
H  H50  1  0.56198420  0.10188514  0.29758926  1  0.032788  0  0.106703  0.118361  0  0.960154  0
H  H51  1  0.59427570  0.04262254  0.21858417  1  0.106553  0  0.128191  0.097459  0  0.960243  0
H  H52  1  0.79086445  0.25645340  0.28485157  1  0.043589  0  0.095552  0.096903  0  0.983613  0
H  H53  1  0.85139181  0.10339639  0.29143976  1  0.068375  0  0.098511  0.103265  0  0.983128  0
H  H54  1  0.77609824  0.24415811  0.20265551  1  0.040481  0  0.100334  0.105274  0  0.969632  0
H  H55  1  0.56826972  0.37885973  0.27184538  1  0.029998  0  0.094429  0.093328  0  1.011155  0
H  H56  1  0.55619010  0.33670726  0.19235438  1  0.060515  0  0.103045  0.108345  0  0.969519  0
H  H57  1  0.86356239  0.09211880  0.20897264  1  0.048489  0  0.102491  0.108064  0  0.976102  0
H  H58  1  0.34844053  0.58186054  0.20129657  1  0.020073  0  0.090723  0.087274  0  0.990953  0
H  H59  1  0.37560178  0.55482558  0.28323008  1  0.02338  0  0.089106  0.080577  0  1.021518  0
H  H60  1  0.10052413  0.84741522  0.29250399  1  0.028984  0  0.09562  0.09793  0  0.977955  0
H  H61  1  0.25321226  0.77979199  0.28059206  1  0.031862  0  0.089482  0.084836  0  0.987977  0
H  H62  1  0.20556129  0.79844469  0.19987734  1  0.033028  0  0.093864  0.093005  0  0.978196  0
H  H63  1  0.05542079  0.84698438  0.21285618  1  0.032003  0  0.092867  0.095893  0  1.004569  0
H  H64  1  0.08254683  0.56886993  0.30258698  1  0.028379  0  0.093622  0.092793  0  0.978604  0
H  H65  1  0.99844885  0.72276636  0.29802138  1  0.035779  0  0.091166  0.091437  0  0.999351  0
H  H66  1  0.08026805  0.54847251  0.22037601  1  0.028097  0  0.092125  0.091195  0  0.975244  0
H  H67  1  0.29934192  0.47293205  0.28518210  1  0.028072  0  0.09378  0.090751  0  0.988967  0
H  H68  1  0.29588730  0.47890306  0.20250601  1  0.042163  0  0.093558  0.091985  0  0.986837  0
H  H69  1  0.97799433  0.69942330  0.21785771  1  0.04397  0  0.089977  0.083664  0  1.048531  0
H  H70  1  0.28724478  0.33386388  0.47593936  1  0.563832  0  0.292696  0.384427  0  0.921082  0
H  H71  1  0.01658275  0.02898671  0.97521747  1  0.5851  0  0.292598  0.383901  0  0.921629  0
C  C72  1  0.28632923  0.61780927  0.56768445  1  1.684134  0  0.278529  0.714138  0  4.162323  0
C  C73  1  0.60336822  0.61358481  0.56397284  1  1.653974  0  0.284054  0.723137  0  4.152263  0
C  C74  1  0.61415342  0.29241094  0.56789027  1  1.662706  0  0.280115  0.715548  0  4.159309  0
C  C75  1  0.28208762  0.61717661  0.43395839  1  1.652351  0  0.276199  0.722764  0  4.154818  0
C  C76  1  0.60571416  0.60470086  0.43319492  1  1.627007  0  0.284604  0.731263  0  4.139437  0
C  C77  1  0.60803188  0.29440186  0.43348460  1  1.69219  0  0.277075  0.718441  0  4.158179  0
C  C78  1  0.59681508  0.78195788  0.73030789  1  -0.038885  0  -0.067601  -0.079538  0  3.62679  0
C  C79  1  0.55665844  0.72230675  0.76882294  1  -0.00853  0  -0.06804  -0.077536  0  3.630993  0
C  C80  1  0.70052371  0.70650346  0.88762604  1  0.176608  0  -0.040344  -0.203629  0  3.962394  0
C  C81  1  0.62980133  0.63878823  0.61025668  1  -0.029701  0  -0.041206  -0.205719  0  3.963064  0
C  C82  1  0.71602526  0.74254062  0.75675479  1  -0.01326  0  -0.06572  -0.070264  0  3.618758  0
C  C83  1  0.67611856  0.68282830  0.79677913  1  0.136078  0  0.010578  0.117744  0  3.788893  0
C  C84  1  0.77456070  0.62495939  0.72888100  1  -0.030772  0  -0.066168  -0.075681  0  3.61559  0
C  C85  1  0.65509176  0.66433918  0.70091044  1  0.127594  0  0.009669  0.115213  0  3.788514  0
C  C86  1  0.73435581  0.56529564  0.76737739  1  -0.010228  0  -0.066508  -0.075571  0  3.620444  0
C  C87  1  0.61509274  0.60473534  0.74098228  1  -0.016948  0  -0.066349  -0.070393  0  3.615287  0
C  C88  1  0.68841814  0.69494179  0.84566809  1  -0.436878  0  -0.015599  -0.021701  0  4.058587  0
C  C89  1  0.64237118  0.65156913  0.65207626  1  -0.249696  0  -0.014328  -0.01909  0  4.05535  0
C  C90  1  0.65153276  0.29364012  0.73401906  1  -0.028477  0  -0.153385  -0.185161  0  3.85085  0
C  C91  1  0.78441804  0.08026870  0.71701352  1  -0.020016  0  -0.153572  -0.189141  0  3.854247  0
C  C92  1  0.79343129  0.05289152  0.77041273  1  -0.009539  0  -0.153657  -0.188049  0  3.855613  0
C  C93  1  0.70274392  0.09013347  0.88753810  1  0.295672  0  -0.049621  -0.222335  0  3.970948  0
C  C94  1  0.66329795  0.18685110  0.70559230  1  0.142263  0  0.001035  0.169547  0  3.894905  0
C  C95  1  0.66296786  0.26647756  0.78743507  1  -0.042767  0  -0.154333  -0.187622  0  3.837997  0
C  C96  1  0.67946488  0.14184457  0.79597268  1  0.153172  0  0.001731  0.169716  0  3.897268  0
C  C97  1  0.57287081  0.13398343  0.77483093  1  -0.018525  0  -0.156103  -0.188896  0  3.835727  0
C  C98  1  0.56385759  0.15970916  0.72130427  1  -0.034304  0  -0.153909  -0.185894  0  3.840438  0
C  C99  1  0.69055405  0.11557505  0.84594000  1  -0.602023  0  -0.011039  -0.011895  0  4.007809  0
C  C100  1  0.65343700  0.21469961  0.65574069  1  -0.591463  0  -0.013419  -0.021152  0  4.015986  0
C  C101  1  0.64191710  0.24202880  0.61433496  1  0.289282  0  -0.04877  -0.220014  0  3.977277  0
C  C102  1  0.29803093  0.57625120  0.72990643  1  -0.021618  0  -0.149843  -0.242176  0  3.839888  0
C  C103  1  0.08406448  0.63885797  0.71515091  1  -0.076622  0  -0.153662  -0.197779  0  3.85757  0
C  C104  1  0.06089413  0.64195062  0.76864402  1  -0.005195  0  -0.156065  -0.19674  0  3.859378  0
C  C105  1  0.10098510  0.67941945  0.88789439  1  0.195517  0  -0.035264  -0.179288  0  3.943152  0
C  C106  1  0.18433486  0.66940920  0.70536001  1  0.118462  0  0.003606  0.181517  0  3.898428  0
C  C107  1  0.27977414  0.57626709  0.78343597  1  0.197762  0  0.018008  -0.02574  0  3.695465  0
C  C108  1  0.15055015  0.66590799  0.79639330  1  0.095139  0  0.009486  0.146539  0  3.880945  0
C  C109  1  0.13568081  0.78690636  0.78051433  1  -0.022275  0  -0.149361  -0.184881  0  3.830531  0
C  C110  1  0.15106817  0.79042339  0.72662639  1  -0.013827  0  -0.154676  -0.194707  0  3.852347  0
C  C111  1  0.12830335  0.66832029  0.84656412  1  -0.458985  0  -0.026363  -0.051026  0  4.033841  0
C  C112  1  0.20822100  0.66443990  0.65528594  1  -0.540875  0  -0.018422  -0.030021  0  4.011877  0
C  C113  1  0.23488822  0.65052424  0.61386931  1  0.263068  0  -0.042521  -0.204965  0  3.965654  0
C  C114  1  0.61129809  0.57073276  0.26623910  1  -0.009797  0  -0.151722  -0.184715  0  3.833969  0
C  C115  1  0.77545449  0.61904642  0.27989950  1  -0.024438  0  -0.15244  -0.18312  0  3.83946  0
C  C116  1  0.78515015  0.63289181  0.22615120  1  -0.033842  0  -0.15608  -0.191768  0  3.82566  0
C  C117  1  0.69060894  0.69958527  0.11009722  1  0.160528  0  -0.046644  -0.224253  0  3.945889  0
C  C118  1  0.64677597  0.65289041  0.29324541  1  0.125125  0  0.001893  0.163983  0  3.900295  0
C  C119  1  0.62369248  0.58072578  0.21227893  1  -0.045902  0  -0.152145  -0.188516  0  3.846133  0
C  C120  1  0.66412859  0.67294507  0.20185469  1  0.145483  0  0.003342  0.167974  0  3.889885  0
C  C121  1  0.57252703  0.79132951  0.22319448  1  -0.038372  0  -0.156058  -0.18909  0  3.840461  0
C  C122  1  0.56457618  0.78029966  0.27723760  1  0.009528  0  -0.153586  -0.184463  0  3.846263  0
C  C123  1  0.67645581  0.68568556  0.15155951  1  -0.412859  0  -5.4e-05  0.008111  0  3.966823  0
C  C124  1  0.63673570  0.63995392  0.34366413  1  -0.145555  0  -0.00416  -0.003844  0  3.990288  0
C  C125  1  0.62784141  0.62814752  0.38578318  1  -0.093822  0  -0.048737  -0.226779  0  3.960628  0
C  C126  1  0.55859112  0.30003477  0.26804706  1  -0.037439  0  -0.154834  -0.193417  0  3.837163  0
C  C127  1  0.64929648  0.08679402  0.28595229  1  -0.007937  0  -0.150473  -0.244666  0  3.856633  0
C  C128  1  0.66547698  0.05568168  0.23344633  1  0.205018  0  0.021358  -0.026072  0  3.697562  0
C  C129  1  0.69535311  0.09736217  0.11324293  1  0.218366  0  -0.033476  -0.174628  0  3.944132  0
C  C130  1  0.66063900  0.19815786  0.29488612  1  0.137419  0  0.002351  0.179809  0  3.89983  0
C  C131  1  0.55975520  0.26761987  0.21567476  1  -0.057702  0  -0.147832  -0.183962  0  3.839179  0
C  C132  1  0.67436167  0.15347140  0.20413758  1  0.124242  0  0.011054  0.145781  0  3.884277  0
C  C133  1  0.78144227  0.16710911  0.22082522  1  -0.030223  0  -0.154613  -0.194128  0  3.848082  0
C  C134  1  0.77946387  0.18092939  0.27490833  1  -0.036469  0  -0.156385  -0.199526  0  3.859315  0
C  C135  1  0.68236494  0.12646255  0.15433188  1  -0.47682  0  -0.027549  -0.05887  0  4.043257  0
C  C136  1  0.65039645  0.22344443  0.34490442  1  -0.455383  0  -0.0184  -0.027931  0  4.008872  0
C  C137  1  0.63757063  0.24733163  0.38656652  1  0.15723  0  -0.044599  -0.207467  0  3.963586  0
C  C138  1  0.29461742  0.55432668  0.27177136  1  -0.029081  0  -0.153406  -0.18603  0  3.846426  0
C  C139  1  0.17220481  0.77391894  0.27394477  1  -0.034336  0  -0.154465  -0.183962  0  3.851481  0
C  C140  1  0.14543973  0.77862999  0.22068495  1  0.004664  0  -0.155698  -0.188716  0  3.841854  0
C  C141  1  0.10713024  0.67567127  0.11272780  1  0.349099  0  -0.0503  -0.224473  0  3.97213  0
C  C142  1  0.18720970  0.65807232  0.29530459  1  0.136867  0  0.00071  0.168049  0  3.89926  0
C  C143  1  0.28245720  0.56212897  0.21749675  1  -0.020364  0  -0.15372  -0.18651  0  3.853193  0
C  C144  1  0.15799749  0.65973888  0.20416750  1  0.138208  0  0.001697  0.169034  0  3.897489  0
C  C145  1  0.06586736  0.63591125  0.23030607  1  -0.033068  0  -0.157346  -0.188165  0  3.838622  0
C  C146  1  0.07618304  0.64599421  0.28409597  1  -0.014301  0  -0.155334  -0.187824  0  3.849118  0
C  C147  1  0.13558453  0.66422293  0.15400050  1  -0.611875  0  -0.010597  -0.010877  0  4.006285  0
C  C148  1  0.20844713  0.65247169  0.34561103  1  -0.451965  0  -0.012017  -0.014007  0  4.013155  0
C  C149  1  0.23234874  0.64244178  0.38737701  1  0.163873  0  -0.0541  -0.229564  0  3.977887  0
C  C150  1  0.72831879  0.04159855  0.93427354  1  1.675959  0  0.277641  0.724353  0  4.153066  0
C  C151  1  0.72626713  0.72886069  0.93452445  1  1.636878  0  0.28386  0.722721  0  4.152099  0
C  C152  1  0.04934631  0.71053895  0.93422419  1  1.697481  0  0.278758  0.714324  0  4.157892  0
C  C153  1  0.72692577  0.04132555  0.06777682  1  1.670043  0  0.282147  0.71489  0  4.153622  0
C  C154  1  0.71995231  0.72713392  0.06463347  1  1.655917  0  0.287021  0.734013  0  4.1325  0
C  C155  1  0.05167716  0.70701177  0.06725251  1  1.629263  0  0.281571  0.720066  0  4.154284  0
N  N156  1  0.31026495  0.45446977  0.80112540  1  0.436689  0  0.050421  0.520606  0  4.145074  0
N  N157  1  0.77547157  0.94017628  0.22475956  1  0.423612  0  0.050601  0.51594  0  4.131428  0
O  O158  1  0.51690916  0.31151790  0.55018671  1  -1.218996  0  -0.200491  -0.534716  0  2.278728  0
O  O159  1  0.31431184  0.51552506  0.55434221  1  -1.216716  0  -0.202331  -0.542553  0  2.286479  0
O  O160  1  0.30375581  0.69423111  0.54494489  1  -1.250667  0  -0.242707  -0.606883  0  2.235259  0
O  O161  1  0.50371764  0.68637376  0.54623590  1  -1.247242  0  -0.226702  -0.586753  0  2.244618  0
O  O162  1  0.67831122  0.51779829  0.54489839  1  -1.244253  0  -0.226595  -0.587914  0  2.249725  0
O  O163  1  0.69001839  0.31824057  0.54897282  1  -1.253351  0  -0.243235  -0.608647  0  2.232355  0
O  O164  1  0.50618441  0.32096689  0.44825613  1  -1.212591  0  -0.209024  -0.558725  0  2.291191  0
O  O165  1  0.30039641  0.52206928  0.45300754  1  -1.225194  0  -0.214879  -0.573635  0  2.288178  0
O  O166  1  0.30897595  0.69275345  0.45171476  1  -1.249002  0  -0.243092  -0.605399  0  2.230375  0
O  O167  1  0.51050190  0.68030521  0.45277274  1  -1.242055  0  -0.226853  -0.588808  0  2.245055  0
O  O168  1  0.68011825  0.50696835  0.45147981  1  -1.254062  0  -0.227787  -0.590047  0  2.24022  0
O  O169  1  0.68701690  0.30971216  0.45555113  1  -1.256027  0  -0.24387  -0.608216  0  2.231326  0
O  O170  1  0.49226794  0.49820657  0.50039929  1  -1.60779  0  -0.390972  -1.274123  0  2.296328  0
O  O171  1  0.02580642  0.81070491  0.94887929  1  -1.213613  0  -0.207214  -0.555929  0  2.29072  0
O  O172  1  0.82690343  0.01862654  0.95199589  1  -1.229256  0  -0.215007  -0.575805  0  2.292422  0
O  O173  1  0.64939576  0.02105036  0.95361930  1  -1.252577  0  -0.241842  -0.603451  0  2.227328  0
O  O174  1  0.65299475  0.82527269  0.95368105  1  -1.2483  0  -0.22608  -0.585652  0  2.246165  0
O  O175  1  0.82374293  0.65274610  0.95273131  1  -1.238895  0  -0.227535  -0.587958  0  2.247278  0
O  O176  1  0.02708109  0.63555829  0.95544281  1  -1.248814  0  -0.239579  -0.599472  0  2.232375  0
O  O177  1  0.03258834  0.80417867  0.05015810  1  -1.217947  0  -0.201179  -0.537374  0  2.277671  0
O  O178  1  0.83002945  0.01071162  0.05357006  1  -1.206286  0  -0.199609  -0.538638  0  2.284554  0
O  O179  1  0.64824599  0.02338695  0.04693491  1  -1.245331  0  -0.239935  -0.60207  0  2.230738  0
O  O180  1  0.64975368  0.82747644  0.04713763  1  -1.250135  0  -0.225969  -0.588886  0  2.240769  0
O  O181  1  0.81700555  0.65196173  0.04601324  1  -1.250391  0  -0.226153  -0.589224  0  2.243425  0
O  O182  1  0.02142469  0.63472731  0.04859248  1  -1.25318  0  -0.243023  -0.609516  0  2.234863  0
O  O183  1  0.84220459  0.83393232  0.00096638  1  -1.609101  0  -0.390478  -1.273105  0  2.29508  0
O  O184  1  0.27296567  0.39761995  0.77838735  1  -0.465584  0  -0.12828  -0.331227  0  1.904335  0
O  O185  1  0.36998470  0.42064445  0.83748884  1  -0.443292  0  -0.120605  -0.327593  0  1.901942  0
O  O186  1  0.77386790  0.88286613  0.19035876  1  -0.45379  0  -0.102776  -0.311461  0  1.96707  0
O  O187  1  0.86097476  0.91147328  0.25153665  1  -0.478446  0  -0.110087  -0.322148  0  1.98274  0
O  O188  1  0.32917220  0.33253576  0.50434342  1  -1.34759  0  -0.576586  -0.995051  0  1.791183  0
O  O189  1  0.01769426  0.98722013  0.00361182  1  -1.367625  0  -0.576103  -0.993725  0  1.791937  0
