# generated using pymatgen
data_AlH12(C4O3)6
_symmetry_space_group_name_H-M   'P 1'
_cell_length_a   4.03390670
_cell_length_b   28.95050259
_cell_length_c   28.95041991
_cell_angle_alpha   119.99470985
_cell_angle_beta   89.99962191
_cell_angle_gamma   90.00079980
_symmetry_Int_Tables_number   1
_chemical_formula_structural   AlH12(C4O3)6
_chemical_formula_sum   'Al2 H24 C48 O36'
_cell_volume   2928.13168969
_cell_formula_units_Z   2
loop_
 _symmetry_equiv_pos_site_id
 _symmetry_equiv_pos_as_xyz
  1  'x, y, z'
loop_
 _atom_site_type_symbol
 _atom_site_label
 _atom_site_symmetry_multiplicity
 _atom_site_fract_x
 _atom_site_fract_y
 _atom_site_fract_z
 _atom_site_occupancy
 _atom_site_pbe_bader_charge
 _atom_site_pbe_bader_spin_density
 _atom_site_pbe_cm5_charge
 _atom_site_pbe_ddec_charge
 _atom_site_pbe_ddec_spin_density
 _atom_site_pbe_ddec_sum_bond_order
 _atom_site_pbe_magmom
Al  Al0  1  0.00034437  0.50001065  0.49999086  1  2.504377  0  0.433769  1.603408  0  2.542446  0
Al  Al1  1  0.99884934  0.16665847  0.83334260  1  2.505219  0  0.43402  1.60345  0  2.542453  0
H  H2  1  0.13586437  0.15983541  0.71997558  1  0.620632  0  0.316907  0.355032  0  0.946755  0
H  H3  1  0.86258465  0.28003586  0.84024613  1  0.619353  0  0.316551  0.354613  0  0.947463  0
H  H4  1  0.80448370  0.37555527  0.75275577  1  0.574634  0  0.318637  0.343473  0  0.911979  0
H  H5  1  0.19583983  0.24725918  0.62441259  1  0.573891  0  0.31876  0.343815  0  0.910972  0
H  H6  1  0.80415394  0.29108050  0.58056406  1  0.574377  0  0.318739  0.343857  0  0.911055  0
H  H7  1  0.19593527  0.41945162  0.70892965  1  0.574623  0  0.318764  0.343791  0  0.911208  0
H  H8  1  0.13691443  0.50689471  0.61337413  1  0.619771  0  0.316543  0.354768  0  0.947258  0
H  H9  1  0.86353960  0.38664346  0.49313389  1  0.619242  0  0.316768  0.35465  0  0.947684  0
H  H10  1  0.13583461  0.06011567  0.84017343  1  0.622131  0  0.316821  0.355033  0  0.947153  0
H  H11  1  0.86257206  0.06020206  0.71997259  1  0.626054  0  0.316564  0.354487  0  0.947775  0
H  H12  1  0.80445823  0.87720802  0.62446093  1  0.57841  0  0.318534  0.343118  0  0.912408  0
H  H13  1  0.19585670  0.87714359  0.75276422  1  0.581529  0  0.318737  0.343773  0  0.911137  0
H  H14  1  0.80410015  0.78948246  0.70892719  1  0.578774  0  0.318702  0.34385  0  0.911175  0
H  H15  1  0.19593830  0.78949025  0.58054656  1  0.582177  0  0.318785  0.343691  0  0.911087  0
H  H16  1  0.13690947  0.60650806  0.49311137  1  0.621878  0  0.316631  0.354899  0  0.947306  0
H  H17  1  0.86353484  0.60650422  0.61336458  1  0.627623  0  0.316787  0.354812  0  0.947719  0
H  H18  1  0.13585758  0.28002196  0.93986862  1  0.627426  0  0.316846  0.354935  0  0.947104  0
H  H19  1  0.86254943  0.15974801  0.93981121  1  0.621154  0  0.316589  0.354691  0  0.947339  0
H  H20  1  0.80446475  0.24723489  0.12280823  1  0.583238  0  0.318589  0.343493  0  0.911908  0
H  H21  1  0.19590938  0.37558871  0.12283968  1  0.578248  0  0.318711  0.343752  0  0.911157  0
H  H22  1  0.80415108  0.41943328  0.21049624  1  0.582093  0  0.318871  0.343937  0  0.910987  0
H  H23  1  0.19596289  0.29106686  0.21053200  1  0.57921  0  0.318717  0.343686  0  0.911524  0
H  H24  1  0.13692616  0.38662711  0.39351172  1  0.627129  0  0.316596  0.354795  0  0.947442  0
H  H25  1  0.86355746  0.50686607  0.39347724  1  0.622354  0  0.316918  0.354939  0  0.947408  0
C  C26  1  0.50031124  0.45831691  0.41663589  1  1.398195  0  0.256872  0.650673  0  4.041556  0
C  C27  1  0.50031087  0.45834569  0.54168770  1  1.41042  0  0.257038  0.650969  0  4.041313  0
C  C28  1  0.50031181  0.58336525  0.54165615  1  1.397076  0  0.257403  0.651508  0  4.040706  0
C  C29  1  0.49896216  0.20838018  0.79170092  1  1.409888  0  0.257173  0.651502  0  4.04001  0
C  C30  1  0.49894883  0.08330274  0.79162871  1  1.455654  0  0.256843  0.65084  0  4.040404  0
C  C31  1  0.49894196  0.20829345  0.91669624  1  1.396412  0  0.257001  0.651124  0  4.041377  0
C  C32  1  0.49931372  0.23721778  0.76284036  1  0.040869  0  -0.045124  -0.310414  0  4.036922  0
C  C33  1  0.31164965  0.21730421  0.71463306  1  0.583526  0  0.082694  0.21365  0  4.052789  0
C  C34  1  0.32053132  0.24473019  0.68636556  1  0.606254  0  0.072592  0.164038  0  4.051478  0
C  C35  1  0.49993984  0.29293635  0.70707588  1  0.169537  0  -0.032885  -0.091618  0  4.215038  0
C  C36  1  0.67913573  0.31363262  0.75530247  1  0.612588  0  0.072844  0.164262  0  4.051486  0
C  C37  1  0.68739128  0.28538645  0.78275095  1  0.580335  0  0.082471  0.213696  0  4.05243  0
C  C38  1  0.50007568  0.32107555  0.67893928  1  -0.426182  0  -0.05152  -0.130365  0  4.239278  0
C  C39  1  0.50006252  0.34560904  0.65440565  1  -0.182038  0  -0.051187  -0.12974  0  4.238972  0
C  C40  1  0.50007936  0.37374755  0.62626836  1  0.165939  0  -0.033037  -0.091627  0  4.215225  0
C  C41  1  0.67935731  0.35303907  0.57804955  1  0.61109  0  0.072563  0.163916  0  4.051771  0
C  C42  1  0.68802332  0.38130094  0.55061715  1  0.582046  0  0.08276  0.213375  0  4.052766  0
C  C43  1  0.50024192  0.42949681  0.57053537  1  0.039149  0  -0.045152  -0.309398  0  4.036419  0
C  C44  1  0.31234203  0.44941084  0.61872038  1  0.582142  0  0.082758  0.213653  0  4.052243  0
C  C45  1  0.32084301  0.42197081  0.64697500  1  0.611849  0  0.072807  0.163999  0  4.051622  0
C  C46  1  0.49929630  0.02560857  0.76279310  1  0.030281  0  -0.044977  -0.309948  0  4.036512  0
C  C47  1  0.31163283  0.99731384  0.78270933  1  0.685925  0  0.082463  0.213414  0  4.052424  0
C  C48  1  0.32053287  0.94162372  0.75528626  1  0.474584  0  0.072696  0.16409  0  4.051271  0
C  C49  1  0.49993940  0.91413519  0.70707925  1  0.207068  0  -0.032972  -0.091574  0  4.215161  0
C  C50  1  0.67910991  0.94166736  0.68637896  1  0.606294  0  0.072551  0.163719  0  4.051798  0
C  C51  1  0.68735948  0.99735952  0.71462411  1  0.557359  0  0.08262  0.21367  0  4.051905  0
C  C52  1  0.50009108  0.85786136  0.67893846  1  -0.600791  0  -0.051497  -0.130321  0  4.239951  0
C  C53  1  0.50007693  0.80880364  0.65439847  1  -0.022741  0  -0.051218  -0.12977  0  4.239741  0
C  C54  1  0.50008484  0.75253041  0.62625708  1  0.207266  0  -0.032926  -0.091572  0  4.215166  0
C  C55  1  0.67933857  0.72501706  0.64696866  1  0.604215  0  0.072709  0.164161  0  4.051469  0
C  C56  1  0.68799321  0.66932768  0.61870831  1  0.55645  0  0.08294  0.213778  0  4.052389  0
C  C57  1  0.50021471  0.64105714  0.57051062  1  0.091136  0  -0.045147  -0.309459  0  4.035816  0
C  C58  1  0.31232420  0.66933085  0.55059570  1  0.688481  0  0.082688  0.213453  0  4.052666  0
C  C59  1  0.32084648  0.72502120  0.57803375  1  0.473839  0  0.072718  0.163928  0  4.052083  0
C  C60  1  0.49928162  0.23715163  0.97439081  1  0.090771  0  -0.044953  -0.309739  0  4.036607  0
C  C61  1  0.31162943  0.28536010  0.00267676  1  0.55676  0  0.082595  0.213373  0  4.05258  0
C  C62  1  0.32054145  0.31362987  0.05836655  1  0.604346  0  0.072652  0.164042  0  4.051727  0
C  C63  1  0.49994162  0.29291875  0.08586562  1  0.207586  0  -0.033009  -0.091798  0  4.215107  0
C  C64  1  0.67911119  0.24468946  0.05834353  1  0.47319  0  0.072822  0.164167  0  4.051862  0
C  C65  1  0.68735132  0.21723933  0.00265131  1  0.689128  0  0.082447  0.213106  0  4.053035  0
C  C66  1  0.50011271  0.32105700  0.14214145  1  -0.600267  0  -0.051519  -0.130214  0  4.240006  0
C  C67  1  0.50009539  0.34558710  0.19119262  1  -0.043592  0  -0.051266  -0.129689  0  4.239727  0
C  C68  1  0.50010040  0.37373046  0.24746957  1  0.227456  0  -0.032985  -0.091855  0  4.215218  0
C  C69  1  0.67936995  0.42195190  0.27497228  1  0.474263  0  0.072476  0.163747  0  4.052043  0
C  C70  1  0.68802907  0.44938554  0.33066236  1  0.687977  0  0.082786  0.213539  0  4.052627  0
C  C71  1  0.50024922  0.42946725  0.35894385  1  0.090893  0  -0.045007  -0.309119  0  4.035817  0
C  C72  1  0.31236273  0.38128096  0.33068137  1  0.557182  0  0.082741  0.213555  0  4.05253  0
C  C73  1  0.32087055  0.35302360  0.27499161  1  0.60477  0  0.072814  0.164019  0  4.051818  0
O  O74  1  0.73149571  0.55787876  0.55114107  1  -1.271946  0  -0.247327  -0.619064  0  2.39271  0
O  O75  1  0.73147284  0.49329179  0.44211762  1  -1.271162  0  -0.246812  -0.618123  0  2.392083  0
O  O76  1  0.73147423  0.44885856  0.50671364  1  -1.272513  0  -0.24689  -0.618041  0  2.392035  0
O  O77  1  0.26921781  0.55786809  0.50667177  1  -1.270919  0  -0.247114  -0.619442  0  2.39112  0
O  O78  1  0.26920632  0.49332560  0.55116607  1  -1.270725  0  -0.247158  -0.619522  0  2.39153  0
O  O79  1  0.26919183  0.44883851  0.44213816  1  -1.272359  0  -0.247148  -0.619653  0  2.391778  0
O  O80  1  0.72994524  0.17329797  0.89117829  1  -1.270431  0  -0.246906  -0.619507  0  2.391677  0
O  O81  1  0.72995377  0.21785280  0.82669828  1  -1.271626  0  -0.246979  -0.619508  0  2.391288  0
O  O82  1  0.72994964  0.10882636  0.78215414  1  -1.271702  0  -0.246617  -0.61907  0  2.391469  0
O  O83  1  0.26766347  0.21779036  0.89123089  1  -1.27249  0  -0.247037  -0.618048  0  2.391811  0
O  O84  1  0.26766228  0.10876320  0.82658642  1  -1.268205  0  -0.247024  -0.618011  0  2.390865  0
O  O85  1  0.26767626  0.17342110  0.78220674  1  -1.271709  0  -0.247163  -0.618392  0  2.39126  0
O  O86  1  0.13352289  0.17169557  0.69333054  1  -1.112032  0  -0.340623  -0.393938  0  2.272661  0
O  O87  1  0.86537503  0.30666978  0.82837408  1  -1.110897  0  -0.340292  -0.393543  0  2.272409  0
O  O88  1  0.84920090  0.36046828  0.77574475  1  -1.078874  0  -0.339421  -0.390494  0  2.279619  0
O  O89  1  0.15075556  0.22428665  0.63950613  1  -1.077309  0  -0.339598  -0.390778  0  2.278954  0
O  O90  1  0.84918349  0.30618245  0.55759752  1  -1.077243  0  -0.339386  -0.390613  0  2.278827  0
O  O91  1  0.15094309  0.44241741  0.69382547  1  -1.078206  0  -0.339541  -0.390665  0  2.279135  0
O  O92  1  0.13433263  0.49503095  0.64001517  1  -1.111866  0  -0.340306  -0.39365  0  2.272301  0
O  O93  1  0.86604681  0.36000209  0.50499889  1  -1.110515  0  -0.340491  -0.393712  0  2.273152  0
O  O94  1  0.13349786  0.02161274  0.82831581  1  -1.113035  0  -0.340462  -0.393931  0  2.272757  0
O  O95  1  0.86532997  0.02170005  0.69333754  1  -1.116291  0  -0.340298  -0.393346  0  2.272332  0
O  O96  1  0.84914094  0.91528279  0.63954236  1  -1.088699  0  -0.339293  -0.389975  0  2.280068  0
O  O97  1  0.15076768  0.91520666  0.77573355  1  -1.090141  0  -0.339438  -0.390572  0  2.278767  0
O  O98  1  0.84914189  0.75141671  0.69382717  1  -1.088744  0  -0.339541  -0.390881  0  2.278916  0
O  O99  1  0.15095582  0.75142325  0.55758175  1  -1.090388  0  -0.339464  -0.390445  0  2.279285  0
O  O100  1  0.13430808  0.64501139  0.50497618  1  -1.11289  0  -0.340417  -0.393798  0  2.272602  0
O  O101  1  0.86600512  0.64500450  0.64000828  1  -1.117294  0  -0.340657  -0.393986  0  2.273201  0
O  O102  1  0.13350540  0.30666443  0.97837020  1  -1.117288  0  -0.340524  -0.39378  0  2.27279  0
O  O103  1  0.86531814  0.17161558  0.97831540  1  -1.111363  0  -0.340196  -0.393259  0  2.272669  0
O  O104  1  0.84917057  0.22424369  0.08473586  1  -1.091694  0  -0.339328  -0.390348  0  2.279797  0
O  O105  1  0.15080934  0.36049203  0.08477518  1  -1.088907  0  -0.339526  -0.390626  0  2.279273  0
O  O106  1  0.84918209  0.44240289  0.24856129  1  -1.090404  0  -0.339546  -0.390632  0  2.279093  0
O  O107  1  0.15097905  0.30617319  0.24859986  1  -1.088853  0  -0.339498  -0.390546  0  2.279483  0
O  O108  1  0.13436499  0.35998527  0.35501158  1  -1.117534  0  -0.340351  -0.393633  0  2.272633  0
O  O109  1  0.86605908  0.49500326  0.35497382  1  -1.113863  0  -0.340641  -0.393966  0  2.272966  0
