# generated using pymatgen
data_CuH10C9NO4
_symmetry_space_group_name_H-M   'P 1'
_cell_length_a   7.23738263
_cell_length_b   8.02120059
_cell_length_c   10.98214076
_cell_angle_alpha   77.84447109
_cell_angle_beta   81.27205677
_cell_angle_gamma   65.82138487
_symmetry_Int_Tables_number   1
_chemical_formula_structural   CuH10C9NO4
_chemical_formula_sum   'Cu2 H20 C18 N2 O8'
_cell_volume   567.03574868
_cell_formula_units_Z   2
loop_
 _symmetry_equiv_pos_site_id
 _symmetry_equiv_pos_as_xyz
  1  'x, y, z'
loop_
 _atom_site_type_symbol
 _atom_site_label
 _atom_site_symmetry_multiplicity
 _atom_site_fract_x
 _atom_site_fract_y
 _atom_site_fract_z
 _atom_site_occupancy
 _atom_site_hle17_ddec_charge
 _atom_site_hle17_ddec_spin_density
 _atom_site_hle17_ddec_sum_bond_order
 _atom_site_hle17_magmom
 _atom_site_hse06_10hf_ddec_charge
 _atom_site_hse06_10hf_ddec_spin_density
 _atom_site_hse06_10hf_ddec_sum_bond_order
 _atom_site_hse06_10hf_magmom
 _atom_site_hse06_ddec_charge
 _atom_site_hse06_ddec_spin_density
 _atom_site_hse06_ddec_sum_bond_order
 _atom_site_hse06_magmom
 _atom_site_pbe_cm5_charge
 _atom_site_pbe_ddec_charge
 _atom_site_pbe_ddec_spin_density
 _atom_site_pbe_ddec_sum_bond_order
 _atom_site_pbe_magmom
Cu  Cu0  1  0.97723179  0.43800435  0.41297607  1  0.819234  0.668188  1.922768  0.48  0.806468  0.798171  2.334173  0.631  0.911115  0.88883  2.249048  0.733  0.672738  0.740417  0.697584  2.393375  0.539
Cu  Cu1  1  0.13986316  0.43389386  0.60711447  1  0.817411  -0.667228  1.918977  -0.478  0.8027  -0.796931  2.331671  -0.629  0.908602  -0.887756  2.245494  -0.731  0.669262  0.73723  -0.696733  2.389776  -0.538
H  H2  1  0.76999098  0.28159856  0.84784985  1  0.110603  3.3e-05  0.968331  0.0  0.122131  -9e-06  1.027231  0.0  0.126181  1.3e-05  1.025216  0.0  0.10869  0.119188  -3e-05  1.028912  0.0
H  H3  1  0.34779019  0.54019932  0.18933018  1  0.111439  -4.2e-05  0.980881  0.0  0.119881  7e-06  1.045104  0.0  0.124008  -2e-05  1.043043  0.0  0.107387  0.116939  3e-05  1.046753  0.0
H  H4  1  0.49301183  0.75033873  0.75290332  1  0.133993  0.001197  0.946047  0.001  0.150418  0.000837  1.005779  0.001  0.151624  0.000569  1.006823  0.001  0.093709  0.149501  0.000978  1.004979  0.001
H  H5  1  0.38909253  0.76817118  0.60946849  1  0.148594  -0.001217  0.953939  -0.001  0.164292  -0.000832  1.015964  -0.001  0.166617  -0.000541  1.015679  -0.001  0.098774  0.162448  -0.000999  1.016256  -0.001
H  H6  1  0.49942700  0.92412001  0.62493380  1  0.148127  7.2e-05  0.947196  0.0  0.168145  1e-05  1.004466  0.0  0.170742  2e-05  1.003894  0.0  0.101826  0.166295  -4e-06  1.004812  0.0
H  H7  1  0.57064497  0.29143626  0.67893483  1  0.087025  -7e-06  0.962765  0.0  0.095009  2.3e-05  1.027507  0.0  0.098718  3.1e-05  1.024243  0.0  0.118031  0.092234  1.1e-05  1.029937  0.0
H  H8  1  0.54558566  0.53674543  0.35645192  1  0.094735  3.4e-05  0.94051  0.0  0.103725  -1e-06  1.000856  0.0  0.107399  -7e-06  0.997875  0.0  0.120978  0.100962  2e-06  1.003114  0.0
H  H9  1  0.91667820  0.34736171  0.96327076  1  0.111029  -1.7e-05  0.955361  0.0  0.122934  -1.2e-05  1.012205  0.0  0.126624  -5e-06  1.010456  0.0  0.111297  0.120288  -2e-05  1.01366  0.0
H  H10  1  0.08835064  0.34166058  0.14493907  1  0.082437  -4.6e-05  0.937364  0.0  0.091136  -5.7e-05  0.999066  0.0  0.094389  -6e-05  0.996585  0.0  0.116536  0.088714  -5e-05  1.000966  0.0
H  H11  1  0.02865621  0.60076166  0.85354506  1  0.081947  5.7e-05  0.941967  0.0  0.092257  7.8e-05  1.002683  0.0  0.095609  7.4e-05  1.000072  0.0  0.117967  0.089722  7.1e-05  1.004734  0.0
H  H12  1  0.20048803  0.61490699  0.02887119  1  0.109997  3.3e-05  0.946438  0.0  0.123087  3.8e-05  1.000501  0.0  0.127209  2.2e-05  0.998313  0.0  0.111516  0.120077  5e-05  1.002342  0.0
H  H13  1  0.72884322  0.09179147  0.41938868  1  0.148314  0.001261  0.953035  0.001  0.165328  0.000861  1.013362  0.001  0.167967  0.000557  1.012639  0.001  0.098428  0.16321  0.001038  1.014057  0.001
H  H14  1  0.62816634  0.11170432  0.27409280  1  0.13733  -0.001144  0.93754  -0.001  0.154366  -0.000808  0.995431  -0.001  0.155799  -0.00055  0.996091  -0.001  0.096131  0.153278  -0.000944  0.994933  -0.001
H  H15  1  0.61312732  0.94049548  0.40153912  1  0.152818  -0.000152  0.94656  0.0  0.172584  -6.1e-05  1.003545  0.0  0.175371  -5.6e-05  1.002941  0.0  0.103455  0.170579  -5.2e-05  1.00395  0.0
H  H16  1  0.26369637  0.92209297  0.37822458  1  0.147324  0.001258  0.941113  0.002  0.165917  0.000897  0.996823  0.001  0.168127  0.000589  0.996275  0.001  0.099679  0.16408  0.001049  0.997387  0.001
H  H17  1  0.02954000  0.00819102  0.30838896  1  0.144484  -0.000429  0.947331  -0.001  0.16206  -0.000263  1.008786  0.0  0.163668  -0.000178  1.009278  0.0  0.102791  0.160919  -0.000302  1.008356  0.0
H  H18  1  0.25273810  0.86253220  0.23167432  1  0.130554  -0.000874  0.940307  -0.001  0.147473  -0.000616  1.000903  -0.001  0.148651  -0.000423  1.001364  0.0  0.096371  0.146574  -0.000701  1.000517  -0.001
H  H19  1  0.98723811  0.94093165  0.78549484  1  0.130414  0.001359  0.940857  0.002  0.146586  0.000972  1.00119  0.001  0.147995  0.000666  1.00126  0.001  0.093273  0.145381  0.001112  1.001201  0.001
H  H20  1  0.03895344  0.86524910  0.63694578  1  0.158436  -0.000532  0.962813  -0.001  0.174499  -0.000362  1.024235  0.0  0.177445  -0.000215  1.02365  0.0  0.103614  0.172251  -0.000445  1.024812  -0.001
H  H21  1  0.78856910  0.00435194  0.68336923  1  0.14072  -0.00082  0.940394  -0.001  0.159824  -0.00057  0.998415  -0.001  0.161856  -0.000371  0.997878  0.0  0.101298  0.158256  -0.000668  0.998756  -0.001
C  C22  1  0.61400648  0.44562018  0.05887112  1  0.087331  -0.000518  3.766645  -0.001  0.101403  -0.000386  3.992352  0.0  0.105595  -0.000334  4.012847  0.0  0.008835  0.098614  -0.000465  3.97864  0.0
C  C23  1  0.50316323  0.44574021  0.95616307  1  0.089339  0.000535  3.763088  0.001  0.101826  0.000386  3.990856  0.0  0.10633  0.000336  4.010959  0.0  0.011062  0.098796  0.000464  3.977343  0.0
C  C24  1  0.60556919  0.35399395  0.85510262  1  -0.152565  -0.000391  3.693052  0.0  -0.168164  -0.000186  3.929204  0.0  -0.174388  -0.000193  3.947532  0.0  -0.079202  -0.16429  -0.000213  3.917166  0.0
C  C25  1  0.51129033  0.50000894  0.17202550  1  -0.163012  0.000313  3.705024  0.0  -0.178356  0.000169  3.942258  0.0  -0.184748  0.000178  3.960766  0.0  -0.081922  -0.174474  0.000196  3.93023  0.0
C  C26  1  0.51045303  0.78048648  0.65086866  1  -0.449341  -0.00036  3.626974  0.0  -0.524199  -0.000269  3.853931  0.0  -0.533982  -0.000143  3.85814  0.0  -0.246271  -0.516149  -0.000295  3.850226  0.0
C  C27  1  0.49606860  0.35695614  0.76047843  1  0.130878  0.000529  3.686779  0.001  0.109457  0.000372  3.933264  0.0  0.116944  0.000359  3.949797  0.0  0.049447  0.104543  0.00038  3.922657  0.0
C  C28  1  0.62043606  0.49675645  0.26703155  1  0.132541  -0.000505  3.681834  0.0  0.112254  -0.000384  3.928142  0.0  0.11979  -0.000359  3.944383  0.0  0.050323  0.10733  -0.000404  3.917714  0.0
C  C29  1  0.98784909  0.14988863  0.62561222  1  0.726597  0.000568  3.815179  0.001  0.701382  0.000377  4.109079  0.001  0.741946  0.000382  4.10337  0.001  0.211389  0.673832  0.000331  4.112659  0.0
C  C30  1  0.71461763  0.65176062  0.60201929  1  0.729108  0.000523  3.816662  0.001  0.700433  0.00032  4.115076  0.001  0.741461  0.000323  4.108762  0.001  0.213187  0.672513  0.000281  4.118845  0.001
C  C31  1  0.82631540  0.38917658  0.04861723  1  -0.16655  0.000395  3.716053  0.0  -0.183297  0.000189  3.955105  0.0  -0.190118  0.000212  3.974722  0.0  -0.083239  -0.178912  0.000186  3.942046  0.0
C  C32  1  0.92354554  0.38788536  0.14897091  1  0.120431  -0.000613  3.72851  -0.001  0.097253  -0.000472  3.982289  0.0  0.104216  -0.000427  4.000299  0.0  0.046313  0.09279  -0.000511  3.970366  0.0
C  C33  1  0.19314805  0.53125679  0.85730583  1  0.119512  0.000642  3.728642  0.001  0.095111  0.000462  3.984446  0.0  0.102094  0.000422  4.002908  0.0  0.047618  0.090657  0.000505  3.972234  0.0
C  C34  1  0.29084108  0.53759639  0.95501573  1  -0.168449  -0.000367  3.717193  0.0  -0.184745  -0.000149  3.958848  0.0  -0.191759  -0.000186  3.97799  0.0  -0.081791  -0.180221  -0.000148  3.946076  0.0
C  C35  1  0.60728106  0.08259861  0.37608966  1  -0.456642  0.000152  3.634696  0.0  -0.532438  0.000173  3.862914  0.0  -0.542406  6.6e-05  3.866436  0.0  -0.246945  -0.524269  0.000247  3.859779  0.0
C  C36  1  0.40386603  0.21591323  0.42214516  1  0.728126  -0.000351  3.82245  0.0  0.698085  -0.000252  4.123258  0.0  0.73908  -0.000263  4.116718  0.0  0.213565  0.670178  -0.000204  4.127214  0.0
C  C37  1  0.17355039  0.88836481  0.32348336  1  -0.438135  0.000251  3.629824  0.0  -0.514905  0.000205  3.86106  0.0  -0.52293  8.4e-05  3.863831  0.0  -0.241307  -0.508025  0.00027  3.858382  0.0
C  C38  1  0.94808710  0.97987602  0.68826162  1  -0.451812  -0.000852  3.634277  -0.001  -0.529509  -0.000624  3.866768  -0.001  -0.538889  -0.000385  3.870199  -0.001  -0.245743  -0.521608  -0.000724  3.863677  -0.001
C  C39  1  0.12992855  0.72162360  0.39003623  1  0.728854  -0.000501  3.805279  -0.001  0.701707  -0.000204  4.101858  -0.001  0.742044  -0.000242  4.095573  -0.001  0.21334  0.674264  -0.000141  4.105733  -0.001
N  N40  1  0.29286219  0.44216350  0.76140475  1  -0.29517  0.000768  3.221371  0.0  -0.247294  0.000411  3.501613  0.0  -0.267954  0.00049  3.516897  0.0  -0.333026  -0.234659  0.000241  3.492919  -0.001
N  N41  1  0.82339025  0.44122856  0.25661740  1  -0.294766  -0.001191  3.230976  0.0  -0.24677  -0.000681  3.510396  0.0  -0.266906  -0.000658  3.525049  0.0  -0.333422  -0.234314  -0.00069  3.502219  0.0
O  O42  1  0.25525623  0.26839195  0.35452147  1  -0.590152  0.078191  2.054737  0.102  -0.567036  0.05342  2.329353  0.077  -0.612322  0.041796  2.323083  0.064  -0.317588  -0.537267  0.056938  2.334031  0.079
O  O43  1  0.86346287  0.59666070  0.67005320  1  -0.58781  -0.080839  2.052506  -0.106  -0.565008  -0.055312  2.327977  -0.079  -0.611387  -0.04327  2.322311  -0.066  -0.318392  -0.53474  -0.058782  2.332058  -0.081
O  O44  1  0.72319788  0.60988248  0.49489784  1  -0.586668  0.075173  2.064324  0.099  -0.563009  0.051196  2.338178  0.074  -0.607839  0.040077  2.330931  0.061  -0.312876  -0.533527  0.054807  2.343494  0.076
O  O45  1  0.39572686  0.26420059  0.52713594  1  -0.58884  -0.076559  2.071708  -0.1  -0.563736  -0.05244  2.349221  -0.075  -0.609061  -0.041184  2.341671  -0.063  -0.31448  -0.53415  -0.055908  2.354531  -0.077
O  O46  1  0.93095207  0.21778518  0.51520735  1  -0.581988  0.076222  2.052728  0.1  -0.559968  0.05224  2.327255  0.075  -0.60551  0.04122  2.321639  0.063  -0.314936  -0.530386  0.054527  2.331803  0.075
O  O47  1  0.17938616  0.65895642  0.50230755  1  -0.59293  -0.069685  2.070867  -0.092  -0.56671  -0.048227  2.343752  -0.07  -0.61091  -0.0382  2.336939  -0.059  -0.311256  -0.538158  -0.050214  2.348998  -0.07
O  O48  1  0.04711326  0.65565941  0.32850925  1  -0.588378  0.078299  2.025698  0.102  -0.567942  0.053558  2.292169  0.077  -0.612652  0.042059  2.284958  0.064  -0.323637  -0.538786  0.055892  2.297648  0.077
O  O49  1  0.07524813  0.21165908  0.68706983  1  -0.586477  -0.080816  2.027024  -0.106  -0.566643  -0.05526  2.291733  -0.08  -0.611456  -0.043349  2.283954  -0.067  -0.322797  -0.538127  -0.057544  2.297736  -0.08
