# generated using pymatgen
data_Co3H13C11S(NO2)5
_symmetry_space_group_name_H-M   'P 1'
_cell_length_a   7.80637123
_cell_length_b   15.33004389
_cell_length_c   18.21558971
_cell_angle_alpha   72.35696132
_cell_angle_beta   77.62770821
_cell_angle_gamma   75.25633614
_symmetry_Int_Tables_number   1
_chemical_formula_structural   Co3H13C11S(NO2)5
_chemical_formula_sum   'Co12 H52 C44 S4 N20 O40'
_cell_volume   1986.59788135
_cell_formula_units_Z   4
loop_
 _symmetry_equiv_pos_site_id
 _symmetry_equiv_pos_as_xyz
  1  'x, y, z'
loop_
 _atom_site_type_symbol
 _atom_site_label
 _atom_site_symmetry_multiplicity
 _atom_site_fract_x
 _atom_site_fract_y
 _atom_site_fract_z
 _atom_site_occupancy
 _atom_site_pbe_bader_charge
 _atom_site_pbe_bader_spin_density
 _atom_site_pbe_cm5_charge
 _atom_site_pbe_ddec_charge
 _atom_site_pbe_ddec_spin_density
 _atom_site_pbe_ddec_sum_bond_order
 _atom_site_pbe_magmom
Co  Co0  1  0.14822460  0.87133237  0.89729541  1  1.269713  2.600225  0.641177  0.931646  2.814113  2.448797  2.583
Co  Co1  1  0.82132505  0.98224675  0.99152865  1  1.246059  2.601323  0.618142  0.94507  2.813098  2.372853  2.583
Co  Co2  1  0.89230217  0.74672640  0.98935511  1  1.224536  2.565644  0.652736  0.94378  2.73258  2.448676  2.521
Co  Co3  1  0.91682205  0.62873651  0.60272496  1  1.268908  2.600491  0.641566  0.932718  2.813968  2.446967  2.583
Co  Co4  1  0.79528035  0.51774925  0.50843482  1  1.247178  2.601443  0.618164  0.945393  2.813451  2.370568  2.583
Co  Co5  1  0.62853725  0.75326613  0.51065245  1  1.22361  2.565889  0.652984  0.944939  2.733992  2.446822  2.521
Co  Co6  1  0.85178047  0.12866524  0.10270925  1  1.269723  2.600249  0.641194  0.93173  2.814139  2.448632  2.583
Co  Co7  1  0.17867848  0.01774809  0.00847516  1  1.246013  2.601313  0.618116  0.944969  2.813059  2.372812  2.583
Co  Co8  1  0.10771182  0.25326848  0.01064716  1  1.224553  2.565649  0.65273  0.943686  2.732577  2.448821  2.521
Co  Co9  1  0.08316972  0.37126469  0.39727514  1  1.268958  2.600492  0.641528  0.932606  2.813981  2.447148  2.583
Co  Co10  1  0.20471425  0.48226458  0.49156089  1  1.247537  2.601363  0.618241  0.945565  2.8134  2.370696  2.583
Co  Co11  1  0.37143556  0.24673991  0.48934881  1  1.223935  2.565887  0.653013  0.945017  2.734036  2.446622  2.521
H  H12  1  0.05311826  0.82384988  0.04777609  1  0.591431  0.003765  0.312479  0.396201  0.002397  0.892643  0.004
H  H13  1  0.05439123  0.05989475  0.87246367  1  0.576553  0.004088  0.298036  0.390881  0.002644  0.912033  0.003
H  H14  1  0.20642576  0.00361224  0.76532813  1  0.640274  0.000939  0.300174  0.344732  0.000555  0.993343  0.001
H  H15  1  0.47641228  0.71486103  0.87447521  1  0.519929  5.9e-05  0.303871  0.325433  -9e-06  0.98852  0.0
H  H16  1  0.69298268  0.68117589  0.90264105  1  0.471084  0.000212  0.312564  0.315174  0.000178  0.959462  0.0
H  H17  1  0.50172360  0.94746340  0.09081703  1  0.495661  8.3e-05  0.3009  0.310554  -0.00011  0.987895  0.0
H  H18  1  0.66707721  0.84971843  0.10621918  1  0.478637  0.000559  0.302651  0.323184  0.000383  0.964731  0.0
H  H19  1  0.59450193  0.31770218  0.25280507  1  0.079896  0.000366  0.11061  0.113998  6.5e-05  1.017594  0.0
H  H20  1  0.92217766  0.50071441  0.08928624  1  0.118614  0.000331  0.113505  0.124458  -7.9e-05  1.001016  0.0
H  H21  1  0.57007039  0.58933539  0.28174283  1  0.138758  0.000422  0.118845  0.13007  0.000117  0.98842  0.0
H  H22  1  0.11486449  0.84971957  0.74068996  1  0.076856  0.001575  0.098327  0.102726  0.00032  1.035427  0.001
H  H23  1  0.11688233  0.96484374  0.67734671  1  0.065603  0.002132  0.099368  0.10194  0.0008  0.980233  0.001
H  H24  1  0.32188677  0.87910503  0.68591848  1  0.03497  0.002492  0.088944  0.084355  0.000852  1.041517  0.001
H  H25  1  0.92503325  0.67620168  0.45230937  1  0.587573  0.003801  0.313365  0.397318  0.002378  0.890471  0.004
H  H26  1  0.98670698  0.44008032  0.62755878  1  0.572507  0.004102  0.298228  0.39121  0.002624  0.911854  0.003
H  H27  1  0.97533241  0.49656047  0.73472561  1  0.643962  0.00093  0.30043  0.345135  0.000555  0.993585  0.001
H  H28  1  0.06575777  0.78535181  0.62541627  1  0.527009  5.9e-05  0.303378  0.324899  -8e-06  0.988047  0.0
H  H29  1  0.27702117  0.81884792  0.59733866  1  0.457669  0.00022  0.31229  0.314636  0.000172  0.960162  0.0
H  H30  1  0.53993359  0.55244670  0.40930432  1  0.500386  7.1e-05  0.301023  0.310344  -0.00011  0.987806  0.0
H  H31  1  0.62303642  0.65018832  0.39379752  1  0.48187  0.000551  0.3026  0.322859  0.000378  0.965409  0.0
H  H32  1  0.16509290  0.18212700  0.24736487  1  0.111231  0.000364  0.110449  0.114168  6.6e-05  1.017829  0.0
H  H33  1  0.51277187  0.99919763  0.41062274  1  0.099173  0.000332  0.114032  0.125358  -8e-05  1.000979  0.0
H  H34  1  0.44101621  0.91048646  0.21836553  1  0.090923  0.00042  0.118535  0.129426  0.000116  0.988638  0.0
H  H35  1  0.70513421  0.65039720  0.75941060  1  0.080503  0.00157  0.097533  0.101483  0.00032  1.034985  0.001
H  H36  1  0.75926878  0.53528849  0.82281568  1  0.06509  0.00215  0.099475  0.101652  0.000803  0.979933  0.001
H  H37  1  0.88702133  0.62116904  0.81400686  1  0.019557  0.002507  0.088653  0.083009  0.000854  1.04222  0.001
H  H38  1  0.94688172  0.17615055  0.95222672  1  0.591496  0.003765  0.312544  0.396269  0.002397  0.89264  0.004
H  H39  1  0.94560150  0.94010081  0.12753934  1  0.576477  0.004088  0.297973  0.390795  0.002644  0.912104  0.003
H  H40  1  0.79360270  0.99637922  0.23467196  1  0.640518  0.000937  0.300176  0.344746  0.000554  0.993301  0.001
H  H41  1  0.52359723  0.28513524  0.12552716  1  0.519971  5.9e-05  0.303836  0.325423  -9e-06  0.988702  0.0
H  H42  1  0.30702699  0.31881983  0.09735593  1  0.471192  0.000213  0.312575  0.315232  0.000178  0.959448  0.0
H  H43  1  0.49829055  0.05253774  0.90918537  1  0.495678  8.3e-05  0.30084  0.31047  -0.00011  0.987916  0.0
H  H44  1  0.33292937  0.15027858  0.89378163  1  0.478723  0.000558  0.302676  0.323175  0.000383  0.964752  0.0
H  H45  1  0.40550424  0.68229909  0.74719256  1  0.079911  0.000366  0.110603  0.114001  6.5e-05  1.017416  0.0
H  H46  1  0.07783385  0.49928674  0.91071587  1  0.118396  0.000331  0.113516  0.124465  -7.9e-05  1.000976  0.0
H  H47  1  0.42990473  0.41066800  0.71825337  1  0.138722  0.000421  0.118925  0.130201  0.000117  0.988454  0.0
H  H48  1  0.88515379  0.15027114  0.25931237  1  0.076678  0.001576  0.098328  0.10276  0.00032  1.035424  0.001
H  H49  1  0.88311873  0.03515395  0.32265446  1  0.065605  0.002132  0.09935  0.101908  0.0008  0.98033  0.001
H  H50  1  0.67812393  0.12089479  0.31408127  1  0.035083  0.002492  0.088947  0.084341  0.000852  1.041545  0.001
H  H51  1  0.07495424  0.32380031  0.54768710  1  0.587639  0.003798  0.313301  0.397244  0.002379  0.890551  0.004
H  H52  1  0.01328056  0.55991820  0.37243741  1  0.572619  0.004099  0.298209  0.391139  0.002623  0.911872  0.003
H  H53  1  0.02465766  0.50343854  0.26527847  1  0.643867  0.00093  0.300439  0.345141  0.000555  0.993602  0.001
H  H54  1  0.93423561  0.21463884  0.37458840  1  0.527287  5.9e-05  0.303346  0.324809  -8e-06  0.988145  0.0
H  H55  1  0.72296601  0.18114837  0.40266305  1  0.457804  0.000219  0.312308  0.314716  0.000172  0.960179  0.0
H  H56  1  0.46003388  0.44756248  0.59068297  1  0.490203  7.7e-05  0.300966  0.310356  -0.00011  0.9878  0.0
H  H57  1  0.37693905  0.34981730  0.60619261  1  0.481579  0.000552  0.302597  0.32288  0.000377  0.965419  0.0
H  H58  1  0.83491804  0.81787217  0.75263337  1  0.111513  0.000364  0.110493  0.11429  6.6e-05  1.01782  0.0
H  H59  1  0.48723537  0.00080769  0.58937931  1  0.098987  0.000332  0.11405  0.125383  -8e-05  1.001003  0.0
H  H60  1  0.55900647  0.08951620  0.78163187  1  0.091216  0.00042  0.118537  0.129428  0.000116  0.98866  0.0
H  H61  1  0.29485985  0.34960478  0.24058635  1  0.080581  0.00157  0.097526  0.101522  0.00032  1.035  0.001
H  H62  1  0.24072092  0.46471472  0.17718742  1  0.065121  0.00215  0.099468  0.101672  0.000803  0.979934  0.001
H  H63  1  0.11297456  0.37883498  0.18599162  1  0.019463  0.002508  0.088662  0.083025  0.000854  1.042145  0.001
C  C64  1  0.52146049  0.78544420  0.94414553  1  1.559849  0.024439  0.330412  0.561439  0.015342  4.111889  0.02
C  C65  1  0.52994430  0.86517242  0.02127169  1  1.455073  0.025478  0.318948  0.537355  0.01548  4.052646  0.02
C  C66  1  0.56563506  0.45178486  0.27421447  1  -0.020742  0.008229  -0.010286  -0.021922  0.004364  3.949109  0.006
C  C67  1  0.63592989  0.38471257  0.23187116  1  0.034573  -0.000991  -0.068916  -0.092468  -0.001707  3.909116  -0.001
C  C68  1  0.76204412  0.40231824  0.16477026  1  -0.041609  0.00849  -0.018221  -0.041115  0.004209  3.970009  0.007
C  C69  1  0.82110044  0.48716504  0.14045057  1  0.021278  -0.001562  -0.071773  -0.091209  -0.002246  3.935141  -0.001
C  C70  1  0.75369261  0.55225277  0.18408621  1  -0.160436  0.002388  -0.016676  -0.093509  0.00099  3.99789  0.002
C  C71  1  0.62382201  0.53641320  0.24963059  1  -0.043704  -0.000938  -0.065896  -0.078713  -0.001676  3.900638  -0.001
C  C72  1  0.43445315  0.43195015  0.34703799  1  1.537403  0.00637  0.221082  0.588617  0.004453  4.137715  0.005
C  C73  1  0.84218207  0.32899677  0.12163778  1  1.536553  -0.007165  0.222879  0.590355  -0.009661  4.145432  -0.005
C  C74  1  0.19138814  0.90532786  0.71732368  1  0.373209  0.002795  -0.156897  -0.125577  0.001505  3.895798  0.001
C  C75  1  0.25113563  0.71456770  0.55589196  1  1.506022  0.024386  0.329299  0.560067  0.015331  4.112396  0.02
C  C76  1  0.41637666  0.63483177  0.47875154  1  1.465467  0.025407  0.318447  0.536321  0.015464  4.054153  0.02
C  C77  1  0.29171499  0.04811101  0.22583543  1  -0.02042  0.00821  -0.010324  -0.022912  0.00436  3.950617  0.006
C  C78  1  0.25271738  0.11515742  0.26819598  1  -0.001272  -0.001004  -0.069087  -0.09287  -0.001728  3.910762  -0.001
C  C79  1  0.32922791  0.09750324  0.33532336  1  0.033306  0.008437  -0.016891  -0.03888  0.004202  3.970885  0.007
C  C80  1  0.44885729  0.01268552  0.35959726  1  -0.040997  -0.001572  -0.073435  -0.094719  -0.002285  3.938836  -0.001
C  C81  1  0.49018500  0.94763843  0.31593758  1  -0.187497  0.002374  -0.01655  -0.092677  0.000984  3.997324  0.002
C  C82  1  0.40989590  0.96346673  0.25041061  1  0.042511  -0.000968  -0.065682  -0.077292  -0.001709  3.900303  -0.001
C  C83  1  0.21338126  0.06805827  0.15302818  1  1.533004  0.006207  0.220678  0.588657  0.004362  4.142443  0.005
C  C84  1  0.29293779  0.17084349  0.37842868  1  1.534035  -0.007065  0.223793  0.592695  -0.009632  4.142042  -0.005
C  C85  1  0.81399907  0.59483893  0.78273611  1  0.382055  0.002797  -0.155459  -0.121947  0.001512  3.892183  0.001
C  C86  1  0.47855221  0.21455066  0.05585742  1  1.559006  0.02443  0.330308  0.561191  0.015339  4.11185  0.02
C  C87  1  0.47007003  0.13482169  0.97873348  1  1.455232  0.025467  0.318904  0.537212  0.015475  4.053082  0.02
C  C88  1  0.43435128  0.54821352  0.72578681  1  -0.020375  0.008227  -0.010335  -0.022048  0.004363  3.949033  0.006
C  C89  1  0.36406114  0.61528382  0.76812686  1  0.034729  -0.000991  -0.068876  -0.092367  -0.001707  3.909101  -0.001
C  C90  1  0.23794891  0.59768304  0.83522696  1  -0.040948  0.008488  -0.018276  -0.041253  0.004209  3.970054  0.007
C  C91  1  0.17890010  0.51283061  0.85954894  1  0.021219  -0.001564  -0.071745  -0.091123  -0.002249  3.935207  -0.001
C  C92  1  0.24630473  0.44774768  0.81591574  1  -0.158289  0.002386  -0.016672  -0.093569  0.00099  3.998436  0.002
C  C93  1  0.37616517  0.46357969  0.75036809  1  -0.045998  -0.000941  -0.065993  -0.07879  -0.001681  3.900697  -0.001
C  C94  1  0.56552404  0.56806142  0.65296428  1  1.537152  0.006369  0.221226  0.58887  0.004452  4.138003  0.005
C  C95  1  0.15782763  0.67100232  0.87836334  1  1.536093  -0.007163  0.222932  0.590485  -0.009661  4.14535  -0.005
C  C96  1  0.80861977  0.09466912  0.28267811  1  0.373395  0.002795  -0.156872  -0.125494  0.001505  3.896053  0.001
C  C97  1  0.74885649  0.28543272  0.44411159  1  1.506432  0.024373  0.329387  0.56022  0.015324  4.112327  0.02
C  C98  1  0.58360268  0.36517734  0.52123850  1  1.465463  0.025393  0.318419  0.536298  0.015455  4.054064  0.02
C  C99  1  0.70831370  0.95188964  0.77415915  1  -0.020205  0.008208  -0.01035  -0.023137  0.004359  3.950806  0.006
C  C100  1  0.74729254  0.88484102  0.73180307  1  -0.001916  -0.001004  -0.069234  -0.093054  -0.001728  3.911058  -0.001
C  C101  1  0.67078315  0.90249578  0.66468040  1  0.033029  0.008437  -0.016827  -0.038863  0.004202  3.970788  0.007
C  C102  1  0.55115876  0.98732061  0.64040048  1  -0.040998  -0.001575  -0.073418  -0.094664  -0.002288  3.938679  -0.001
C  C103  1  0.50982538  0.05236553  0.68406341  1  -0.187095  0.002374  -0.016587  -0.092698  0.000984  3.997454  0.002
C  C104  1  0.59011916  0.03653525  0.74958602  1  0.042217  -0.000969  -0.065617  -0.077143  -0.00171  3.900194  -0.001
C  C105  1  0.78664512  0.93193824  0.84696485  1  1.533376  0.006205  0.220671  0.588771  0.004361  4.142481  0.005
C  C106  1  0.70705495  0.82916190  0.62157087  1  1.534283  -0.007065  0.223858  0.592825  -0.009631  4.142081  -0.005
C  C107  1  0.18599609  0.40516366  0.21726388  1  0.38208  0.002798  -0.155508  -0.122058  0.001512  3.892196  0.001
S  S108  1  0.85870935  0.64820079  0.16746517  1  3.171017  0.004299  0.51764  1.168488  0.003553  6.167507  0.003
S  S109  1  0.67458466  0.85168383  0.33249534  1  3.17337  0.00433  0.517203  1.167385  0.003529  6.16445  0.003
S  S110  1  0.14129559  0.35180377  0.83253948  1  3.171216  0.004296  0.517569  1.168356  0.003551  6.167761  0.003
S  S111  1  0.32541761  0.14831739  0.66750432  1  3.173516  0.004331  0.517167  1.167457  0.003529  6.164359  0.003
N  N112  1  0.36802769  0.89729881  0.99915737  1  -0.809014  0.072472  -0.276886  -0.344652  0.038162  3.421102  0.054
N  N113  1  0.36247151  0.84606741  0.94783933  1  -0.786874  0.092435  -0.297623  -0.365719  0.048616  3.468977  0.069
N  N114  1  0.62920556  0.79429825  0.99012133  1  -1.218908  0.075335  -0.385965  -0.56925  0.038469  3.472613  0.047
N  N115  1  0.57346238  0.72621040  0.89832710  1  -1.322222  0.027202  -0.580491  -0.654201  0.012913  3.310868  0.019
N  N116  1  0.60200117  0.90284759  0.06504542  1  -1.227967  0.061361  -0.587675  -0.668051  0.03225  3.355828  0.048
N  N117  1  0.26442510  0.60273233  0.50085215  1  -0.792428  0.072305  -0.276198  -0.344473  0.038127  3.422583  0.054
N  N118  1  0.15642761  0.65393824  0.55221009  1  -0.800541  0.092478  -0.297637  -0.365674  0.048591  3.46815  0.069
N  N119  1  0.41372095  0.70569014  0.50991924  1  -1.236207  0.07518  -0.385115  -0.568142  0.038471  3.471715  0.047
N  N120  1  0.19801589  0.77393240  0.60159493  1  -1.259425  0.027155  -0.579127  -0.652235  0.012904  3.310689  0.019
N  N121  1  0.56987356  0.59711614  0.43501675  1  -1.236033  0.061311  -0.587821  -0.66798  0.032237  3.356808  0.048
N  N122  1  0.63198401  0.10269191  0.00084446  1  -0.809464  0.072489  -0.276799  -0.344556  0.038162  3.421254  0.054
N  N123  1  0.63753389  0.15392604  0.05216464  1  -0.786881  0.092425  -0.297583  -0.365596  0.04861  3.46908  0.069
N  N124  1  0.37080183  0.20570009  0.00988183  1  -1.219285  0.075346  -0.386009  -0.56922  0.038473  3.472602  0.047
N  N125  1  0.42653731  0.27378432  0.10168150  1  -1.321279  0.02719  -0.5805  -0.654251  0.012907  3.310839  0.019
N  N126  1  0.39801415  0.09715711  0.93495383  1  -1.227787  0.061358  -0.587588  -0.667795  0.032246  3.355766  0.048
N  N127  1  0.73555190  0.39727607  0.49913827  1  -0.792755  0.072299  -0.276195  -0.344511  0.038123  3.422361  0.054
N  N128  1  0.84356261  0.34606021  0.44778861  1  -0.800691  0.092444  -0.297686  -0.365709  0.048581  3.468337  0.069
N  N129  1  0.58626886  0.29431257  0.49007629  1  -1.235881  0.075187  -0.385135  -0.568132  0.038472  3.471735  0.047
N  N130  1  0.80197670  0.22605689  0.39840849  1  -1.25995  0.027146  -0.579196  -0.652398  0.0129  3.310491  0.019
N  N131  1  0.43010451  0.40288953  0.56497203  1  -1.225903  0.06132  -0.587819  -0.668088  0.032242  3.356884  0.048
O  O132  1  0.39832816  0.48764573  0.39036656  1  -1.157923  0.059533  -0.297837  -0.551926  0.030361  2.407191  0.053
O  O133  1  0.36649287  0.35981968  0.36151332  1  -1.175887  0.063319  -0.306771  -0.587032  0.031744  2.463488  0.05
O  O134  1  0.76075685  0.26315822  0.13270213  1  -1.174609  0.042063  -0.29192  -0.554592  0.021301  2.380989  0.039
O  O135  1  0.99074274  0.33777986  0.07588105  1  -1.149478  0.086875  -0.318444  -0.551431  0.044051  2.378134  0.067
O  O136  1  0.97230290  0.61764678  0.22945234  1  -1.306533  0.011536  -0.338248  -0.57529  0.005346  2.151953  0.009
O  O137  1  0.97123297  0.65421175  0.08929217  1  -1.314155  0.060765  -0.347429  -0.621285  0.030632  2.365588  0.045
O  O138  1  0.72081570  0.73138625  0.17103887  1  -1.326674  0.003003  -0.323459  -0.565495  0.001024  2.238229  0.002
O  O139  1  0.98149304  0.84545431  0.00552474  1  -1.1631  0.222963  -0.558969  -0.863654  0.120064  2.444584  0.184
O  O140  1  0.06236732  0.00787006  0.91916203  1  -1.173202  0.200695  -0.55999  -0.865994  0.108047  2.269099  0.172
O  O141  1  0.21793227  0.93405963  0.78149423  1  -1.144596  0.064651  -0.403189  -0.447309  0.033942  2.539723  0.053
O  O142  1  0.27619576  0.01239097  0.10966099  1  -1.159078  0.059513  -0.297425  -0.552031  0.03033  2.40853  0.053
O  O143  1  0.08790705  0.14023360  0.13857146  1  -1.172577  0.063321  -0.306284  -0.586699  0.031744  2.46618  0.05
O  O144  1  0.15671821  0.23666286  0.36738269  1  -1.176354  0.041993  -0.293754  -0.557065  0.021294  2.378806  0.039
O  O145  1  0.40459483  0.16212840  0.42413252  1  -1.145467  0.086759  -0.318394  -0.553138  0.044059  2.379021  0.067
O  O146  1  0.81949465  0.88227822  0.27044584  1  -1.320684  0.011559  -0.338157  -0.575051  0.005362  2.151659  0.009
O  O147  1  0.71544815  0.84553543  0.41063143  1  -1.307258  0.060759  -0.347395  -0.621274  0.030644  2.363942  0.045
O  O148  1  0.62311430  0.76857718  0.32892269  1  -1.319835  0.002999  -0.32275  -0.564359  0.00103  2.237641  0.002
O  O149  1  0.83261306  0.65456233  0.49445974  1  -1.15689  0.222638  -0.560374  -0.865561  0.119992  2.442115  0.184
O  O150  1  0.98940040  0.49213124  0.58088097  1  -1.169653  0.200847  -0.56033  -0.866296  0.108014  2.267199  0.172
O  O151  1  0.93322049  0.56608417  0.71853064  1  -1.144387  0.064593  -0.403631  -0.448418  0.033951  2.540786  0.053
O  O152  1  0.60165399  0.51235976  0.60962902  1  -1.157656  0.05955  -0.297902  -0.552114  0.030368  2.406721  0.053
O  O153  1  0.63347924  0.64018148  0.63848808  1  -1.176266  0.06326  -0.306838  -0.587114  0.031724  2.464292  0.05
O  O154  1  0.23924886  0.73684092  0.86729716  1  -1.174601  0.042058  -0.291929  -0.554609  0.021299  2.381048  0.039
O  O155  1  0.00927340  0.66221633  0.92412456  1  -1.149313  0.086872  -0.318451  -0.551486  0.044053  2.378087  0.067
O  O156  1  0.02768937  0.38235346  0.77055782  1  -1.306594  0.011536  -0.338254  -0.575241  0.005347  2.152042  0.009
O  O157  1  0.02876233  0.34578728  0.91071141  1  -1.314116  0.060767  -0.347464  -0.621293  0.030634  2.365594  0.045
O  O158  1  0.27917762  0.26861771  0.82896207  1  -1.326868  0.003004  -0.323355  -0.565355  0.001025  2.238209  0.002
O  O159  1  0.01850705  0.15454261  0.99447945  1  -1.163113  0.222957  -0.559008  -0.863685  0.120062  2.44458  0.184
O  O160  1  0.93763504  0.99212765  0.08083846  1  -1.173105  0.200698  -0.559913  -0.865891  0.108048  2.269194  0.172
O  O161  1  0.78208280  0.06593590  0.21850998  1  -1.144961  0.064666  -0.403208  -0.447408  0.033947  2.53983  0.053
O  O162  1  0.72381372  0.98760534  0.89034027  1  -1.159258  0.059526  -0.297417  -0.552113  0.030339  2.408338  0.053
O  O163  1  0.91210030  0.85976478  0.86143005  1  -1.172727  0.063296  -0.306275  -0.586688  0.031732  2.466301  0.05
O  O164  1  0.84327280  0.76333696  0.63261726  1  -1.176277  0.041999  -0.293784  -0.557162  0.021296  2.37876  0.039
O  O165  1  0.59540737  0.83787629  0.57586686  1  -1.145512  0.086746  -0.318421  -0.553175  0.044052  2.379148  0.067
O  O166  1  0.18051406  0.11772011  0.72955775  1  -1.32068  0.011558  -0.338247  -0.57518  0.005361  2.151455  0.009
O  O167  1  0.28456216  0.15445879  0.58936970  1  -1.307349  0.060753  -0.347289  -0.621248  0.030641  2.364053  0.045
O  O168  1  0.37689158  0.23142478  0.67107481  1  -1.319897  0.002999  -0.322726  -0.564383  0.001029  2.237616  0.002
O  O169  1  0.16737268  0.34545073  0.50553863  1  -1.157176  0.222655  -0.5603  -0.865498  0.119987  2.442141  0.184
O  O170  1  0.01061738  0.50786724  0.41911680  1  -1.169715  0.200835  -0.560335  -0.866202  0.108013  2.267177  0.172
O  O171  1  0.06676921  0.43391564  0.28146944  1  -1.144416  0.064601  -0.403557  -0.448332  0.033955  2.540822  0.053
