# generated using pymatgen
data_ZnH20C24N3(O3F2)2
_symmetry_space_group_name_H-M   'P 1'
_cell_length_a   14.69288152
_cell_length_b   16.10368447
_cell_length_c   19.31415424
_cell_angle_alpha   90.07147786
_cell_angle_beta   90.08872787
_cell_angle_gamma   89.69686735
_symmetry_Int_Tables_number   1
_chemical_formula_structural   ZnH20C24N3(O3F2)2
_chemical_formula_sum   'Zn2 H40 C48 N6 O12 F8'
_cell_volume   4569.83997181
_cell_formula_units_Z   2
loop_
 _symmetry_equiv_pos_site_id
 _symmetry_equiv_pos_as_xyz
  1  'x, y, z'
loop_
 _atom_site_type_symbol
 _atom_site_label
 _atom_site_symmetry_multiplicity
 _atom_site_fract_x
 _atom_site_fract_y
 _atom_site_fract_z
 _atom_site_occupancy
 _atom_site_pbe_bader_charge
 _atom_site_pbe_bader_spin_density
 _atom_site_pbe_cm5_charge
 _atom_site_pbe_ddec_charge
 _atom_site_pbe_ddec_spin_density
 _atom_site_pbe_ddec_sum_bond_order
 _atom_site_pbe_magmom
Zn  Zn0  1  0.40390384  0.50066394  0.49953842  1  1.3091  0  0.68494  0.892828  0  2.434555  0
Zn  Zn1  1  0.59724646  0.50038167  0.50007697  1  1.334627  0  0.684985  0.893382  0  2.421205  0
H  H2  1  0.35620847  0.46744829  0.71576082  1  0.110895  0  0.108256  0.129814  0  1.010455  0
H  H3  1  0.64352435  0.51563779  0.72188839  1  0.111443  0  0.108271  0.127421  0  1.02756  0
H  H4  1  0.44731515  0.07397184  0.60039946  1  0.05718  0  0.105047  0.113066  0  0.962032  0
H  H5  1  0.56692322  0.07362737  0.59548982  1  0.065118  0  0.10631  0.115275  0  0.959672  0
H  H6  1  0.08296848  0.63534957  0.51553659  1  0.088505  0  0.109517  0.115332  0  0.955944  0
H  H7  1  0.92536422  0.63372323  0.49944796  1  0.055345  0  0.107612  0.111123  0  0.959174  0
H  H8  1  0.92295730  0.43583065  0.40413030  1  0.071809  0  0.107976  0.109928  0  0.964558  0
H  H9  1  0.08132571  0.44397563  0.39989213  1  0.041201  0  0.10863  0.112125  0  0.96065  0
H  H10  1  0.91727198  0.54509492  0.39712230  1  0.07034  0  0.11039  0.115129  0  0.959248  0
H  H11  1  0.07575867  0.55347473  0.39873919  1  0.076048  0  0.11076  0.117516  0  0.954368  0
H  H12  1  0.92695574  0.36815599  0.50968380  1  0.046704  0  0.118725  0.07174  0  0.947134  0
H  H13  1  0.08066049  0.36760110  0.51149536  1  0.059418  0  0.111425  0.053942  0  0.970321  0
H  H14  1  0.91672620  0.59546642  0.58436790  1  0.078676  0  0.106222  0.109659  0  0.990063  0
H  H15  1  0.07532573  0.57793264  0.59318141  1  0.082068  0  0.108535  0.114389  0  0.976147  0
H  H16  1  0.35428183  0.48612720  0.28161868  1  0.154385  0  0.116543  0.149362  0  0.982265  0
H  H17  1  0.64748440  0.49809439  0.27800740  1  0.139019  0  0.116384  0.148835  0  0.982027  0
H  H18  1  0.64578781  0.06993489  0.48424096  1  0.088329  0  0.114283  0.089668  0  0.942804  0
H  H19  1  0.35285789  0.07049956  0.49644948  1  0.098489  0  0.112424  0.086197  0  0.942858  0
H  H20  1  0.44744796  0.92816038  0.60100769  1  0.088849  0  0.104848  0.118937  0  0.963814  0
H  H21  1  0.56737678  0.92779538  0.59621523  1  0.084303  0  0.104537  0.118903  0  0.964527  0
H  H22  1  0.96820133  0.50759788  0.65467424  1  0.040471  0  0.098005  0.053316  0  1.027668  0
H  H23  1  0.95143518  0.41931136  0.70668615  1  0.06102  0  0.102789  0.067229  0  0.968249  0
H  H24  1  0.78174021  0.43808624  0.69915262  1  0.057709  0  0.10062  0.145258  0  0.977901  0
H  H25  1  0.83604380  0.52528715  0.73748966  1  -0.001294  0  0.093359  0.126795  0  1.001794  0
H  H26  1  0.79600865  0.53039995  0.65039004  1  0.031136  0  0.087504  0.118894  0  1.021813  0
H  H27  1  0.16787025  0.31165003  0.59840938  1  0.03126  0  0.098921  0.056224  0  0.966433  0
H  H28  1  0.05488458  0.30234854  0.63243375  1  0.075498  0  0.099103  0.057647  0  0.97675  0
H  H29  1  0.17611575  0.28837500  0.72522943  1  0.033313  0  0.09733  0.129245  0  0.990358  0
H  H30  1  0.21267098  0.39126458  0.70676034  1  0.068233  0  0.098141  0.137264  0  0.996705  0
H  H31  1  0.10208949  0.37388337  0.74126439  1  0.030192  0  0.09219  0.119202  0  1.01222  0
H  H32  1  0.37818127  0.33579957  0.88920410  1  0.057167  0  0.095783  0.055267  0  0.97282  0
H  H33  1  0.31948048  0.33352854  0.80833566  1  0.045949  0  0.092008  0.043496  0  0.991645  0
H  H34  1  0.17606551  0.38274095  0.86853296  1  0.009269  0  0.090674  0.122672  0  1.005792  0
H  H35  1  0.21621243  0.28696199  0.90372221  1  0.038137  0  0.094156  0.124613  0  0.995621  0
H  H36  1  0.23488658  0.38178692  0.94919163  1  0.070743  0  0.096885  0.135321  0  0.984401  0
H  H37  1  0.63737783  0.63107614  0.88505234  1  0.028913  0  0.097603  0.05719  0  0.962899  0
H  H38  1  0.70360574  0.61332901  0.80911170  1  0.031221  0  0.094209  0.048262  0  0.986175  0
H  H39  1  0.82947305  0.55239453  0.88194804  1  0.037177  0  0.090682  0.121258  0  1.003628  0
H  H40  1  0.80218048  0.65487627  0.91066240  1  0.031697  0  0.094811  0.125598  0  0.994891  0
H  H41  1  0.76255287  0.56711522  0.95772469  1  0.056106  0  0.097314  0.136287  0  0.98286  0
C  C42  1  0.50068638  0.66225093  0.49875102  1  1.634694  0  0.221582  0.672092  0  4.237023  0
C  C43  1  0.49529998  0.47754376  0.93259741  1  0.993394  0  0.249677  0.289387  0  3.988395  0
C  C44  1  0.41794268  0.48306264  0.18111841  1  0.460091  0  0.109247  0.290635  0  4.053877  0
C  C45  1  0.57972268  0.48848024  0.17912099  1  0.470696  0  0.108863  0.290369  0  4.050983  0
C  C46  1  0.41770043  0.48744633  0.25265298  1  0.048692  0  -0.09659  -0.238568  0  3.971711  0
C  C47  1  0.58291782  0.49340413  0.25065541  1  -0.001906  0  -0.096358  -0.239442  0  3.969728  0
C  C48  1  0.50102538  0.49277765  0.28748449  1  0.029839  0  -0.001873  0.043897  0  3.959675  0
C  C49  1  0.49807187  0.48342089  0.14168171  1  0.119856  0  -0.018953  -0.209542  0  4.013998  0
C  C50  1  0.41160048  0.95290317  0.46410720  1  1.113791  0  0.201033  0.430779  0  3.838035  0
C  C51  1  0.58339604  0.95248083  0.45713086  1  1.093738  0  0.200897  0.43306  0  3.837687  0
C  C52  1  0.58402330  0.04923160  0.45710638  1  0.550758  0  0.028165  0.037557  0  3.825162  0
C  C53  1  0.41035153  0.04964566  0.46427009  1  0.534927  0  0.027704  0.046466  0  3.810366  0
C  C54  1  0.49895136  0.24829109  0.49917029  1  0.172749  0  -0.041496  -0.16565  0  3.959074  0
C  C55  1  0.50022630  0.91748872  0.49722607  1  0.062149  0  -0.010857  -0.080215  0  3.955924  0
C  C56  1  0.49966281  0.08298659  0.49599435  1  0.087281  0  -0.006227  0.065326  0  3.947896  0
C  C57  1  0.50150408  0.49825457  0.63413427  1  1.60429  0  0.217582  0.596813  0  4.160757  0
C  C58  1  0.50523858  0.04863746  0.57123348  1  0.011442  0  -0.147636  -0.192251  0  3.840932  0
C  C59  1  0.50547374  0.95254389  0.57204859  1  -0.115071  0  -0.153915  -0.181146  0  3.855086  0
C  C60  1  0.49938751  0.17298901  0.49688963  1  -0.340396  0  -0.042647  -0.064554  0  4.064844  0
C  C61  1  0.50041336  0.82760216  0.49691797  1  -0.348866  0  -0.046723  -0.047792  0  4.087928  0
C  C62  1  0.50045615  0.75234410  0.49809366  1  0.198466  0  -0.035138  -0.151382  0  3.937281  0
C  C63  1  0.94774080  0.58326526  0.53383125  1  -0.081215  0  -0.146176  -0.184559  0  3.848598  0
C  C64  1  0.05250770  0.58010635  0.53911534  1  -0.036756  0  -0.1449  -0.185173  0  3.839878  0
C  C65  1  0.94710151  0.49401158  0.42726638  1  -0.020251  0  -0.142291  -0.185652  0  3.850325  0
C  C66  1  0.05218656  0.49821450  0.42648830  1  -0.06485  0  -0.142392  -0.186366  0  3.846628  0
C  C67  1  0.91269654  0.50037681  0.50309001  1  0.181467  0  0.008802  0.042992  0  3.893661  0
C  C68  1  0.08834599  0.50137030  0.50174437  1  0.135349  0  0.012139  0.057294  0  3.909879  0
C  C69  1  0.05643425  0.42238885  0.54074678  1  0.486433  0  0.013181  0.060807  0  3.825708  0
C  C70  1  0.94875471  0.42088549  0.54188756  1  0.552902  0  0.016501  0.075016  0  3.80995  0
C  C71  1  0.18694431  0.50167465  0.50129028  1  0.85022  0  0.247029  0.308348  0  3.870964  0
C  C72  1  0.81427827  0.49948876  0.50277795  1  0.86602  0  0.246626  0.308744  0  3.873778  0
C  C73  1  0.49764522  0.33838080  0.49994700  1  1.624181  0  0.219278  0.671655  0  4.239663  0
C  C74  1  0.50219418  0.49720964  0.36525006  1  1.540707  0  0.220076  0.595972  0  4.160569  0
C  C75  1  0.41839179  0.47548160  0.74568595  1  -0.055604  0  -0.096989  -0.221966  0  3.965252  0
C  C76  1  0.58048590  0.50298020  0.74931007  1  0.006835  0  -0.097697  -0.226692  0  3.969311  0
C  C77  1  0.41716443  0.46866380  0.81743877  1  0.493152  0  0.086604  0.238332  0  4.070534  0
C  C78  1  0.57916287  0.49677805  0.82126424  1  0.49969  0  0.085944  0.237082  0  4.067468  0
C  C79  1  0.49741083  0.47985504  0.85627985  1  -0.015233  0  -0.015576  -0.188039  0  3.978897  0
C  C80  1  0.50011079  0.49261918  0.71162834  1  -0.000869  0  -0.012863  0.020586  0  3.985318  0
C  C81  1  0.49602823  0.47978671  0.06546181  1  0.959571  0  0.244691  0.289473  0  3.992851  0
C  C82  1  0.92024988  0.45744481  0.66571698  1  0.395957  0  -0.072155  0.080441  0  3.922311  0
C  C83  1  0.82817261  0.48984131  0.68913189  1  -0.03215  0  -0.246844  -0.408042  0  3.969977  0
C  C84  1  0.11699306  0.34052068  0.63311985  1  0.380146  0  -0.066788  0.084161  0  3.930892  0
C  C85  1  0.15403775  0.34934587  0.70583751  1  -0.058533  0  -0.239949  -0.392002  0  3.968463  0
C  C86  1  0.32099126  0.36340591  0.85984332  1  0.385939  0  -0.06686  0.093945  0  3.925533  0
C  C87  1  0.23171634  0.35322280  0.89762821  1  -0.055925  0  -0.242611  -0.394499  0  3.982552  0
C  C88  1  0.69067471  0.59101154  0.86219918  1  0.424423  0  -0.066575  0.089671  0  3.932915  0
C  C89  1  0.77634766  0.59125056  0.90567838  1  -0.064487  0  -0.24223  -0.395394  0  3.986603  0
N  N90  1  0.44289027  0.53540672  0.96437519  1  -0.499376  0  -0.155151  -0.143044  0  3.170781  0
N  N91  1  0.54415985  0.41809411  0.96533524  1  -0.467517  0  -0.157735  -0.149666  0  3.177197  0
N  N92  1  0.44302040  0.53637714  0.03280302  1  -0.538915  0  -0.15891  -0.14996  0  3.180147  0
N  N93  1  0.54492105  0.41950222  0.03394139  1  -0.638145  0  -0.160641  -0.152145  0  3.173444  0
N  N94  1  0.26569195  0.50187797  0.49967621  1  -1.130247  0  -0.284073  -0.297284  0  3.124868  0
N  N95  1  0.73550228  0.49881082  0.50117427  1  -1.220691  0  -0.283401  -0.298775  0  3.121618  0
O  O96  1  0.42312716  0.62766385  0.50017041  1  -1.139976  0  -0.314167  -0.545743  0  2.247304  0
O  O97  1  0.57852861  0.62738353  0.49785483  1  -1.126284  0  -0.314569  -0.547033  0  2.252806  0
O  O98  1  0.42459887  0.49704056  0.60366688  1  -1.162823  0  -0.317411  -0.549117  0  2.330284  0
O  O99  1  0.57907802  0.50318298  0.60519744  1  -1.158937  0  -0.31732  -0.548893  0  2.316182  0
O  O100  1  0.41938842  0.37239780  0.49880382  1  -1.142483  0  -0.316204  -0.54822  0  2.245027  0
O  O101  1  0.57482204  0.37370602  0.50154652  1  -1.137357  0  -0.313748  -0.546538  0  2.250525  0
O  O102  1  0.42504961  0.49945532  0.39506149  1  -1.155763  0  -0.314768  -0.547142  0  2.324469  0
O  O103  1  0.57976517  0.49797724  0.39448830  1  -1.157862  0  -0.314697  -0.544903  0  2.309981  0
O  O104  1  0.90948198  0.40299225  0.60631944  1  -1.045043  0  -0.225303  -0.246378  0  2.461199  0
O  O105  1  0.09594895  0.42251075  0.60722420  1  -1.045624  0  -0.217415  -0.246379  0  2.507012  0
O  O106  1  0.33666047  0.45132100  0.85102937  1  -1.074507  0  -0.208218  -0.249122  0  2.488768  0
O  O107  1  0.65744797  0.50671599  0.85973189  1  -1.064474  0  -0.204177  -0.241424  0  2.496251  0
F  F108  1  0.33705889  0.47538212  0.14746888  1  -0.625548  0  -0.105423  -0.147726  0  1.322634  0
F  F109  1  0.65915368  0.49141864  0.14310221  1  -0.629996  0  -0.106271  -0.148485  0  1.318881  0
F  F110  1  0.39619539  0.07975973  0.39775537  1  -0.60478  0  -0.128463  -0.148569  0  1.301837  0
F  F111  1  0.58791384  0.07914769  0.38978287  1  -0.598425  0  -0.128049  -0.145231  0  1.304789  0
F  F112  1  0.39901896  0.92263450  0.39883604  1  -0.610955  0  -0.105056  -0.173077  0  1.316166  0
F  F113  1  0.58670898  0.92212078  0.39122838  1  -0.607953  0  -0.104817  -0.173155  0  1.314254  0
F  F114  1  0.66220936  0.92505620  0.49020267  1  -0.618036  0  -0.123449  -0.209679  0  1.253315  0
F  F115  1  0.33814425  0.92578908  0.50332005  1  -0.621784  0  -0.123583  -0.2099  0  1.254189  0
