# generated using pymatgen
data_Tl2H20Au2C43N3Cl20O
_symmetry_space_group_name_H-M   'P 1'
_cell_length_a   11.97639866
_cell_length_b   15.53302585
_cell_length_c   36.26490363
_cell_angle_alpha   90.00023185
_cell_angle_beta   89.99946630
_cell_angle_gamma   105.40410310
_symmetry_Int_Tables_number   1
_chemical_formula_structural   Tl2H20Au2C43N3Cl20O
_chemical_formula_sum   'Tl8 H80 Au8 C172 N12 Cl80 O4'
_cell_volume   6503.99623497
_cell_formula_units_Z   4
loop_
 _symmetry_equiv_pos_site_id
 _symmetry_equiv_pos_as_xyz
  1  'x, y, z'
loop_
 _atom_site_type_symbol
 _atom_site_label
 _atom_site_symmetry_multiplicity
 _atom_site_fract_x
 _atom_site_fract_y
 _atom_site_fract_z
 _atom_site_occupancy
 _atom_site_pbe_bader_charge
 _atom_site_pbe_bader_spin_density
 _atom_site_pbe_cm5_charge
 _atom_site_pbe_ddec_charge
 _atom_site_pbe_ddec_spin_density
 _atom_site_pbe_ddec_sum_bond_order
 _atom_site_pbe_magmom
Tl  Tl0  1  0.44410706  0.67903359  0.38967447  1  0.695674  0  0.237437  0.424544  0  1.557216  0
Tl  Tl1  1  0.44410972  0.17902258  0.11032901  1  0.695701  0  0.237423  0.424498  0  1.55736  0
Tl  Tl2  1  0.55589544  0.32098075  0.61033167  1  0.695793  0  0.237415  0.424452  0  1.55739  0
Tl  Tl3  1  0.55590089  0.82097229  0.88967382  1  0.695752  0  0.237445  0.424537  0  1.557307  0
Tl  Tl4  1  0.94219538  0.67050045  0.35946156  1  0.716545  0  0.235622  0.483777  0  1.715431  0
Tl  Tl5  1  0.94219745  0.17049959  0.14053706  1  0.716546  0  0.235632  0.483782  0  1.715449  0
Tl  Tl6  1  0.05780547  0.32949985  0.64053934  1  0.716545  0  0.235625  0.483775  0  1.715427  0
Tl  Tl7  1  0.05780423  0.82949601  0.85946273  1  0.716592  0  0.235619  0.483795  0  1.715462  0
H  H8  1  0.64748969  0.88226148  0.37779563  1  0.114392  0  0.103098  0.071974  0  1.033886  0
H  H9  1  0.64748679  0.38225457  0.12220262  1  0.114296  0  0.103112  0.071972  0  1.033939  0
H  H10  1  0.35252233  0.11775146  0.62220499  1  0.114228  0  0.10307  0.071864  0  1.033941  0
H  H11  1  0.35251298  0.61774975  0.87779966  1  0.114145  0  0.103113  0.071944  0  1.033928  0
H  H12  1  0.76513084  0.97203265  0.32825976  1  0.100622  0  0.104464  0.11352  0  1.008884  0
H  H13  1  0.76513124  0.47202723  0.17173746  1  0.100611  0  0.104439  0.113506  0  1.009046  0
H  H14  1  0.23487251  0.02797231  0.67173701  1  0.100667  0  0.104438  0.113519  0  1.009058  0
H  H15  1  0.23486746  0.52797643  0.82826509  1  0.100587  0  0.104517  0.113548  0  1.009021  0
H  H16  1  0.47014068  0.87974307  0.25564253  1  0.08352  0  0.099473  0.108726  0  1.029272  0
H  H17  1  0.47014983  0.37974455  0.24435708  1  0.083675  0  0.099479  0.108731  0  1.029259  0
H  H18  1  0.52984792  0.12024392  0.74435892  1  0.083522  0  0.099436  0.10862  0  1.029295  0
H  H19  1  0.52984995  0.62025509  0.75564492  1  0.083638  0  0.099522  0.10876  0  1.029286  0
H  H20  1  0.36668551  0.79165285  0.30825299  1  0.098854  0  0.095049  0.068761  0  1.052389  0
H  H21  1  0.36668989  0.29165551  0.19174789  1  0.098847  0  0.095063  0.068754  0  1.052476  0
H  H22  1  0.63330820  0.20834616  0.69175288  1  0.098869  0  0.095048  0.068747  0  1.052592  0
H  H23  1  0.63331096  0.70834479  0.80825438  1  0.098891  0  0.09499  0.068622  0  1.052328  0
H  H24  1  0.57145516  0.76601199  0.47866204  1  0.091369  0  0.108178  0.081183  0  0.995173  0
H  H25  1  0.57145608  0.26597255  0.02133679  1  0.090718  0  0.108208  0.081285  0  0.995005  0
H  H26  1  0.42854934  0.23403849  0.52133473  1  0.090774  0  0.10829  0.081366  0  0.995032  0
H  H27  1  0.42853539  0.73399434  0.97865804  1  0.091256  0  0.108186  0.081245  0  0.995145  0
H  H28  1  0.42996599  0.02069376  0.44016625  1  0.083656  0  0.107643  0.116525  0  1.002192  0
H  H29  1  0.42998190  0.52066261  0.05982486  1  0.084346  0  0.107685  0.11647  0  1.002603  0
H  H30  1  0.57002091  0.97934948  0.55982196  1  0.084526  0  0.107664  0.116441  0  1.002744  0
H  H31  1  0.57003490  0.47931682  0.94016860  1  0.083669  0  0.107657  0.116534  0  1.002525  0
H  H32  1  0.57359821  0.88346023  0.52450453  1  0.09665  0  0.106971  0.114671  0  1.007333  0
H  H33  1  0.57361589  0.38342431  0.97549054  1  0.095612  0  0.10713  0.114716  0  1.007795  0
H  H34  1  0.42638440  0.11658505  0.47549003  1  0.095499  0  0.107216  0.11491  0  1.007685  0
H  H35  1  0.42640056  0.61654708  0.02450402  1  0.095901  0  0.107011  0.114654  0  1.007719  0
H  H36  1  0.43431180  0.89667800  0.39817242  1  0.097675  0  0.111135  0.082615  0  1.02034  0
H  H37  1  0.43431005  0.39665159  0.10182044  1  0.09809  0  0.111008  0.08249  0  1.020883  0
H  H38  1  0.56569033  0.10336111  0.60181800  1  0.098145  0  0.111066  0.082587  0  1.020772  0
H  H39  1  0.56569438  0.60332592  0.89817412  1  0.09759  0  0.111104  0.082556  0  1.020527  0
H  H40  1  0.72422978  0.98190250  0.16271823  1  0.082468  0  0.103771  0.075315  0  1.034068  0
H  H41  1  0.72424545  0.48192033  0.33728133  1  0.082165  0  0.103744  0.075254  0  1.033967  0
H  H42  1  0.27574146  0.01807323  0.83727936  1  0.082346  0  0.103661  0.075207  0  1.033981  0
H  H43  1  0.27575457  0.51807997  0.66272205  1  0.082266  0  0.103743  0.075296  0  1.033985  0
H  H44  1  0.59539485  0.90322424  0.21249459  1  0.070402  0  0.104627  0.11623  0  1.002732  0
H  H45  1  0.59540354  0.40322788  0.28750606  1  0.070538  0  0.104549  0.116011  0  1.002826  0
H  H46  1  0.40458780  0.09676012  0.78750549  1  0.070361  0  0.104546  0.115947  0  1.002776  0
H  H47  1  0.40459552  0.59676975  0.71249842  1  0.070605  0  0.104554  0.116024  0  1.002836  0
H  H48  1  0.82572160  0.07426399  0.29036190  1  0.079362  0  0.106444  0.116128  0  0.999129  0
H  H49  1  0.82571822  0.57426097  0.20963222  1  0.079283  0  0.106506  0.116229  0  0.999003  0
H  H50  1  0.17427699  0.92573230  0.70963072  1  0.079209  0  0.106482  0.116242  0  0.998993  0
H  H51  1  0.17427490  0.42573402  0.79037005  1  0.079587  0  0.106501  0.116236  0  0.999122  0
H  H52  1  0.94691312  0.14257635  0.23748890  1  0.101658  0  0.095497  0.065624  0  1.055468  0
H  H53  1  0.94691747  0.64258284  0.26250140  1  0.101606  0  0.095425  0.065552  0  1.055419  0
H  H54  1  0.05306667  0.85741405  0.76249932  1  0.101377  0  0.09542  0.065471  0  1.055515  0
H  H55  1  0.05308124  0.35741613  0.73750033  1  0.101558  0  0.095389  0.065485  0  1.055467  0
H  H56  1  0.91478965  0.57265137  0.45164376  1  0.062325  0  0.095955  0.075761  0  0.98921  0
H  H57  1  0.91479326  0.07265218  0.04835423  1  0.062272  0  0.095967  0.075803  0  0.989216  0
H  H58  1  0.08520418  0.42734562  0.54835521  1  0.062303  0  0.095941  0.075786  0  0.989269  0
H  H59  1  0.08521366  0.92734874  0.95164060  1  0.062303  0  0.095955  0.075758  0  0.989123  0
H  H60  1  0.04366746  0.57255681  0.42640692  1  0.053674  0  0.070511  0.032118  0  1.080727  0
H  H61  1  0.04366884  0.07255571  0.07359126  1  0.05368  0  0.070518  0.032102  0  1.08069  0
H  H62  1  0.95633184  0.42744618  0.57359371  1  0.053701  0  0.07051  0.03208  0  1.08072  0
H  H63  1  0.95633736  0.92744789  0.92640413  1  0.053552  0  0.070518  0.032123  0  1.080699  0
H  H64  1  0.03426991  0.44361400  0.46395028  1  0.046143  0  0.080885  0.087002  0  1.017307  0
H  H65  1  0.03426633  0.94361303  0.03604609  1  0.046187  0  0.080825  0.08703  0  1.017242  0
H  H66  1  0.96573725  0.55638759  0.53604841  1  0.046122  0  0.080849  0.087065  0  1.017358  0
H  H67  1  0.96574415  0.05638853  0.96395232  1  0.046385  0  0.08081  0.086962  0  1.01741  0
H  H68  1  0.88080632  0.41562991  0.46668135  1  0.054798  0  0.074781  0.075196  0  1.044752  0
H  H69  1  0.88080246  0.91563027  0.03331789  1  0.054571  0  0.074824  0.075334  0  1.044613  0
H  H70  1  0.11920214  0.58436832  0.53331734  1  0.054765  0  0.074831  0.075334  0  1.044612  0
H  H71  1  0.11920921  0.08436994  0.96667859  1  0.054958  0  0.074862  0.07537  0  1.044602  0
H  H72  1  0.87303633  0.32206073  0.41596503  1  0.028589  0  0.077884  0.083007  0  1.01819  0
H  H73  1  0.87304527  0.82206119  0.08403380  1  0.028618  0  0.077904  0.083081  0  1.018253  0
H  H74  1  0.12696618  0.67793955  0.58403284  1  0.028467  0  0.07787  0.083038  0  1.018292  0
H  H75  1  0.12695998  0.17794443  0.91596545  1  0.028463  0  0.077875  0.083066  0  1.018279  0
H  H76  1  0.02347739  0.36250569  0.40765916  1  0.05338  0  0.07989  0.081255  0  1.01835  0
H  H77  1  0.02348455  0.86251355  0.09233931  1  0.053363  0  0.079867  0.081298  0  1.018192  0
H  H78  1  0.97652727  0.63749123  0.59234063  1  0.053527  0  0.079854  0.081166  0  1.018318  0
H  H79  1  0.97651951  0.13748873  0.90765938  1  0.053474  0  0.079865  0.081278  0  1.018198  0
H  H80  1  0.99865654  0.47068280  0.36547869  1  0.039625  0  0.079922  0.048136  0  1.031948  0
H  H81  1  0.99864341  0.97068159  0.13452139  1  0.039776  0  0.079964  0.04827  0  1.031935  0
H  H82  1  0.00136667  0.52932403  0.63452276  1  0.039342  0  0.079981  0.04824  0  1.03189  0
H  H83  1  0.00136743  0.02932801  0.86547565  1  0.039234  0  0.08  0.048209  0  1.03195  0
H  H84  1  0.84954701  0.40960003  0.36364403  1  0.048516  0  0.087806  0.058205  0  1.037481  0
H  H85  1  0.84953395  0.90959681  0.13635309  1  0.048302  0  0.08775  0.058155  0  1.037444  0
H  H86  1  0.15047715  0.59040479  0.63635218  1  0.048152  0  0.087737  0.058189  0  1.037351  0
H  H87  1  0.15047653  0.09041413  0.86364450  1  0.048164  0  0.087755  0.058186  0  1.037192  0
Au  Au88  1  0.19344395  0.68359625  0.37411518  1  0.062996  0  0.233123  -0.053591  0  3.076118  0
Au  Au89  1  0.19344546  0.18360672  0.12588990  1  0.063131  0  0.233115  -0.053585  0  3.076376  0
Au  Au90  1  0.80655821  0.31639600  0.62588627  1  0.062931  0  0.233052  -0.053682  0  3.076138  0
Au  Au91  1  0.80655967  0.81639622  0.87411265  1  0.062954  0  0.233057  -0.053703  0  3.076266  0
Au  Au92  1  0.70834499  0.70197243  0.35614607  1  0.088928  0  0.23687  -0.033699  0  3.0009  0
Au  Au93  1  0.70835363  0.20197623  0.14385664  1  0.088602  0  0.23682  -0.033674  0  3.001041  0
Au  Au94  1  0.29164979  0.29802724  0.64385676  1  0.088787  0  0.236853  -0.03358  0  3.001043  0
Au  Au95  1  0.29165139  0.79801935  0.85614564  1  0.088629  0  0.236854  -0.03366  0  3.001022  0
C  C96  1  0.71446137  0.67178567  0.41177558  1  -0.004318  0  -0.173701  -0.264732  0  4.069942  0
C  C97  1  0.71447401  0.17178455  0.08822733  1  -0.003616  0  -0.173658  -0.264777  0  4.06992  0
C  C98  1  0.28553401  0.32821332  0.58822808  1  -0.003935  0  -0.17363  -0.264695  0  4.069717  0
C  C99  1  0.28553898  0.82820293  0.91177550  1  -0.004119  0  -0.17365  -0.264682  0  4.069677  0
C  C100  1  0.66369051  0.58575807  0.42579520  1  0.035481  0  -0.00711  0.09345  0  4.060685  0
C  C101  1  0.66370448  0.08575488  0.07420910  1  0.035176  0  -0.007191  0.093469  0  4.060362  0
C  C102  1  0.33629761  0.41424165  0.57420956  1  0.03503  0  -0.007122  0.093514  0  4.060369  0
C  C103  1  0.33630910  0.91423193  0.92579483  1  0.035126  0  -0.007064  0.093455  0  4.060633  0
C  C104  1  0.67184766  0.56293003  0.46304082  1  0.186887  0  -0.005497  0.023791  0  4.049082  0
C  C105  1  0.67185884  0.06292539  0.03696341  1  0.187434  0  -0.005377  0.023979  0  4.049405  0
C  C106  1  0.32813748  0.43706837  0.53696284  1  0.187606  0  -0.005415  0.023905  0  4.049226  0
C  C107  1  0.32814891  0.93706147  0.96304024  1  0.187268  0  -0.005546  0.023863  0  4.049372  0
C  C108  1  0.73227538  0.62872369  0.48782204  1  0.116429  0  -0.005832  0.024495  0  4.071334  0
C  C109  1  0.73228056  0.12871900  0.01218074  1  0.116474  0  -0.005897  0.024192  0  4.071682  0
C  C110  1  0.26771345  0.37127335  0.51218299  1  0.116643  0  -0.005843  0.024359  0  4.071544  0
C  C111  1  0.26771898  0.87127060  0.98782126  1  0.117326  0  -0.005758  0.024433  0  4.071345  0
C  C112  1  0.78531078  0.71553303  0.47494071  1  0.123094  0  -0.008063  0.016358  0  4.063994  0
C  C113  1  0.78531406  0.21553108  0.02506261  1  0.122926  0  -0.00799  0.016536  0  4.06405  0
C  C114  1  0.21468496  0.28446462  0.52506350  1  0.122617  0  -0.00804  0.016567  0  4.063832  0
C  C115  1  0.21468512  0.78445986  0.97494077  1  0.122652  0  -0.008054  0.016492  0  4.063936  0
C  C116  1  0.77533605  0.73513395  0.43738156  1  0.040747  0  -0.009647  0.087086  0  4.063158  0
C  C117  1  0.77534094  0.23513011  0.06262044  1  0.040132  0  -0.009633  0.08703  0  4.063264  0
C  C118  1  0.22466218  0.26486369  0.56262347  1  0.040446  0  -0.00977  0.086803  0  4.063109  0
C  C119  1  0.22466396  0.76485810  0.93738266  1  0.040665  0  -0.009694  0.087  0  4.063042  0
C  C120  1  0.70670895  0.72654778  0.30014484  1  0.049762  0  -0.168924  -0.225305  0  4.015021  0
C  C121  1  0.70671465  0.22655715  0.19985598  1  0.051023  0  -0.168968  -0.225458  0  4.015003  0
C  C122  1  0.29328369  0.27345057  0.69985688  1  0.049641  0  -0.169122  -0.225716  0  4.014876  0
C  C123  1  0.29328501  0.77344449  0.80014547  1  0.050837  0  -0.168992  -0.225576  0  4.014964  0
C  C124  1  0.61447102  0.68067117  0.27774395  1  0.043367  0  -0.008992  0.093717  0  4.039932  0
C  C125  1  0.61447552  0.18068130  0.22225736  1  0.042247  0  -0.008953  0.093895  0  4.039997  0
C  C126  1  0.38552127  0.31932852  0.72225888  1  0.043455  0  -0.009018  0.093815  0  4.039872  0
C  C127  1  0.38552676  0.81932300  0.77774327  1  0.042693  0  -0.009019  0.093794  0  4.039853  0
C  C128  1  0.61405875  0.68947808  0.23912039  1  0.115024  0  -0.008557  0.018396  0  4.056063  0
C  C129  1  0.61406602  0.18948499  0.26088121  1  0.115401  0  -0.008605  0.018296  0  4.056155  0
C  C130  1  0.38593210  0.31052228  0.76088079  1  0.115162  0  -0.008555  0.018384  0  4.056206  0
C  C131  1  0.38593756  0.81052064  0.73912107  1  0.114861  0  -0.008554  0.018416  0  4.056004  0
C  C132  1  0.71204266  0.74428142  0.22155234  1  0.119648  0  -0.007714  0.024486  0  4.076718  0
C  C133  1  0.71205327  0.24428501  0.27845016  1  0.119995  0  -0.007953  0.024167  0  4.076748  0
C  C134  1  0.28794807  0.25571627  0.77844994  1  0.120011  0  -0.007915  0.02422  0  4.076886  0
C  C135  1  0.28795174  0.75571994  0.72155074  1  0.11997  0  -0.007841  0.024292  0  4.076614  0
C  C136  1  0.80620994  0.79226033  0.24287174  1  0.150446  0  -0.007287  0.014839  0  4.059837  0
C  C137  1  0.80622255  0.29226317  0.25712751  1  0.150292  0  -0.007153  0.015067  0  4.059596  0
C  C138  1  0.19378246  0.20773735  0.75712943  1  0.150248  0  -0.007116  0.015169  0  4.059586  0
C  C139  1  0.19378055  0.70774113  0.74287201  1  0.150372  0  -0.00713  0.015067  0  4.059424  0
C  C140  1  0.80015568  0.78407489  0.28150855  1  0.014453  0  -0.009881  0.086248  0  4.052079  0
C  C141  1  0.80016469  0.28408096  0.21849319  1  0.014225  0  -0.009903  0.086149  0  4.051879  0
C  C142  1  0.19983517  0.21592079  0.71849455  1  0.01455  0  -0.009742  0.086355  0  4.051477  0
C  C143  1  0.19983758  0.71592334  0.78150743  1  0.014454  0  -0.009825  0.086381  0  4.051648  0
C  C144  1  0.19291997  0.77274761  0.41675042  1  0.046403  0  -0.170402  -0.24544  0  4.044485  0
C  C145  1  0.19292097  0.27275325  0.08325289  1  0.046545  0  -0.170371  -0.245387  0  4.044882  0
C  C146  1  0.80708743  0.22724058  0.58325241  1  0.000543  0  -0.170318  -0.24532  0  4.044907  0
C  C147  1  0.80709142  0.72724428  0.91674856  1  0.000564  0  -0.170324  -0.245321  0  4.044848  0
C  C148  1  0.17276943  0.85649867  0.40976995  1  0.056863  0  -0.011778  0.082617  0  4.070507  0
C  C149  1  0.17276738  0.35650101  0.09023081  1  0.056818  0  -0.011761  0.0827  0  4.070815  0
C  C150  1  0.82723713  0.14349891  0.59023123  1  0.056834  0  -0.011727  0.082687  0  4.070678  0
C  C151  1  0.82724298  0.64350257  0.90976953  1  0.056865  0  -0.011729  0.082746  0  4.070716  0
C  C152  1  0.16329309  0.91679574  0.43774444  1  0.12371  0  -0.009622  0.019654  0  4.064564  0
C  C153  1  0.16329062  0.41679464  0.06225452  1  0.124121  0  -0.009639  0.019549  0  4.06462  0
C  C154  1  0.83670919  0.08319450  0.56225370  1  0.123808  0  -0.009703  0.019534  0  4.064565  0
C  C155  1  0.83671285  0.58319894  0.93774555  1  0.123726  0  -0.009645  0.019597  0  4.064407  0
C  C156  1  0.17740858  0.89463121  0.47473885  1  0.121723  0  -0.006601  0.027644  0  4.075654  0
C  C157  1  0.17740723  0.39462327  0.02526086  1  0.121133  0  -0.006538  0.02776  0  4.075881  0
C  C158  1  0.82259131  0.10537110  0.52525984  1  0.121559  0  -0.006559  0.027706  0  4.075784  0
C  C159  1  0.82259101  0.60536968  0.97473921  1  0.121716  0  -0.006525  0.027848  0  4.075671  0
C  C160  1  0.20355189  0.81359129  0.48283637  1  0.129863  0  -0.006425  0.025622  0  4.042856  0
C  C161  1  0.20355040  0.31358466  0.01716504  1  0.13047  0  -0.006463  0.025573  0  4.043121  0
C  C162  1  0.79645395  0.18640897  0.51716480  1  0.129864  0  -0.006424  0.025531  0  4.042777  0
C  C163  1  0.79645129  0.68640626  0.98283613  1  0.129674  0  -0.006405  0.025522  0  4.042934  0
C  C164  1  0.20955857  0.75439226  0.45398776  1  0.062078  0  -0.008894  0.092727  0  4.043659  0
C  C165  1  0.20955962  0.25439040  0.04601381  1  0.061673  0  -0.008944  0.092605  0  4.043838  0
C  C166  1  0.79044597  0.24560667  0.54601479  1  0.108292  0  -0.008859  0.092787  0  4.043631  0
C  C167  1  0.79044694  0.74560718  0.95398709  1  0.108236  0  -0.008946  0.092674  0  4.04356  0
C  C168  1  0.19571114  0.60074467  0.32928278  1  -0.040322  0  -0.172995  -0.253886  0  4.055025  0
C  C169  1  0.19571037  0.10075934  0.17072187  1  -0.040137  0  -0.173123  -0.254175  0  4.055095  0
C  C170  1  0.80429233  0.39924891  0.67071812  1  -0.039885  0  -0.173115  -0.254137  0  4.055426  0
C  C171  1  0.80428750  0.89924432  0.82928123  1  -0.039905  0  -0.173051  -0.254056  0  4.055408  0
C  C172  1  0.22029468  0.51717870  0.33128764  1  0.118957  0  -0.011789  0.086448  0  4.056454  0
C  C173  1  0.22029135  0.01719070  0.16871569  1  0.12031  0  -0.011697  0.086733  0  4.056044  0
C  C174  1  0.77971378  0.48281954  0.66870968  1  0.11862  0  -0.011693  0.086632  0  4.056106  0
C  C175  1  0.77970652  0.98281296  0.83128824  1  0.119285  0  -0.011738  0.086665  0  4.05623  0
C  C176  1  0.23258265  0.46703249  0.29992033  1  0.094869  0  -0.011673  0.02247  0  4.049326  0
C  C177  1  0.23257868  0.96704349  0.20008127  1  0.093998  0  -0.011767  0.02251  0  4.049064  0
C  C178  1  0.76742570  0.53296775  0.70007726  1  0.095047  0  -0.011605  0.022655  0  4.049063  0
C  C179  1  0.76742192  0.03296082  0.79992211  1  0.094775  0  -0.011667  0.022546  0  4.04924  0
C  C180  1  0.21768861  0.50030220  0.26468770  1  0.146909  0  -0.00834  0.026361  0  4.085752  0
C  C181  1  0.21768645  0.00031109  0.23531478  1  0.147251  0  -0.008396  0.026011  0  4.085491  0
C  C182  1  0.78231307  0.49970277  0.73530851  1  0.147011  0  -0.008376  0.0263  0  4.085495  0
C  C183  1  0.78231344  0.99969591  0.76468915  1  0.146498  0  -0.008355  0.02625  0  4.085632  0
C  C184  1  0.18786180  0.58147769  0.26140420  1  0.139533  0  -0.007683  0.025446  0  4.057608  0
C  C185  1  0.18786182  0.08148591  0.23860017  1  0.138931  0  -0.007553  0.025759  0  4.057095  0
C  C186  1  0.81213500  0.41852062  0.73859615  1  0.13957  0  -0.00764  0.025424  0  4.057327  0
C  C187  1  0.81213748  0.91851707  0.76140294  1  0.13911  0  -0.007614  0.025487  0  4.05722  0
C  C188  1  0.17833020  0.62963792  0.29348376  1  0.066949  0  -0.012254  0.086915  0  4.050612  0
C  C189  1  0.17833024  0.12965071  0.20652100  1  0.067562  0  -0.012124  0.087115  0  4.05089  0
C  C190  1  0.82166625  0.37035705  0.70651439  1  0.066496  0  -0.012306  0.087005  0  4.050714  0
C  C191  1  0.82166596  0.87035297  0.79348293  1  0.066697  0  -0.01227  0.08701  0  4.050743  0
C  C192  1  0.61097949  0.88391462  0.35029554  1  0.457482  0  0.035607  0.087171  0  4.000497  0
C  C193  1  0.61098750  0.38391710  0.14970309  1  0.456959  0  0.035598  0.087393  0  4.000362  0
C  C194  1  0.38902361  0.11608968  0.64970480  1  0.457339  0  0.035597  0.087393  0  4.000575  0
C  C195  1  0.38900870  0.61608658  0.85029918  1  0.457647  0  0.035587  0.087306  0  4.000288  0
C  C196  1  0.67608673  0.93514269  0.32252732  1  -0.053547  0  -0.085338  -0.163236  0  3.942754  0
C  C197  1  0.67608626  0.43513998  0.17746928  1  -0.053513  0  -0.085379  -0.163424  0  3.943327  0
C  C198  1  0.32391102  0.06485829  0.67746917  1  -0.053598  0  -0.085271  -0.163272  0  3.942866  0
C  C199  1  0.32390876  0.56486036  0.82253383  1  -0.054293  0  -0.085464  -0.163488  0  3.943383  0
C  C200  1  0.62866926  0.93357369  0.28709258  1  -0.009987  0  0.007842  0.104324  0  3.970173  0
C  C201  1  0.62867295  0.43357375  0.21290526  1  -0.00982  0  0.007882  0.104337  0  3.970007  0
C  C202  1  0.37132731  0.06641928  0.71290749  1  -0.010024  0  0.007816  0.104217  0  3.97002  0
C  C203  1  0.37132552  0.56642456  0.78709701  1  -0.009735  0  0.007824  0.104358  0  3.969968  0
C  C204  1  0.51427056  0.88200847  0.28203245  1  0.018276  0  -0.086249  -0.165913  0  3.930525  0
C  C205  1  0.51427149  0.38201057  0.21796897  1  0.017949  0  -0.086296  -0.165899  0  3.930298  0
C  C206  1  0.48572578  0.11798383  0.71796983  1  0.018174  0  -0.086209  -0.165614  0  3.930481  0
C  C207  1  0.48572805  0.61798839  0.78203331  1  0.01824  0  -0.086262  -0.165865  0  3.930227  0
C  C208  1  0.45526343  0.83307502  0.31153485  1  0.46629  0  0.037759  0.09717  0  3.974894  0
C  C209  1  0.45525838  0.33307439  0.18846556  1  0.466626  0  0.037855  0.097382  0  3.974709  0
C  C210  1  0.54474479  0.16692723  0.68846991  1  0.466315  0  0.037757  0.097112  0  3.975024  0
C  C211  1  0.54473497  0.66692596  0.81153755  1  0.466585  0  0.037832  0.09732  0  3.974892  0
C  C212  1  0.54065543  0.82386456  0.47117170  1  0.478115  0  0.042302  0.093193  0  3.991726  0
C  C213  1  0.54065496  0.32382650  0.02882402  1  0.47839  0  0.042283  0.093227  0  3.991767  0
C  C214  1  0.45934799  0.17618994  0.52882093  1  0.477654  0  0.042143  0.093109  0  3.99177  0
C  C215  1  0.45934151  0.67614504  0.97117054  1  0.478355  0  0.042361  0.09318  0  3.991501  0
C  C216  1  0.46267323  0.96617635  0.45037084  1  -0.028646  0  -0.083046  -0.165137  0  3.933909  0
C  C217  1  0.46268325  0.46614833  0.04962344  1  -0.029329  0  -0.083107  -0.164878  0  3.93402  0
C  C218  1  0.53732366  0.03386682  0.54962206  1  -0.037177  0  -0.08312  -0.164812  0  3.934514  0
C  C219  1  0.53732702  0.53382445  0.95036974  1  -0.028718  0  -0.083016  -0.165101  0  3.93397  0
C  C220  1  0.50110081  0.96401473  0.48679718  1  0.010909  0  0.009397  0.102384  0  3.974161  0
C  C221  1  0.50111289  0.46397786  0.01319449  1  0.052474  0  0.009185  0.101694  0  3.974465  0
C  C222  1  0.49889024  0.03603316  0.51319269  1  0.052599  0  0.009069  0.10144  0  3.974682  0
C  C223  1  0.49889690  0.53599358  0.98679869  1  0.011208  0  0.009188  0.102053  0  3.973977  0
C  C224  1  0.54126030  0.89023020  0.49691620  1  -0.076225  0  -0.085121  -0.173237  0  3.96024  0
C  C225  1  0.54126967  0.39019198  0.00307852  1  -0.075436  0  -0.085216  -0.173268  0  3.961193  0
C  C226  1  0.45873278  0.10982103  0.50307615  1  -0.075337  0  -0.085292  -0.173461  0  3.961045  0
C  C227  1  0.45873345  0.60977952  0.99691741  1  -0.075947  0  -0.085018  -0.173024  0  3.960385  0
C  C228  1  0.46483800  0.89680104  0.42649645  1  0.503538  0  0.042589  0.098726  0  3.967222  0
C  C229  1  0.46483726  0.39677050  0.07349935  1  0.502559  0  0.042799  0.09877  0  3.967804  0
C  C230  1  0.53517091  0.10324071  0.57349811  1  0.509517  0  0.042772  0.098684  0  3.967517  0
C  C231  1  0.53516658  0.60320299  0.92649493  1  0.503016  0  0.042602  0.098818  0  3.967229  0
C  C232  1  0.74490363  0.99951418  0.19150831  1  0.476504  0  0.038962  0.085784  0  3.995688  0
C  C233  1  0.74491342  0.49952726  0.30848681  1  0.476756  0  0.039066  0.085901  0  3.995739  0
C  C234  1  0.25506308  0.00046293  0.80848597  1  0.476961  0  0.039238  0.085998  0  3.996079  0
C  C235  1  0.25508065  0.50047509  0.69151492  1  0.476655  0  0.038975  0.085715  0  3.995815  0
C  C236  1  0.67188119  0.95649020  0.21950074  1  -0.015177  0  -0.086426  -0.168914  0  3.945297  0
C  C237  1  0.67189447  0.45649914  0.28049867  1  -0.014853  0  -0.086332  -0.168691  0  3.945652  0
C  C238  1  0.32809932  0.04349752  0.78049713  1  -0.014878  0  -0.08636  -0.168577  0  3.945265  0
C  C239  1  0.32810566  0.54350383  0.71950582  1  -0.014763  0  -0.086253  -0.168585  0  3.945441  0
C  C240  1  0.69951411  0.98089848  0.25630931  1  -0.001988  0  0.008739  0.104692  0  3.96479  0
C  C241  1  0.69951792  0.48090133  0.24368951  1  -0.002035  0  0.008772  0.104748  0  3.964884  0
C  C242  1  0.30047330  0.01908986  0.74368773  1  -0.001379  0  0.00869  0.104571  0  3.9651  0
C  C243  1  0.30047793  0.51909900  0.75631388  1  -0.001805  0  0.008667  0.104628  0  3.964925  0
C  C244  1  0.80019487  0.04991091  0.26264394  1  -0.028505  0  -0.084332  -0.166689  0  3.934523  0
C  C245  1  0.80019384  0.54991199  0.23735160  1  -0.031824  0  -0.084498  -0.166991  0  3.934741  0
C  C246  1  0.19979967  0.95008341  0.73735062  1  -0.031831  0  -0.08441  -0.166978  0  3.934868  0
C  C247  1  0.19980106  0.45008567  0.76265095  1  -0.032256  0  -0.084365  -0.166881  0  3.934881  0
C  C248  1  0.86843537  0.08889757  0.23298406  1  0.528926  0  0.037476  0.095428  0  3.983408  0
C  C249  1  0.86843389  0.58890211  0.26700941  1  0.531924  0  0.037637  0.095612  0  3.983397  0
C  C250  1  0.13155049  0.91109346  0.76700746  1  0.531661  0  0.037615  0.095787  0  3.983431  0
C  C251  1  0.13156220  0.41109889  0.73299315  1  0.531705  0  0.037607  0.095608  0  3.9835  0
C  C252  1  0.95497003  0.53309931  0.43339434  1  0.346659  0  -0.083951  0.030938  0  3.857174  0
C  C253  1  0.95497065  0.03310020  0.06660373  1  0.346575  0  -0.083962  0.031021  0  3.857155  0
C  C254  1  0.04503415  0.46690096  0.56660463  1  0.346298  0  -0.08394  0.031083  0  3.857286  0
C  C255  1  0.04503746  0.96690406  0.93339220  1  0.34689  0  -0.0839  0.031068  0  3.856927  0
C  C256  1  0.95502433  0.44125418  0.44833542  1  -0.045475  0  -0.175912  -0.175399  0  3.897556  0
C  C257  1  0.95502509  0.94125725  0.05166281  1  -0.045431  0  -0.175991  -0.175749  0  3.897649  0
C  C258  1  0.04497616  0.55874277  0.55166382  1  -0.045148  0  -0.176006  -0.175833  0  3.897875  0
C  C259  1  0.04498313  0.05874500  0.94833450  1  -0.045964  0  -0.175949  -0.175612  0  3.897689  0
C  C260  1  0.94415675  0.38292001  0.41320280  1  -0.05111  0  -0.173902  -0.172016  0  3.890526  0
C  C261  1  0.94415537  0.88291988  0.08679454  1  -0.051288  0  -0.173846  -0.172088  0  3.890499  0
C  C262  1  0.05585587  0.61708287  0.58679534  1  -0.051173  0  -0.173797  -0.171816  0  3.8904  0
C  C263  1  0.05585213  0.11708505  0.91320333  1  -0.050684  0  -0.17389  -0.172148  0  3.890579  0
C  C264  1  0.92028375  0.44280551  0.38211801  1  0.398956  0  -0.082063  0.029886  0  3.843241  0
C  C265  1  0.92028415  0.94280815  0.11788033  1  0.399101  0  -0.082083  0.029798  0  3.843333  0
C  C266  1  0.07972626  0.55719472  0.61788068  1  0.399447  0  -0.082076  0.029729  0  3.843226  0
C  C267  1  0.07972133  0.05719813  0.88211809  1  0.399748  0  -0.082108  0.029901  0  3.843227  0
N  N268  1  0.50234709  0.83298951  0.34508981  1  -1.22636  0  -0.317864  -0.251215  0  3.432345  0
N  N269  1  0.50234009  0.33298543  0.15490852  1  -1.226095  0  -0.317949  -0.251528  0  3.431747  0
N  N270  1  0.49765922  0.16701677  0.65491109  1  -1.226127  0  -0.317865  -0.251316  0  3.432083  0
N  N271  1  0.49765885  0.66701890  0.84509182  1  -1.226265  0  -0.317889  -0.251294  0  3.431917  0
N  N272  1  0.50337259  0.82651202  0.43642907  1  -1.224269  0  -0.312975  -0.239583  0  3.415007  0
N  N273  1  0.50336939  0.32647611  0.06356566  1  -1.224059  0  -0.313071  -0.239632  0  3.415342  0
N  N274  1  0.49663881  0.17353908  0.56356383  1  -1.223043  0  -0.312983  -0.239489  0  3.414699  0
N  N275  1  0.49662898  0.67349608  0.93642835  1  -1.223798  0  -0.313094  -0.239719  0  3.414813  0
N  N276  1  0.84257175  0.06406421  0.19788210  1  -1.23741  0  -0.315682  -0.241347  0  3.42442  0
N  N277  1  0.84258026  0.56407617  0.30211251  1  -1.237371  0  -0.315762  -0.241333  0  3.424501  0
N  N278  1  0.15740816  0.93592418  0.80211136  1  -1.237452  0  -0.315779  -0.241481  0  3.425194  0
N  N279  1  0.15741820  0.43592682  0.69788977  1  -1.237248  0  -0.315712  -0.241255  0  3.424742  0
Cl  Cl280  1  0.58649588  0.50325260  0.39629454  1  -0.211277  0  -0.001372  -0.071611  0  1.677211  0
Cl  Cl281  1  0.58649205  0.00325567  0.10370957  1  -0.211395  0  -0.001347  -0.071606  0  1.677185  0
Cl  Cl282  1  0.41350615  0.49674634  0.60370884  1  -0.211346  0  -0.001338  -0.071591  0  1.677192  0
Cl  Cl283  1  0.41350690  0.99673459  0.89629106  1  -0.211193  0  -0.001347  -0.071563  0  1.677145  0
Cl  Cl284  1  0.61243808  0.45595420  0.47833080  1  -0.173678  0  -0.000967  -0.046895  0  1.712455  0
Cl  Cl285  1  0.61243537  0.95595452  0.02167292  1  -0.173587  0  -0.001  -0.046948  0  1.712618  0
Cl  Cl286  1  0.38756003  0.54404075  0.52167092  1  -0.173496  0  -0.001041  -0.047009  0  1.712489  0
Cl  Cl287  1  0.38755525  0.04404049  0.97832908  1  -0.17357  0  -0.001035  -0.047009  0  1.712491  0
Cl  Cl288  1  0.74215084  0.60293772  0.53350777  1  -0.179989  0  0.004726  -0.04245  0  1.687334  0
Cl  Cl289  1  0.74215851  0.10292929  0.96649621  1  -0.180226  0  0.004756  -0.042352  0  1.687449  0
Cl  Cl290  1  0.25784097  0.39706064  0.46649671  1  -0.18011  0  0.004747  -0.042416  0  1.687281  0
Cl  Cl291  1  0.25783461  0.89706102  0.03350606  1  -0.180301  0  0.004703  -0.042462  0  1.687321  0
Cl  Cl292  1  0.86087037  0.79547483  0.50497190  1  -0.164119  0  -0.004431  -0.046718  0  1.682424  0
Cl  Cl293  1  0.86088323  0.29546915  0.99503068  1  -0.163988  0  -0.004503  -0.046795  0  1.682437  0
Cl  Cl294  1  0.13911882  0.20452086  0.49503423  1  -0.16396  0  -0.004421  -0.046748  0  1.682461  0
Cl  Cl295  1  0.13911180  0.70452181  0.00497022  1  -0.164242  0  -0.004453  -0.046764  0  1.682564  0
Cl  Cl296  1  0.84283543  0.84239447  0.42217953  1  -0.204661  0  -0.005141  -0.054819  0  1.648539  0
Cl  Cl297  1  0.84284872  0.34239196  0.07782301  1  -0.204634  0  -0.005147  -0.054761  0  1.648373  0
Cl  Cl298  1  0.15715911  0.15760453  0.57782688  1  -0.204696  0  -0.005125  -0.054755  0  1.648569  0
Cl  Cl299  1  0.15715690  0.65759825  0.92217982  1  -0.204936  0  -0.005131  -0.054792  0  1.648362  0
Cl  Cl300  1  0.49458838  0.60824358  0.29805820  1  -0.217974  0  0.00287  -0.056346  0  1.761501  0
Cl  Cl301  1  0.49459855  0.10824690  0.20194583  1  -0.217802  0  0.002858  -0.056408  0  1.761696  0
Cl  Cl302  1  0.50540294  0.39175812  0.70194573  1  -0.217906  0  0.002905  -0.05633  0  1.761527  0
Cl  Cl303  1  0.50540241  0.89175607  0.79805755  1  -0.217952  0  0.002891  -0.056343  0  1.76152  0
Cl  Cl304  1  0.49708209  0.63308714  0.21333994  1  -0.171382  0  -0.007508  -0.053034  0  1.671881  0
Cl  Cl305  1  0.49709878  0.13308737  0.28666467  1  -0.171361  0  -0.007412  -0.052934  0  1.67192  0
Cl  Cl306  1  0.50290067  0.36691395  0.78666482  1  -0.171361  0  -0.007427  -0.052971  0  1.671913  0
Cl  Cl307  1  0.50290813  0.86691823  0.71333761  1  -0.171347  0  -0.007481  -0.053023  0  1.671816  0
Cl  Cl308  1  0.71683205  0.75153265  0.17426254  1  -0.155898  0  0.002409  -0.051254  0  1.625181  0
Cl  Cl309  1  0.71684126  0.25153375  0.32573968  1  -0.156107  0  0.002522  -0.051105  0  1.625315  0
Cl  Cl310  1  0.28316130  0.24846769  0.82573919  1  -0.156029  0  0.002455  -0.051192  0  1.625394  0
Cl  Cl311  1  0.28316590  0.74846784  0.67426177  1  -0.155966  0  0.002446  -0.051204  0  1.625351  0
Cl  Cl312  1  0.92674373  0.85868960  0.22153225  1  -0.178555  0  0.007981  -0.028842  0  1.688235  0
Cl  Cl313  1  0.92674993  0.35869724  0.27846868  1  -0.178762  0  0.008011  -0.028808  0  1.688207  0
Cl  Cl314  1  0.07325164  0.14130940  0.77847168  1  -0.178748  0  0.00801  -0.028844  0  1.688202  0
Cl  Cl315  1  0.07325496  0.64130503  0.72153084  1  -0.178667  0  0.007996  -0.028858  0  1.688204  0
Cl  Cl316  1  0.91548388  0.84809006  0.30695094  1  -0.217175  0  -0.004456  -0.080972  0  1.763901  0
Cl  Cl317  1  0.91548870  0.34809874  0.19304919  1  -0.217162  0  -0.004483  -0.080931  0  1.763838  0
Cl  Cl318  1  0.08450566  0.15190429  0.69305189  1  -0.217278  0  -0.004522  -0.081008  0  1.763726  0
Cl  Cl319  1  0.08450894  0.65190425  0.80694923  1  -0.217334  0  -0.004528  -0.081022  0  1.763782  0
Cl  Cl320  1  0.16055047  0.88872958  0.36445483  1  -0.2188  0  -0.021028  -0.078374  0  1.749406  0
Cl  Cl321  1  0.16055660  0.38874207  0.13554547  1  -0.218875  0  -0.021029  -0.078395  0  1.749466  0
Cl  Cl322  1  0.83945241  0.11125530  0.63554441  1  -0.218866  0  -0.021036  -0.078408  0  1.749379  0
Cl  Cl323  1  0.83946150  0.61126212  0.86445488  1  -0.218849  0  -0.021079  -0.078505  0  1.7494  0
Cl  Cl324  1  0.13685966  0.01763737  0.42743786  1  -0.179328  0  -0.01625  -0.056043  0  1.62851  0
Cl  Cl325  1  0.13686925  0.51764113  0.07255910  1  -0.179648  0  -0.016263  -0.056016  0  1.628535  0
Cl  Cl326  1  0.86312335  0.98235033  0.57255807  1  -0.179482  0  -0.016215  -0.055959  0  1.628743  0
Cl  Cl327  1  0.86313076  0.48235449  0.92743876  1  -0.179431  0  -0.016234  -0.056019  0  1.628633  0
Cl  Cl328  1  0.16445727  0.96636882  0.50939530  1  -0.159621  0  -0.003082  -0.052546  0  1.715311  0
Cl  Cl329  1  0.16445942  0.46635851  0.99060282  1  -0.159646  0  -0.0031  -0.052583  0  1.715222  0
Cl  Cl330  1  0.83554203  0.03363885  0.49060118  1  -0.15973  0  -0.003095  -0.052567  0  1.715304  0
Cl  Cl331  1  0.83553823  0.53363043  0.00939643  1  -0.159731  0  -0.003101  -0.05261  0  1.715233  0
Cl  Cl332  1  0.22997288  0.78972974  0.52774530  1  -0.190818  0  0.006787  -0.044726  0  1.660567  0
Cl  Cl333  1  0.22997243  0.28971537  0.97225590  1  -0.190798  0  0.006795  -0.044708  0  1.660509  0
Cl  Cl334  1  0.77004402  0.21028516  0.47225588  1  -0.190747  0  0.006736  -0.04474  0  1.660523  0
Cl  Cl335  1  0.77002735  0.71027489  0.02774473  1  -0.190774  0  0.0068  -0.044682  0  1.660535  0
Cl  Cl336  1  0.24270854  0.65539676  0.46535205  1  -0.221683  0  0.006563  -0.068321  0  1.761124  0
Cl  Cl337  1  0.24270955  0.15539151  0.03465310  1  -0.221612  0  0.006564  -0.068301  0  1.761211  0
Cl  Cl338  1  0.75729945  0.34460482  0.53465381  1  -0.221776  0  0.006534  -0.068339  0  1.761175  0
Cl  Cl339  1  0.75729428  0.84460073  0.96534890  1  -0.221722  0  0.006542  -0.068319  0  1.761151  0
Cl  Cl340  1  0.23944022  0.47355813  0.37423598  1  -0.218985  0  0.000378  -0.065025  0  1.71205  0
Cl  Cl341  1  0.23942184  0.97356965  0.12576671  1  -0.219521  0  0.000288  -0.065211  0  1.712095  0
Cl  Cl342  1  0.76058014  0.52644068  0.62576106  1  -0.219038  0  0.000398  -0.065009  0  1.712075  0
Cl  Cl343  1  0.76057330  0.02643337  0.87423722  1  -0.219212  0  0.000301  -0.06519  0  1.712159  0
Cl  Cl344  1  0.26774883  0.36704979  0.30375696  1  -0.178445  0  -0.010839  -0.0588  0  1.650442  0
Cl  Cl345  1  0.26772617  0.86705489  0.19624243  1  -0.178193  0  -0.010794  -0.058802  0  1.650486  0
Cl  Cl346  1  0.73226071  0.63294911  0.69623843  1  -0.178409  0  -0.010887  -0.058944  0  1.650475  0
Cl  Cl347  1  0.73227408  0.13295077  0.80376123  1  -0.178298  0  -0.010861  -0.05886  0  1.650397  0
Cl  Cl348  1  0.23880649  0.44409360  0.22590466  1  -0.165988  0  0.008116  -0.028493  0  1.844504  0
Cl  Cl349  1  0.23879280  0.94409490  0.27409743  1  -0.166143  0  0.008126  -0.028445  0  1.844517  0
Cl  Cl350  1  0.76119555  0.55591003  0.77409100  1  -0.166124  0  0.008117  -0.028496  0  1.844521  0
Cl  Cl351  1  0.76120662  0.05591076  0.72590733  1  -0.165611  0  0.008134  -0.028489  0  1.844496  0
Cl  Cl352  1  0.16578647  0.62076313  0.21845834  1  -0.175889  0  -0.006645  -0.047042  0  1.637166  0
Cl  Cl353  1  0.16578795  0.12076948  0.28154699  1  -0.175992  0  -0.006713  -0.047152  0  1.636889  0
Cl  Cl354  1  0.83419903  0.37923861  0.78154174  1  -0.175831  0  -0.006631  -0.047037  0  1.63733  0
Cl  Cl355  1  0.83421266  0.87923483  0.71845666  1  -0.175702  0  -0.006663  -0.047053  0  1.637053  0
Cl  Cl356  1  0.14566486  0.73116518  0.28787544  1  -0.210305  0  0.011167  -0.06555  0  1.889316  0
Cl  Cl357  1  0.14567510  0.23118126  0.21213208  1  -0.210763  0  0.011173  -0.065545  0  1.889378  0
Cl  Cl358  1  0.85432421  0.26882783  0.71212794  1  -0.210158  0  0.011185  -0.065529  0  1.889091  0
Cl  Cl359  1  0.85432027  0.76882242  0.78787103  1  -0.210218  0  0.011209  -0.065469  0  1.889203  0
O  O360  1  0.88603363  0.51517796  0.40006579  1  -1.022935  0  -0.234314  -0.231207  0  2.435088  0
O  O361  1  0.88603275  0.01517966  0.09993219  1  -1.022607  0  -0.234251  -0.231155  0  2.435098  0
O  O362  1  0.11397257  0.48482095  0.59993263  1  -1.022693  0  -0.234278  -0.231182  0  2.435156  0
O  O363  1  0.11397713  0.98482726  0.90006319  1  -1.023401  0  -0.234318  -0.231278  0  2.435081  0
