# generated using pymatgen
data_CdP2H10C4(N3O4)2
_symmetry_space_group_name_H-M   'P 1'
_cell_length_a   8.93487842
_cell_length_b   9.23586422
_cell_length_c   9.64148619
_cell_angle_alpha   117.61285403
_cell_angle_beta   90.00001164
_cell_angle_gamma   89.99999262
_symmetry_Int_Tables_number   1
_chemical_formula_structural   CdP2H10C4(N3O4)2
_chemical_formula_sum   'Cd2 P4 H20 C8 N12 O16'
_cell_volume   705.00584911
_cell_formula_units_Z   2
loop_
 _symmetry_equiv_pos_site_id
 _symmetry_equiv_pos_as_xyz
  1  'x, y, z'
loop_
 _atom_site_type_symbol
 _atom_site_label
 _atom_site_symmetry_multiplicity
 _atom_site_fract_x
 _atom_site_fract_y
 _atom_site_fract_z
 _atom_site_occupancy
 _atom_site_pbe_bader_spin_density
 _atom_site_pbe_cm5_charge
 _atom_site_pbe_ddec_charge
 _atom_site_pbe_ddec_spin_density
 _atom_site_pbe_ddec_sum_bond_order
 _atom_site_pbe_magmom
Cd  Cd0  1  0.99999999  0.99999975  0.49999964  1  0  0.828874  0.894251  0  2.393092  0
Cd  Cd1  1  0.49999908  0.00000013  0.00000008  1  0  0.828873  0.894231  0  2.3931  0
P  P2  1  0.81057286  0.58714179  0.33902868  1  0  0.431961  1.539687  0  5.399999  0
P  P3  1  0.31057277  0.41285549  0.16096998  1  0  0.431991  1.539766  0  5.399825  0
P  P4  1  0.18942624  0.41285618  0.66097026  1  0  0.431962  1.53965  0  5.399934  0
P  P5  1  0.68942633  0.58714370  0.83903054  1  0  0.431984  1.539683  0  5.399958  0
H  H6  1  0.74869068  0.58707249  0.56531022  1  0  0.307146  0.391788  0  0.950179  0
H  H7  1  0.24869064  0.41292739  0.93469059  1  0  0.307144  0.391791  0  0.950183  0
H  H8  1  0.25130954  0.41292671  0.43469030  1  0  0.307139  0.391784  0  0.950191  0
H  H9  1  0.75130846  0.58707304  0.06531150  1  0  0.307147  0.391777  0  0.950195  0
H  H10  1  0.02369702  0.44868346  0.30191554  1  0  0.30586  0.408313  0  0.92249  0
H  H11  1  0.52369709  0.55131629  0.19808519  1  0  0.305834  0.408277  0  0.922552  0
H  H12  1  0.97630320  0.55131574  0.69808498  1  0  0.305839  0.408279  0  0.922546  0
H  H13  1  0.47630201  0.44868290  0.80191533  1  0  0.305843  0.408284  0  0.922532  0
H  H14  1  0.76420853  0.33526282  0.55947613  1  0  0.326526  0.283379  0  0.984452  0
H  H15  1  0.26420959  0.66473705  0.94052364  1  0  0.326547  0.283403  0  0.984448  0
H  H16  1  0.23579057  0.66473637  0.44052335  1  0  0.326559  0.28342  0  0.984406  0
H  H17  1  0.73579063  0.33526214  0.05947584  1  0  0.326536  0.283401  0  0.984416  0
H  H18  1  0.55338752  0.32852739  0.37253490  1  0  0.146135  0.121964  0  0.998407  0
H  H19  1  0.05338850  0.67147479  0.12746379  1  0  0.146158  0.121977  0  0.998412  0
H  H20  1  0.44661159  0.67147546  0.62746411  1  0  0.146156  0.121974  0  0.99841  0
H  H21  1  0.94661396  0.32852684  0.87253573  1  0  0.146136  0.121967  0  0.998381  0
H  H22  1  0.76941166  0.87198694  0.18367450  1  0  0.138362  0.110419  0  1.021434  0
H  H23  1  0.26941052  0.12801402  0.31632577  1  0  0.138364  0.110398  0  1.021436  0
H  H24  1  0.23058856  0.12801348  0.81632656  1  0  0.138363  0.110397  0  1.021435  0
H  H25  1  0.73058970  0.87198640  0.68367424  1  0  0.138367  0.110419  0  1.021414  0
C  C26  1  0.62635102  0.22806912  0.35556286  1  0  0.174849  0.178508  0  3.872378  0
C  C27  1  0.12634975  0.77192939  0.14443422  1  0  0.17486  0.178533  0  3.872292  0
C  C28  1  0.37365032  0.77192884  0.64443400  1  0  0.174837  0.178552  0  3.872235  0
C  C29  1  0.87364935  0.22807102  0.85556475  1  0  0.174863  0.178546  0  3.872258  0
C  C30  1  0.73723439  0.99705370  0.26152840  1  0  0.154879  0.156102  0  3.942159  0
C  C31  1  0.23723325  0.00294603  0.23847028  1  0  0.154895  0.156196  0  3.942169  0
C  C32  1  0.26276583  0.00294426  0.73846950  1  0  0.15489  0.15619  0  3.942275  0
C  C33  1  0.76276585  0.99705438  0.76152869  1  0  0.154904  0.156186  0  3.942146  0
N  N34  1  0.73079901  0.23306015  0.45662104  1  0  -0.253044  -0.078713  0  3.646906  0
N  N35  1  0.23080108  0.76693957  0.04337557  1  0  -0.253141  -0.078743  0  3.646842  0
N  N36  1  0.26919897  0.76694026  0.54337690  1  0  -0.253119  -0.078785  0  3.64677  0
N  N37  1  0.76920138  0.23305960  0.95661975  1  0  -0.253045  -0.078716  0  3.646892  0
N  N38  1  0.80260861  0.08761871  0.39850988  1  0  -0.237204  -0.198199  0  3.375337  0
N  N39  1  0.30260843  0.91238347  0.10149093  1  0  -0.237186  -0.198225  0  3.375297  0
N  N40  1  0.19739049  0.91238415  0.60149121  1  0  -0.237191  -0.198217  0  3.375311  0
N  N41  1  0.69739179  0.08761817  0.89850962  1  0  -0.237254  -0.198273  0  3.375399  0
N  N42  1  0.62752619  0.07975609  0.23084060  1  0  -0.350534  -0.329191  0  3.471551  0
N  N43  1  0.12752605  0.92024608  0.26915810  1  0  -0.350515  -0.329272  0  3.471585  0
N  N44  1  0.37247403  0.92024676  0.76915841  1  0  -0.350521  -0.329268  0  3.47155  0
N  N45  1  0.87247305  0.07975554  0.73084037  1  0  -0.350547  -0.329278  0  3.471521  0
O  O46  1  0.70423008  0.61109894  0.48062494  1  0  -0.395599  -0.713645  0  2.241522  0
O  O47  1  0.20422995  0.38890079  0.01937582  1  0  -0.395596  -0.713664  0  2.241494  0
O  O48  1  0.29577014  0.38890147  0.51937612  1  0  -0.395593  -0.713636  0  2.241514  0
O  O49  1  0.79577027  0.61109841  0.98062573  1  0  -0.395592  -0.713608  0  2.241535  0
O  O50  1  0.91185461  0.43351463  0.30782091  1  0  -0.40389  -0.713783  0  2.188709  0
O  O51  1  0.41185450  0.56648388  0.19217934  1  0  -0.403875  -0.713781  0  2.188694  0
O  O52  1  0.08814561  0.56648457  0.69217961  1  0  -0.403889  -0.713765  0  2.188724  0
O  O53  1  0.58814460  0.43351409  0.80782063  1  0  -0.403897  -0.71377  0  2.188652  0
O  O54  1  0.70427034  0.53583630  0.19693733  1  0  -0.361441  -0.783772  0  2.198998  0
O  O55  1  0.20427027  0.46416345  0.30306447  1  0  -0.361459  -0.783795  0  2.198901  0
O  O56  1  0.29572988  0.46416290  0.80306319  1  0  -0.361466  -0.783761  0  2.198902  0
O  O57  1  0.79572995  0.53583575  0.69693708  1  0  -0.361455  -0.783773  0  2.198927  0
O  O58  1  0.90406713  0.73507301  0.37234192  1  0  -0.39845  -0.819974  0  2.243045  0
O  O59  1  0.40406817  0.26492672  0.12765887  1  0  -0.39844  -0.819979  0  2.243045  0
O  O60  1  0.09593309  0.26492618  0.62765860  1  0  -0.398404  -0.819928  0  2.243047  0
O  O61  1  0.59593205  0.73507248  0.87234165  1  0  -0.398439  -0.819973  0  2.243105  0
