# generated using pymatgen
data_BaH10C12(N2O5)2
_symmetry_space_group_name_H-M   'P 1'
_cell_length_a   7.29491258
_cell_length_b   15.47216062
_cell_length_c   16.12471848
_cell_angle_alpha   107.65574994
_cell_angle_beta   90.00091102
_cell_angle_gamma   90.00381985
_symmetry_Int_Tables_number   1
_chemical_formula_structural   BaH10C12(N2O5)2
_chemical_formula_sum   'Ba4 H40 C48 N16 O40'
_cell_volume   1734.23801906
_cell_formula_units_Z   4
loop_
 _symmetry_equiv_pos_site_id
 _symmetry_equiv_pos_as_xyz
  1  'x, y, z'
loop_
 _atom_site_type_symbol
 _atom_site_label
 _atom_site_symmetry_multiplicity
 _atom_site_fract_x
 _atom_site_fract_y
 _atom_site_fract_z
 _atom_site_occupancy
 _atom_site_hle17_bader_spin_density
 _atom_site_hle17_ddec_charge
 _atom_site_hle17_ddec_spin_density
 _atom_site_hle17_ddec_sum_bond_order
 _atom_site_hle17_magmom
 _atom_site_hse06_10hf_bader_spin_density
 _atom_site_hse06_10hf_ddec_charge
 _atom_site_hse06_10hf_ddec_spin_density
 _atom_site_hse06_10hf_ddec_sum_bond_order
 _atom_site_hse06_10hf_magmom
 _atom_site_hse06_bader_spin_density
 _atom_site_hse06_ddec_charge
 _atom_site_hse06_ddec_spin_density
 _atom_site_hse06_ddec_sum_bond_order
 _atom_site_hse06_magmom
 _atom_site_pbe_bader_spin_density
 _atom_site_pbe_cm5_charge
 _atom_site_pbe_ddec_charge
 _atom_site_pbe_ddec_spin_density
 _atom_site_pbe_ddec_sum_bond_order
 _atom_site_pbe_magmom
Ba  Ba0  1  0.82759375  0.59380291  0.80593405  1  0  1.634242  0  1.19943  0  0  1.47555  0  1.616887  0  0  1.516635  0  1.571687  0  0  0.969063  1.445305  0  1.648915  0
Ba  Ba1  1  0.32756220  0.40620313  0.69406581  1  0  1.634174  0  1.199633  0  0  1.475612  0  1.616872  0  0  1.516697  0  1.571669  0  0  0.969047  1.445362  0  1.648895  0
Ba  Ba2  1  0.17240996  0.40619630  0.19406160  1  0  1.634226  0  1.199492  0  0  1.47557  0  1.616888  0  0  1.516659  0  1.571682  0  0  0.969033  1.445329  0  1.648922  0
Ba  Ba3  1  0.67243192  0.59380395  0.30593722  1  0  1.634167  0  1.19955  0  0  1.475582  0  1.616842  0  0  1.516664  0  1.571641  0  0  0.969057  1.445341  0  1.648872  0
H  H4  1  0.94480740  0.71548453  0.67458573  1  0  0.413722  0  0.891883  0  0  0.382426  0  0.957317  0  0  0.392871  0  0.941933  0  0  0.291433  0.375055  0  0.968154  0
H  H5  1  0.44472969  0.28453423  0.82541708  1  0  0.413695  0  0.891959  0  0  0.382391  0  0.957365  0  0  0.392838  0  0.941979  0  0  0.291407  0.375019  0  0.968206  0
H  H6  1  0.05520865  0.28452329  0.32541809  1  0  0.41373  0  0.891896  0  0  0.382433  0  0.957315  0  0  0.392879  0  0.94193  0  0  0.291428  0.375063  0  0.968152  0
H  H7  1  0.55523289  0.71546610  0.17458442  1  0  0.413793  0  0.891803  0  0  0.382482  0  0.95722  0  0  0.392925  0  0.94184  0  0  0.291478  0.375112  0  0.968058  0
H  H8  1  0.14337144  0.69549823  0.70027844  1  0  0.419136  0  0.868158  0  0  0.388136  0  0.936709  0  0  0.398172  0  0.921786  0  0  0.305518  0.380992  0  0.947333  0
H  H9  1  0.64331265  0.30451177  0.79973657  1  0  0.419283  0  0.868  0  0  0.388326  0  0.9365  0  0  0.398372  0  0.921558  0  0  0.305556  0.381181  0  0.947125  0
H  H10  1  0.85664324  0.30450403  0.29972226  1  0  0.419147  0  0.868159  0  0  0.388187  0  0.93664  0  0  0.398223  0  0.921715  0  0  0.305544  0.381045  0  0.94726  0
H  H11  1  0.35666502  0.69548628  0.20027872  1  0  0.419149  0  0.868117  0  0  0.388165  0  0.9367  0  0  0.398208  0  0.921764  0  0  0.305516  0.381022  0  0.947324  0
H  H12  1  0.49435649  0.63958266  0.68224310  1  0  0.420336  0  0.879893  0  0  0.387143  0  0.948484  0  0  0.397961  0  0.932347  0  0  0.298068  0.379458  0  0.959941  0
H  H13  1  0.99430722  0.36040911  0.81774815  1  0  0.420496  0  0.87967  0  0  0.387388  0  0.948134  0  0  0.398194  0  0.932004  0  0  0.298218  0.379709  0  0.959592  0
H  H14  1  0.50564996  0.36042022  0.31774841  1  0  0.420378  0  0.879871  0  0  0.387164  0  0.948461  0  0  0.397989  0  0.932321  0  0  0.298098  0.379485  0  0.959906  0
H  H15  1  0.00567044  0.63958246  0.18224329  1  0  0.42034  0  0.879876  0  0  0.387183  0  0.948405  0  0  0.398001  0  0.93227  0  0  0.298106  0.379503  0  0.959854  0
H  H16  1  0.64835118  0.70938826  0.68106081  1  0  0.410337  0  0.894656  0  0  0.38124  0  0.956178  0  0  0.391045  0  0.941745  0  0  0.290591  0.374326  0  0.966339  0
H  H17  1  0.14828916  0.29060468  0.81893041  1  0  0.410529  0  0.894463  0  0  0.381477  0  0.955913  0  0  0.391272  0  0.941486  0  0  0.290704  0.37456  0  0.966082  0
H  H18  1  0.35165938  0.29061520  0.31893829  1  0  0.410501  0  0.89444  0  0  0.38139  0  0.955971  0  0  0.391197  0  0.941537  0  0  0.290679  0.374474  0  0.966137  0
H  H19  1  0.85168302  0.70937917  0.18105556  1  0  0.410364  0  0.894662  0  0  0.381348  0  0.956055  0  0  0.391132  0  0.941638  0  0  0.290693  0.374444  0  0.966213  0
H  H20  1  0.50963760  0.98778749  0.21683176  1  0  0.427716  0  0.820847  0  0  0.401988  0  0.89123  0  0  0.413166  0  0.878144  0  0  0.327818  0.394033  0  0.900574  0
H  H21  1  0.00961436  0.01219552  0.28317163  1  0  0.427827  0  0.820807  0  0  0.401986  0  0.891337  0  0  0.413163  0  0.878247  0  0  0.32783  0.394038  0  0.900673  0
H  H22  1  0.49036611  0.01220486  0.78316981  1  0  0.427813  0  0.820721  0  0  0.401994  0  0.891231  0  0  0.41317  0  0.878144  0  0  0.327814  0.394039  0  0.900568  0
H  H23  1  0.99039620  0.98780857  0.71682699  1  0  0.42791  0  0.820577  0  0  0.402034  0  0.89114  0  0  0.413208  0  0.878065  0  0  0.327871  0.394083  0  0.900479  0
H  H24  1  0.25151403  0.42488296  0.98614935  1  0  0.411538  0  0.876565  0  0  0.377475  0  0.959061  0  0  0.391589  0  0.941977  0  0  0.313207  0.367544  0  0.969969  0
H  H25  1  0.75154276  0.57512100  0.51384208  1  0  0.411522  0  0.876726  0  0  0.377447  0  0.959231  0  0  0.39157  0  0.94203  0  0  0.313278  0.36752  0  0.970119  0
H  H26  1  0.74846089  0.57510992  0.01383306  1  0  0.411408  0  0.876914  0  0  0.377416  0  0.95926  0  0  0.391491  0  0.942151  0  0  0.313269  0.367485  0  0.970169  0
H  H27  1  0.24844998  0.42488464  0.48615937  1  0  0.411439  0  0.876816  0  0  0.37741  0  0.959246  0  0  0.3915  0  0.942134  0  0  0.313245  0.367478  0  0.970153  0
H  H28  1  0.83043589  0.99806084  0.88566124  1  0  0.079641  0  0.94534  0  0  0.083857  0  1.01699  0  0  0.087011  0  1.014172  0  0  0.115186  0.081539  0  1.01911  0
H  H29  1  0.33050764  0.00193053  0.61432906  1  0  0.079569  0  0.945239  0  0  0.083851  0  1.016841  0  0  0.086976  0  1.014054  0  0  0.115175  0.081574  0  1.018919  0
H  H30  1  0.16957193  0.00193068  0.11433827  1  0  0.079511  0  0.945429  0  0  0.083789  0  1.017002  0  0  0.086917  0  1.01421  0  0  0.115111  0.081506  0  1.019086  0
H  H31  1  0.66950429  0.99807820  0.38567807  1  0  0.079562  0  0.945284  0  0  0.083837  0  1.016871  0  0  0.086963  0  1.014083  0  0  0.115147  0.081557  0  1.01896  0
H  H32  1  0.87901975  0.83222636  0.80359501  1  0  0.104308  0  0.938206  0  0  0.110614  0  0.997401  0  0  0.114785  0  0.994152  0  0  0.12946  0.107541  0  0.999937  0
H  H33  1  0.37902845  0.16777075  0.69640295  1  0  0.104318  0  0.938153  0  0  0.110618  0  0.997381  0  0  0.114793  0  0.994127  0  0  0.129392  0.107543  0  0.999914  0
H  H34  1  0.12101137  0.16776725  0.19640560  1  0  0.10427  0  0.938172  0  0  0.110563  0  0.997391  0  0  0.114737  0  0.994142  0  0  0.129429  0.107489  0  0.999929  0
H  H35  1  0.62097389  0.83223740  0.30359659  1  0  0.104222  0  0.938189  0  0  0.110535  0  0.99741  0  0  0.114706  0  0.994162  0  0  0.129398  0.107463  0  0.999944  0
H  H36  1  0.19342425  0.85786757  0.14887546  1  0  0.086197  0  0.92696  0  0  0.093113  0  0.991006  0  0  0.097237  0  0.987346  0  0  0.115242  0.090042  0  0.993913  0
H  H37  1  0.69336467  0.14212685  0.35114857  1  0  0.086157  0  0.927189  0  0  0.093059  0  0.991198  0  0  0.097221  0  0.987493  0  0  0.115244  0.089992  0  0.994106  0
H  H38  1  0.80658632  0.14212130  0.85114149  1  0  0.086105  0  0.926955  0  0  0.093052  0  0.990953  0  0  0.097175  0  0.987296  0  0  0.115263  0.090015  0  0.993827  0
H  H39  1  0.30665960  0.85787802  0.64885147  1  0  0.086132  0  0.927215  0  0  0.093008  0  0.991252  0  0  0.09718  0  0.987539  0  0  0.115226  0.08994  0  0.994154  0
H  H40  1  0.28854886  0.88150786  0.00463630  1  0  0.082766  0  0.975504  0  0  0.083049  0  1.051961  0  0  0.086914  0  1.048476  0  0  0.111442  0.080228  0  1.05456  0
H  H41  1  0.78843837  0.11851544  0.49540512  1  0  0.082785  0  0.975387  0  0  0.08303  0  1.051897  0  0  0.086895  0  1.04841  0  0  0.111462  0.080216  0  1.054502  0
H  H42  1  0.71149872  0.11849633  0.99538970  1  0  0.082865  0  0.97567  0  0  0.083048  0  1.052174  0  0  0.086908  0  1.04869  0  0  0.111451  0.080229  0  1.054775  0
H  H43  1  0.21156397  0.88149237  0.50459869  1  0  0.082838  0  0.975557  0  0  0.083054  0  1.052069  0  0  0.086914  0  1.048586  0  0  0.111506  0.08024  0  1.054671  0
C  C44  1  0.78127805  0.81677890  0.99669750  1  0  0.037911  0  3.725528  0  0  0.034476  0  3.97446  0  0  0.031859  0  3.994953  0  0  0.126429  0.035845  0  3.960946  0
C  C45  1  0.28126267  0.18321733  0.50330185  1  0  0.038182  0  3.725532  0  0  0.03458  0  3.974421  0  0  0.031974  0  3.994915  0  0  0.126354  0.035949  0  3.960916  0
C  C46  1  0.21872018  0.18321074  0.00329475  1  0  0.037844  0  3.725742  0  0  0.034321  0  3.97457  0  0  0.031705  0  3.995057  0  0  0.12636  0.035693  0  3.96106  0
C  C47  1  0.71874104  0.81678671  0.49669614  1  0  0.038007  0  3.72559  0  0  0.03438  0  3.974418  0  0  0.031776  0  3.994904  0  0  0.126296  0.035753  0  3.960903  0
C  C48  1  0.75854901  0.90918637  0.04264623  1  0  0.053296  0  3.69142  0  0  0.056664  0  3.9381  0  0  0.054879  0  3.956363  0  0  0.13102  0.05772  0  3.926152  0
C  C49  1  0.25856635  0.09080480  0.45735280  1  0  0.052825  0  3.692003  0  0  0.056556  0  3.938207  0  0  0.054771  0  3.956461  0  0  0.13098  0.057611  0  3.926275  0
C  C50  1  0.24144510  0.09080366  0.95735108  1  0  0.053328  0  3.691628  0  0  0.057  0  3.937771  0  0  0.055232  0  3.95604  0  0  0.131082  0.058055  0  3.925828  0
C  C51  1  0.74144421  0.90919939  0.54264708  1  0  0.052758  0  3.692382  0  0  0.056652  0  3.938355  0  0  0.054874  0  3.956612  0  0  0.130931  0.057715  0  3.926407  0
C  C52  1  0.81628508  0.94610133  0.91824788  1  0  0.09762  0  3.688257  0  0  0.068415  0  3.957517  0  0  0.071639  0  3.972669  0  0  0.060226  0.066301  0  3.94729  0
C  C53  1  0.31632501  0.05389049  0.58174142  1  0  0.097754  0  3.688083  0  0  0.068474  0  3.957457  0  0  0.071722  0  3.972613  0  0  0.060341  0.06633  0  3.947219  0
C  C54  1  0.18372411  0.05388865  0.08174880  1  0  0.097553  0  3.688351  0  0  0.068296  0  3.957673  0  0  0.071544  0  3.972832  0  0  0.060191  0.066152  0  3.947436  0
C  C55  1  0.68368281  0.94611650  0.41826034  1  0  0.097607  0  3.688477  0  0  0.068352  0  3.957828  0  0  0.0716  0  3.972984  0  0  0.060352  0.066203  0  3.947603  0
C  C56  1  0.84188145  0.85476143  0.87232422  1  0  0.099848  0  3.658599  0  0  0.075012  0  3.911601  0  0  0.077519  0  3.926025  0  0  0.07498  0.073154  0  3.901981  0
C  C57  1  0.34188621  0.14523340  0.62767483  1  0  0.099817  0  3.658795  0  0  0.074954  0  3.911843  0  0  0.077459  0  3.926264  0  0  0.07503  0.073102  0  3.902214  0
C  C58  1  0.15813322  0.14523204  0.12767449  1  0  0.099946  0  3.658618  0  0  0.075111  0  3.911636  0  0  0.077615  0  3.926056  0  0  0.075005  0.073252  0  3.902028  0
C  C59  1  0.65811475  0.85477490  0.37232660  1  0  0.100187  0  3.658608  0  0  0.075306  0  3.911652  0  0  0.077814  0  3.926072  0  0  0.075104  0.073454  0  3.902035  0
C  C60  1  0.75804042  0.74308391  0.03977997  1  0  0.64345  0  3.915728  0  0  0.584537  0  4.226719  0  0  0.617377  0  4.221037  0  0  0.223701  0.562423  0  4.229679  0
C  C61  1  0.25800844  0.25690407  0.46022083  1  0  0.643139  0  3.915715  0  0  0.584369  0  4.226535  0  0  0.617181  0  4.220895  0  0  0.223638  0.562241  0  4.229512  0
C  C62  1  0.24195369  0.25690245  0.96021278  1  0  0.643581  0  3.915498  0  0  0.584731  0  4.226384  0  0  0.617573  0  4.220692  0  0  0.223809  0.562608  0  4.22936  0
C  C63  1  0.74199390  0.74310036  0.53978222  1  0  0.643448  0  3.915497  0  0  0.584661  0  4.226331  0  0  0.617475  0  4.220683  0  0  0.223762  0.562536  0  4.229304  0
C  C64  1  0.71975260  0.94590116  0.13928290  1  0  0.694124  0  3.780407  0  0  0.634931  0  4.094447  0  0  0.670981  0  4.079678  0  0  0.254558  0.61  0  4.104426  0
C  C65  1  0.21974017  0.05409321  0.36071973  1  0  0.694281  0  3.780238  0  0  0.634894  0  4.094454  0  0  0.670956  0  4.079671  0  0  0.254405  0.609953  0  4.104438  0
C  C66  1  0.28023192  0.05408408  0.86071271  1  0  0.694156  0  3.780448  0  0  0.634936  0  4.09438  0  0  0.67094  0  4.079688  0  0  0.254586  0.610004  0  4.10436  0
C  C67  1  0.78026902  0.94590822  0.63927892  1  0  0.694395  0  3.77992  0  0  0.634947  0  4.094124  0  0  0.670983  0  4.079389  0  0  0.25437  0.610011  0  4.104099  0
C  C68  1  0.29704582  0.66014837  0.94967501  1  0  0.08482  0  3.665406  0  0  0.081692  0  3.919831  0  0  0.085305  0  3.931987  0  0  0.147625  0.078782  0  3.912232  0
C  C69  1  0.79702646  0.33986743  0.55033481  1  0  0.084947  0  3.665568  0  0  0.081775  0  3.920001  0  0  0.085376  0  3.932157  0  0  0.147533  0.078865  0  3.912402  0
C  C70  1  0.70295652  0.33985418  0.05032948  1  0  0.084819  0  3.665581  0  0  0.081615  0  3.920049  0  0  0.085226  0  3.932211  0  0  0.147598  0.078704  0  3.91245  0
C  C71  1  0.20297725  0.66014164  0.44966804  1  0  0.084897  0  3.665356  0  0  0.081753  0  3.919725  0  0  0.085365  0  3.931882  0  0  0.147514  0.078841  0  3.912131  0
C  C72  1  0.24567171  0.64699907  0.02917832  1  0  0.020244  0  3.709872  0  0  0.020727  0  3.956094  0  0  0.017369  0  3.972607  0  0  0.124632  0.022543  0  3.945507  0
C  C73  1  0.74566268  0.35300618  0.47082401  1  0  0.019802  0  3.709863  0  0  0.020375  0  3.956145  0  0  0.017024  0  3.972652  0  0  0.12454  0.022202  0  3.945549  0
C  C74  1  0.75430596  0.35299531  0.97082370  1  0  0.020313  0  3.709708  0  0  0.020778  0  3.955968  0  0  0.017424  0  3.972485  0  0  0.124592  0.022601  0  3.945374  0
C  C75  1  0.25434926  0.64699748  0.52917762  1  0  0.020034  0  3.709524  0  0  0.020547  0  3.955848  0  0  0.017195  0  3.972347  0  0  0.124574  0.022374  0  3.945253  0
C  C76  1  0.22370794  0.80097555  0.09120054  1  0  0.069651  0  3.70434  0  0  0.039843  0  3.972518  0  0  0.040867  0  3.988857  0  0  0.047918  0.038772  0  3.961889  0
C  C77  1  0.72367253  0.19902558  0.40882036  1  0  0.069486  0  3.70415  0  0  0.039786  0  3.972194  0  0  0.040775  0  3.988543  0  0  0.047935  0.038713  0  3.961587  0
C  C78  1  0.77628344  0.19901767  0.90881241  1  0  0.069731  0  3.704134  0  0  0.039939  0  3.972171  0  0  0.040962  0  3.988519  0  0  0.047903  0.03884  0  3.961547  0
C  C79  1  0.27634215  0.80098059  0.59117935  1  0  0.069593  0  3.704334  0  0  0.039916  0  3.97233  0  0  0.040881  0  3.988706  0  0  0.047976  0.038851  0  3.961701  0
C  C80  1  0.27625905  0.81394840  0.01231272  1  0  0.086977  0  3.692348  0  0  0.058808  0  3.965363  0  0  0.061794  0  3.981516  0  0  0.053723  0.056955  0  3.954444  0
C  C81  1  0.77619327  0.18606440  0.48771464  1  0  0.087115  0  3.692077  0  0  0.058919  0  3.965165  0  0  0.061903  0  3.981318  0  0  0.053708  0.057061  0  3.954253  0
C  C82  1  0.72375974  0.18605072  0.98770778  1  0  0.086794  0  3.692594  0  0  0.058733  0  3.965574  0  0  0.061728  0  3.981717  0  0  0.053709  0.056877  0  3.954661  0
C  C83  1  0.22380907  0.81394327  0.51228728  1  0  0.087009  0  3.692678  0  0  0.058863  0  3.965719  0  0  0.061854  0  3.981875  0  0  0.053717  0.057004  0  3.9548  0
C  C84  1  0.32605228  0.58442403  0.86609329  1  0  0.682149  0  3.95434  0  0  0.626588  0  4.254737  0  0  0.661616  0  4.243493  0  0  0.231438  0.602612  0  4.261559  0
C  C85  1  0.82603440  0.41560355  0.63391020  1  0  0.682225  0  3.954374  0  0  0.626777  0  4.254559  0  0  0.66181  0  4.243317  0  0  0.231619  0.602799  0  4.261378  0
C  C86  1  0.67395143  0.41558741  0.13390575  1  0  0.682157  0  3.954424  0  0  0.626802  0  4.254471  0  0  0.66182  0  4.24325  0  0  0.231698  0.602831  0  4.261289  0
C  C87  1  0.17396108  0.58440595  0.36608964  1  0  0.681824  0  3.954626  0  0  0.626445  0  4.254694  0  0  0.661456  0  4.243486  0  0  0.231556  0.602462  0  4.261519  0
C  C88  1  0.22281051  0.55553297  0.04264220  1  0  0.660112  0  3.790904  0  0  0.601161  0  4.096608  0  0  0.635787  0  4.086136  0  0  0.257524  0.577624  0  4.10342  0
C  C89  1  0.72282079  0.44447352  0.45735318  1  0  0.6602  0  3.790833  0  0  0.601013  0  4.09687  0  0  0.63564  0  4.086404  0  0  0.257511  0.577462  0  4.103686  0
C  C90  1  0.77715208  0.44445982  0.95734766  1  0  0.660105  0  3.790483  0  0  0.601153  0  4.096169  0  0  0.635778  0  4.0857  0  0  0.257646  0.577608  0  4.102983  0
C  C91  1  0.27717606  0.55553197  0.54264638  1  0  0.660007  0  3.790826  0  0  0.600858  0  4.096801  0  0  0.635488  0  4.086334  0  0  0.257477  0.57731  0  4.10361  0
N  N92  1  0.82325395  0.79076226  0.91165146  1  0  -0.282427  0  3.134076  0  0  -0.241738  0  3.393193  0  0  -0.249795  0  3.410008  0  0  -0.306563  -0.235867  0  3.381805  0
N  N93  1  0.32323020  0.20923059  0.58835044  1  0  -0.282516  0  3.134283  0  0  -0.241817  0  3.393441  0  0  -0.249873  0  3.410257  0  0  -0.306575  -0.23594  0  3.38204  0
N  N94  1  0.17675525  0.20922762  0.08834396  1  0  -0.282447  0  3.134068  0  0  -0.241774  0  3.393206  0  0  -0.249832  0  3.410025  0  0  -0.306525  -0.235907  0  3.381824  0
N  N95  1  0.67676802  0.79077350  0.41164818  1  0  -0.282697  0  3.134061  0  0  -0.242015  0  3.393262  0  0  -0.250071  0  3.410074  0  0  -0.306668  -0.236146  0  3.381873  0
N  N96  1  0.77456102  0.97359685  0.00296849  1  0  -0.264553  0  3.051954  0  0  -0.239294  0  3.315695  0  0  -0.246808  0  3.330587  0  0  -0.291189  -0.233962  0  3.305577  0
N  N97  1  0.27461641  0.02639095  0.49701905  1  0  -0.264329  0  3.052179  0  0  -0.239154  0  3.315821  0  0  -0.246666  0  3.330704  0  0  -0.291129  -0.233828  0  3.30573  0
N  N98  1  0.22543584  0.02638980  0.99702806  1  0  -0.264482  0  3.051982  0  0  -0.239319  0  3.315635  0  0  -0.246834  0  3.330515  0  0  -0.291153  -0.233984  0  3.305527  0
N  N99  1  0.72539826  0.97361121  0.50298038  1  0  -0.264258  0  3.052641  0  0  -0.239135  0  3.316191  0  0  -0.246649  0  3.331074  0  0  -0.291083  -0.233808  0  3.306097  0
N  N100  1  0.31405997  0.74405238  0.94208735  1  0  -0.259379  0  2.991534  0  0  -0.237277  0  3.25447  0  0  -0.243147  0  3.265144  0  0  -0.284673  -0.233305  0  3.247459  0
N  N101  1  0.81399627  0.25596910  0.55793354  1  0  -0.259517  0  2.99166  0  0  -0.237392  0  3.254629  0  0  -0.243255  0  3.265298  0  0  -0.284662  -0.233417  0  3.24762  0
N  N102  1  0.68597115  0.25594954  0.05792633  1  0  -0.259381  0  2.991746  0  0  -0.2373  0  3.254698  0  0  -0.243168  0  3.265366  0  0  -0.284715  -0.233329  0  3.24769  0
N  N103  1  0.18600744  0.74403987  0.44206805  1  0  -0.259427  0  2.991829  0  0  -0.237316  0  3.25476  0  0  -0.243181  0  3.265422  0  0  -0.284704  -0.233342  0  3.247757  0
N  N104  1  0.21074608  0.71806078  0.09949074  1  0  -0.271959  0  3.1641  0  0  -0.23267  0  3.418049  0  0  -0.238237  0  3.431901  0  0  -0.286498  -0.228504  0  3.408806  0
N  N105  1  0.71071632  0.28193820  0.40051239  1  0  -0.271629  0  3.163538  0  0  -0.232416  0  3.417449  0  0  -0.237975  0  3.431298  0  0  -0.286395  -0.228248  0  3.408205  0
N  N106  1  0.78924118  0.28192819  0.90051007  1  0  -0.271833  0  3.163771  0  0  -0.232538  0  3.417668  0  0  -0.238109  0  3.431517  0  0  -0.286377  -0.228371  0  3.40844  0
N  N107  1  0.28929699  0.71806715  0.59948527  1  0  -0.271761  0  3.163469  0  0  -0.232534  0  3.417384  0  0  -0.238089  0  3.431236  0  0  -0.28643  -0.228366  0  3.408134  0
O  O108  1  0.01476370  0.69547512  0.71792226  1  0  -0.86458  0  1.817774  0  0  -0.810297  0  1.992099  0  0  -0.829643  0  1.96179  0  0  -0.623728  -0.796446  0  2.013354  0
O  O109  1  0.51470963  0.30454569  0.78208589  1  0  -0.864698  0  1.817695  0  0  -0.810514  0  1.991953  0  0  -0.829864  0  1.961633  0  0  -0.623738  -0.796673  0  2.013212  0
O  O110  1  0.98525234  0.30452912  0.28207826  1  0  -0.864582  0  1.817784  0  0  -0.810349  0  1.992056  0  0  -0.829699  0  1.961753  0  0  -0.623735  -0.796501  0  2.013306  0
O  O111  1  0.48527078  0.69546749  0.21792721  1  0  -0.864624  0  1.817648  0  0  -0.810434  0  1.992068  0  0  -0.829767  0  1.961728  0  0  -0.623761  -0.796591  0  2.013325  0
O  O112  1  0.59703268  0.67371958  0.71669564  1  0  -0.874949  0  1.802477  0  0  -0.824047  0  1.972594  0  0  -0.842854  0  1.941613  0  0  -0.641364  -0.810564  0  1.994272  0
O  O113  1  0.09700191  0.32628949  0.78330470  1  0  -0.875323  0  1.802282  0  0  -0.824525  0  1.97225  0  0  -0.843297  0  1.941339  0  0  -0.641667  -0.81105  0  1.993902  0
O  O114  1  0.40296555  0.32628514  0.28330250  1  0  -0.875155  0  1.8023  0  0  -0.824197  0  1.972554  0  0  -0.843018  0  1.941533  0  0  -0.641485  -0.810712  0  1.994233  0
O  O115  1  0.90299632  0.67371431  0.21669012  1  0  -0.874989  0  1.802529  0  0  -0.824171  0  1.972522  0  0  -0.842951  0  1.941602  0  0  -0.641534  -0.810701  0  1.994165  0
O  O116  1  0.78817175  0.66211941  0.99255301  1  0  -0.651393  0  2.054531  0  0  -0.596828  0  2.299817  0  0  -0.623217  0  2.290931  0  0  -0.324642  -0.578429  0  2.305201  0
O  O117  1  0.28812513  0.33787384  0.50744994  1  0  -0.651247  0  2.054127  0  0  -0.596724  0  2.299366  0  0  -0.623114  0  2.290491  0  0  -0.324575  -0.578315  0  2.304748  0
O  O118  1  0.21183745  0.33786772  0.00744116  1  0  -0.651395  0  2.054174  0  0  -0.596808  0  2.29944  0  0  -0.623219  0  2.290553  0  0  -0.324579  -0.578409  0  2.304832  0
O  O119  1  0.71185939  0.66213180  0.49255151  1  0  -0.651316  0  2.054065  0  0  -0.596763  0  2.299347  0  0  -0.623169  0  2.290445  0  0  -0.324585  -0.578364  0  2.304732  0
O  O120  1  0.48533944  0.55508094  0.84452244  1  0  -0.686244  0  1.987024  0  0  -0.627072  0  2.230519  0  0  -0.655461  0  2.221819  0  0  -0.37343  -0.606546  0  2.235729  0
O  O121  1  0.98532131  0.44495042  0.65549213  1  0  -0.686276  0  1.987458  0  0  -0.627194  0  2.230957  0  0  -0.655549  0  2.222174  0  0  -0.373499  -0.60667  0  2.236168  0
O  O122  1  0.51466290  0.44493446  0.15547624  1  0  -0.686292  0  1.987145  0  0  -0.627252  0  2.230637  0  0  -0.655626  0  2.22191  0  0  -0.373525  -0.606724  0  2.235841  0
O  O123  1  0.01466595  0.55506551  0.34451351  1  0  -0.686113  0  1.987355  0  0  -0.627085  0  2.230876  0  0  -0.655466  0  2.222185  0  0  -0.373475  -0.606556  0  2.236087  0
O  O124  1  0.71142944  0.76905144  0.11913527  1  0  -0.625663  0  1.995634  0  0  -0.563994  0  2.213873  0  0  -0.590615  0  2.206206  0  0  -0.29779  -0.545251  0  2.218502  0
O  O125  1  0.21139967  0.23093262  0.38086387  1  0  -0.625537  0  1.995671  0  0  -0.563913  0  2.213877  0  0  -0.590521  0  2.206232  0  0  -0.29776  -0.545163  0  2.218504  0
O  O126  1  0.28854137  0.23093545  0.88085574  1  0  -0.625754  0  1.995544  0  0  -0.564152  0  2.213812  0  0  -0.590782  0  2.206148  0  0  -0.297876  -0.545399  0  2.218437  0
O  O127  1  0.78860404  0.76906896  0.61913667  1  0  -0.625639  0  1.995664  0  0  -0.564009  0  2.213893  0  0  -0.590617  0  2.206242  0  0  -0.2978  -0.54526  0  2.218514  0
O  O128  1  0.84171200  0.96839594  0.19425656  1  0  -0.570653  0  1.941256  0  0  -0.531016  0  2.160299  0  0  -0.552948  0  2.148438  0  0  -0.283719  -0.515716  0  2.168241  0
O  O129  1  0.34171378  0.03160583  0.30573098  1  0  -0.570866  0  1.940626  0  0  -0.531234  0  2.159745  0  0  -0.553176  0  2.147887  0  0  -0.283794  -0.515915  0  2.167675  0
O  O130  1  0.15829170  0.03157863  0.80573851  1  0  -0.570671  0  1.941487  0  0  -0.531069  0  2.160573  0  0  -0.552986  0  2.14874  0  0  -0.283734  -0.515769  0  2.168511  0
O  O131  1  0.65828856  0.96839276  0.69427386  1  0  -0.57101  0  1.940271  0  0  -0.531344  0  2.159402  0  0  -0.55328  0  2.14756  0  0  -0.283793  -0.516032  0  2.16733  0
O  O132  1  0.54091263  0.95939678  0.15456644  1  0  -0.539015  0  2.099324  0  0  -0.492055  0  2.317696  0  0  -0.514593  0  2.302551  0  0  -0.313921  -0.476252  0  2.327821  0
O  O133  1  0.04091307  0.04058648  0.34543607  1  0  -0.539049  0  2.099561  0  0  -0.491914  0  2.318042  0  0  -0.514473  0  2.302939  0  0  -0.313732  -0.476103  0  2.328147  0
O  O134  1  0.45908560  0.04060146  0.84543397  1  0  -0.539115  0  2.099047  0  0  -0.492087  0  2.317498  0  0  -0.514611  0  2.302378  0  0  -0.313941  -0.476286  0  2.327615  0
O  O135  1  0.95909612  0.95941331  0.65455847  1  0  -0.539036  0  2.099259  0  0  -0.491891  0  2.317875  0  0  -0.514422  0  2.302748  0  0  -0.313728  -0.476091  0  2.327986  0
O  O136  1  0.18236554  0.55757339  0.82148459  1  0  -0.71832  0  2.009218  0  0  -0.651534  0  2.254187  0  0  -0.681967  0  2.246014  0  0  -0.401081  -0.629516  0  2.258951  0
O  O137  1  0.68233319  0.44244306  0.67850537  1  0  -0.718383  0  2.008801  0  0  -0.651637  0  2.253707  0  0  -0.682068  0  2.245528  0  0  -0.401239  -0.629617  0  2.258465  0
O  O138  1  0.81763817  0.44243534  0.17851383  1  0  -0.718283  0  2.009176  0  0  -0.651559  0  2.254033  0  0  -0.681981  0  2.24586  0  0  -0.401225  -0.62955  0  2.258802  0
O  O139  1  0.31765407  0.55755948  0.32149041  1  0  -0.718228  0  2.009097  0  0  -0.651491  0  2.253954  0  0  -0.681916  0  2.245791  0  0  -0.401201  -0.629468  0  2.258714  0
O  O140  1  0.27563601  0.48734463  0.97610476  1  0  -0.521035  0  2.120282  0  0  -0.466013  0  2.341746  0  0  -0.489437  0  2.325878  0  0  -0.289548  -0.449866  0  2.351526  0
O  O141  1  0.77566947  0.51266159  0.52388695  1  0  -0.520964  0  2.120333  0  0  -0.465867  0  2.34196  0  0  -0.489308  0  2.326011  0  0  -0.289609  -0.449721  0  2.351736  0
O  O142  1  0.72431286  0.51264960  0.02387796  1  0  -0.520982  0  2.120401  0  0  -0.465976  0  2.341847  0  0  -0.489383  0  2.325957  0  0  -0.289704  -0.449826  0  2.351629  0
O  O143  1  0.22433149  0.48734410  0.47611514  1  0  -0.520767  0  2.120382  0  0  -0.465725  0  2.341951  0  0  -0.489142  0  2.326064  0  0  -0.289511  -0.449576  0  2.351729  0
O  O144  1  0.15697891  0.54815675  0.11112557  1  0  -0.589874  0  2.000401  0  0  -0.533525  0  2.229218  0  0  -0.55557  0  2.218589  0  0  -0.28263  -0.518514  0  2.236409  0
O  O145  1  0.65697706  0.45183679  0.38886567  1  0  -0.58986  0  2.000424  0  0  -0.53342  0  2.229341  0  0  -0.555455  0  2.218711  0  0  -0.282577  -0.518401  0  2.236522  0
O  O146  1  0.84299875  0.45182835  0.88885944  1  0  -0.589929  0  2.000008  0  0  -0.533657  0  2.22892  0  0  -0.555704  0  2.218282  0  0  -0.282702  -0.518632  0  2.236115  0
O  O147  1  0.34302254  0.54816745  0.61113485  1  0  -0.589828  0  2.000293  0  0  -0.533407  0  2.229229  0  0  -0.555454  0  2.218601  0  0  -0.282596  -0.518384  0  2.236411  0
