# generated using pymatgen
data_CdH28C28N8(ClO4)2
_symmetry_space_group_name_H-M   'P 1'
_cell_length_a   8.84234532
_cell_length_b   10.47885039
_cell_length_c   17.93400000
_cell_angle_alpha   90.00000000
_cell_angle_beta   90.00000000
_cell_angle_gamma   98.68587434
_symmetry_Int_Tables_number   1
_chemical_formula_structural   CdH28C28N8(ClO4)2
_chemical_formula_sum   'Cd2 H56 C56 N16 Cl4 O16'
_cell_volume   1642.66360576
_cell_formula_units_Z   2
loop_
 _symmetry_equiv_pos_site_id
 _symmetry_equiv_pos_as_xyz
  1  'x, y, z'
loop_
 _atom_site_type_symbol
 _atom_site_label
 _atom_site_symmetry_multiplicity
 _atom_site_fract_x
 _atom_site_fract_y
 _atom_site_fract_z
 _atom_site_occupancy
 _atom_site_hle17_bader_spin_density
 _atom_site_hle17_ddec_charge
 _atom_site_hle17_ddec_spin_density
 _atom_site_hle17_ddec_sum_bond_order
 _atom_site_hle17_magmom
 _atom_site_hse06_10hf_bader_spin_density
 _atom_site_hse06_10hf_ddec_charge
 _atom_site_hse06_10hf_ddec_spin_density
 _atom_site_hse06_10hf_ddec_sum_bond_order
 _atom_site_hse06_10hf_magmom
 _atom_site_hse06_bader_spin_density
 _atom_site_hse06_ddec_charge
 _atom_site_hse06_ddec_spin_density
 _atom_site_hse06_ddec_sum_bond_order
 _atom_site_hse06_magmom
 _atom_site_pbe_bader_charge
 _atom_site_pbe_bader_spin_density
 _atom_site_pbe_cm5_charge
 _atom_site_pbe_ddec_charge
 _atom_site_pbe_ddec_spin_density
 _atom_site_pbe_ddec_sum_bond_order
 _atom_site_pbe_magmom
Cd  Cd0  1  0.00000000  0.00000000  0.00000000  1  0  1.048363  0  1.71327  0  0  0.835159  0  2.155956  0  0  0.887729  0  2.114609  0  1.242736  0  0.794349  0.797974  0  2.184016  0
Cd  Cd1  1  0.49999994  0.49999952  0.50000000  1  0  1.048391  0  1.713236  0  0  0.835168  0  2.155933  0  0  0.88774  0  2.114586  0  1.24276  0  0.794349  0.797985  0  2.18399  0
H  H2  1  0.88764101  0.76774045  0.73445801  1  0  0.114701  0  0.950714  0  0  0.120335  0  1.015946  0  0  0.123987  0  1.014549  0  0.094861  0  0.107996  0.117703  0  1.017142  0
H  H3  1  0.61235915  0.73226003  0.23445857  1  0  0.114708  0  0.950719  0  0  0.120345  0  1.015942  0  0  0.123993  0  1.014551  0  0.094871  0  0.108  0.117713  0  1.01714  0
H  H4  1  0.11235921  0.23226051  0.26554143  1  0  0.114706  0  0.950729  0  0  0.12035  0  1.015943  0  0  0.123998  0  1.014552  0  0.094875  0  0.108006  0.117718  0  1.017142  0
H  H5  1  0.38764090  0.26773997  0.76554143  1  0  0.11471  0  0.950725  0  0  0.12035  0  1.015943  0  0  0.123998  0  1.014553  0  0.094871  0  0.108002  0.117717  0  1.017145  0
H  H6  1  0.68395901  0.80080454  0.98738820  1  0  0.079491  0  0.980242  0  0  0.085898  0  1.051811  0  0  0.088249  0  1.049456  0  0.127169  0  0.112948  0.084126  0  1.053541  0
H  H7  1  0.81604080  0.69919401  0.48738820  1  0  0.079482  0  0.980243  0  0  0.085891  0  1.051817  0  0  0.088242  0  1.049462  0  0.127163  0  0.112941  0.084119  0  1.053547  0
H  H8  1  0.31604199  0.19919449  0.01261124  1  0  0.079462  0  0.980229  0  0  0.085866  0  1.051814  0  0  0.088218  0  1.049459  0  0.127157  0  0.11293  0.084094  0  1.053545  0
H  H9  1  0.18395794  0.30080503  0.51261124  1  0  0.079491  0  0.980219  0  0  0.085899  0  1.051789  0  0  0.088251  0  1.049435  0  0.127159  0  0.112944  0.084127  0  1.05352  0
H  H10  1  0.64330395  0.62731412  0.76900301  1  0  0.106936  0  0.955878  0  0  0.111013  0  1.027027  0  0  0.114601  0  1.0239  0  0.112784  0  0.10796  0.108497  0  1.029067  0
H  H11  1  0.85669621  0.87268636  0.26900301  1  0  0.106931  0  0.955875  0  0  0.11101  0  1.027024  0  0  0.114599  0  1.023895  0  0.112768  0  0.107965  0.108494  0  1.029063  0
H  H12  1  0.35669723  0.37268588  0.23099699  1  0  0.106911  0  0.955891  0  0  0.110989  0  1.027037  0  0  0.114578  0  1.023908  0  0.112777  0  0.107959  0.108474  0  1.029076  0
H  H13  1  0.14330271  0.12731364  0.73099699  1  0  0.106909  0  0.955888  0  0  0.110989  0  1.027034  0  0  0.114577  0  1.023905  0  0.112773  0  0.107956  0.108473  0  1.029074  0
H  H14  1  0.37887865  0.73789975  0.97393554  1  0  0.134781  0  0.945274  0  0  0.156018  0  1.005398  0  0  0.157074  0  1.00566  0  0.081838  0  0.098448  0.155254  0  1.005168  0
H  H15  1  0.12112098  0.76210073  0.47393610  1  0  0.134787  0  0.94527  0  0  0.156026  0  1.005392  0  0  0.157081  0  1.005654  0  0.081841  0  0.098453  0.155262  0  1.005163  0
H  H16  1  0.62112157  0.26210122  0.02606446  1  0  0.134791  0  0.94526  0  0  0.156034  0  1.005373  0  0  0.15709  0  1.005636  0  0.081842  0  0.09846  0.15527  0  1.005144  0
H  H17  1  0.87887889  0.23789830  0.52606390  1  0  0.134795  0  0.945276  0  0  0.15603  0  1.005402  0  0  0.157085  0  1.005665  0  0.08186  0  0.098452  0.155266  0  1.005173  0
H  H18  1  0.50865969  0.65595197  0.02279302  1  0  0.129182  0  0.961093  0  0  0.145547  0  1.029685  0  0  0.147059  0  1.029568  0  0.099191  0  0.096239  0.144449  0  1.029733  0
H  H19  1  0.99133916  0.84404755  0.52279302  1  0  0.129165  0  0.961122  0  0  0.145531  0  1.029715  0  0  0.147043  0  1.029598  0  0.099172  0  0.096234  0.144433  0  1.029762  0
H  H20  1  0.49134018  0.34404706  0.97720698  1  0  0.129184  0  0.961111  0  0  0.145553  0  1.029695  0  0  0.147065  0  1.029579  0  0.099149  0  0.096241  0.144455  0  1.029743  0
H  H21  1  0.00865958  0.15595149  0.47720698  1  0  0.129177  0  0.961135  0  0  0.145544  0  1.02972  0  0  0.147056  0  1.029604  0  0.099177  0  0.096232  0.144447  0  1.029768  0
H  H22  1  0.33261588  0.56832393  0.98914520  1  0  0.121719  0  0.952859  0  0  0.138801  0  1.014576  0  0  0.141091  0  1.014411  0  0.048946  0  0.095026  0.137187  0  1.014669  0
H  H23  1  0.16738357  0.93167559  0.48914520  1  0  0.121706  0  0.952858  0  0  0.138789  0  1.014575  0  0  0.14108  0  1.01441  0  0.048969  0  0.095026  0.137176  0  1.014668  0
H  H24  1  0.66738416  0.43167607  0.01085536  1  0  0.121717  0  0.952855  0  0  0.138801  0  1.014571  0  0  0.141091  0  1.014406  0  0.048957  0  0.095027  0.137188  0  1.014664  0
H  H25  1  0.83261630  0.06832344  0.51085480  1  0  0.121707  0  0.952852  0  0  0.138792  0  1.014568  0  0  0.141082  0  1.014403  0  0.048958  0  0.095023  0.137179  0  1.014661  0
H  H26  1  0.02264820  0.91638309  0.83120107  1  0  0.083089  0  0.979441  0  0  0.087029  0  1.052191  0  0  0.090144  0  1.048322  0  0.151153  0  0.109492  0.084699  0  1.055035  0
H  H27  1  0.47735143  0.58361739  0.33120163  1  0  0.083073  0  0.97944  0  0  0.087028  0  1.052191  0  0  0.090143  0  1.04832  0  0.15115  0  0.109505  0.084698  0  1.055034  0
H  H28  1  0.97735298  0.08361691  0.16879893  1  0  0.083077  0  0.979436  0  0  0.087023  0  1.052185  0  0  0.090138  0  1.048315  0  0.151161  0  0.109499  0.084693  0  1.055029  0
H  H29  1  0.52264748  0.41638260  0.66879837  1  0  0.083076  0  0.979408  0  0  0.087017  0  1.052161  0  0  0.090131  0  1.048292  0  0.151169  0  0.109502  0.084687  0  1.055005  0
H  H30  1  0.11638541  0.64430279  0.80439668  1  0  0.123069  0  0.937083  0  0  0.146097  0  0.99424  0  0  0.146819  0  0.995154  0  0.023092  0  0.097765  0.145601  0  0.993539  0
H  H31  1  0.38361405  0.85569672  0.30439612  1  0  0.123076  0  0.937075  0  0  0.146088  0  0.99425  0  0  0.14681  0  0.995164  0  0.023097  0  0.097753  0.145592  0  0.993549  0
H  H32  1  0.88361464  0.35569721  0.19560388  1  0  0.123085  0  0.937068  0  0  0.146097  0  0.994241  0  0  0.14682  0  0.995155  0  0.023103  0  0.097755  0.145601  0  0.993541  0
H  H33  1  0.61638600  0.14430327  0.69560388  1  0  0.123079  0  0.937074  0  0  0.146091  0  0.994248  0  0  0.146813  0  0.995163  0  0.023095  0  0.097751  0.145595  0  0.993548  0
H  H34  1  0.10141570  0.52353246  0.73412401  1  0  0.126476  0  0.96764  0  0  0.143076  0  1.034883  0  0  0.144315  0  1.035077  0  0.088993  0  0.092664  0.142095  0  1.03484  0
H  H35  1  0.39858488  0.97646705  0.23412401  1  0  0.126483  0  0.967618  0  0  0.143082  0  1.034864  0  0  0.14432  0  1.035058  0  0.088993  0  0.092664  0.1421  0  1.034821  0
H  H36  1  0.89858435  0.47646754  0.26587599  1  0  0.126474  0  0.967635  0  0  0.143075  0  1.034877  0  0  0.144314  0  1.035071  0  0.088988  0  0.092665  0.142094  0  1.034833  0
H  H37  1  0.60141516  0.02353294  0.76587655  1  0  0.126489  0  0.967647  0  0  0.143088  0  1.034888  0  0  0.144327  0  1.035082  0  0.088973  0  0.092678  0.142107  0  1.034844  0
H  H38  1  0.28498345  0.60681246  0.76184677  1  0  0.124512  0  0.957625  0  0  0.140739  0  1.021231  0  0  0.142606  0  1.021723  0  0.061601  0  0.096673  0.13941  0  1.020849  0
H  H39  1  0.21501635  0.89318899  0.26184733  1  0  0.124499  0  0.957639  0  0  0.140728  0  1.021241  0  0  0.142596  0  1.021731  0  0.061598  0  0.096671  0.139398  0  1.02086  0
H  H40  1  0.71501677  0.39318851  0.23815323  1  0  0.124511  0  0.957627  0  0  0.140741  0  1.021229  0  0  0.142609  0  1.021718  0  0.061605  0  0.096677  0.139411  0  1.020847  0
H  H41  1  0.78498369  0.10681101  0.73815267  1  0  0.124513  0  0.957624  0  0  0.14074  0  1.021228  0  0  0.142609  0  1.021718  0  0.061605  0  0.096675  0.13941  0  1.020847  0
H  H42  1  0.18643195  0.24399947  0.91590610  1  0  0.075066  0  0.995741  0  0  0.072581  0  1.083537  0  0  0.075596  0  1.080071  0  0.121269  0  0.110056  0.070608  0  1.0856  0
H  H43  1  0.31356912  0.25600005  0.41590554  1  0  0.075123  0  0.995703  0  0  0.072603  0  1.083524  0  0  0.075618  0  1.080058  0  0.121283  0  0.11007  0.070625  0  1.085591  0
H  H44  1  0.81356810  0.75600053  0.08409390  1  0  0.075128  0  0.995703  0  0  0.072612  0  1.083533  0  0  0.075627  0  1.080067  0  0.121295  0  0.11007  0.070639  0  1.085596  0
H  H45  1  0.68643093  0.74399995  0.58409446  1  0  0.075073  0  0.995758  0  0  0.072585  0  1.083551  0  0  0.0756  0  1.080086  0  0.121302  0  0.110059  0.070607  0  1.085619  0
H  H46  1  0.87904150  0.46543137  0.80614587  1  0  0.107232  0  0.96243  0  0  0.115894  0  1.027056  0  0  0.118454  0  1.025514  0  0.092194  0  0.107607  0.113997  0  1.028169  0
H  H47  1  0.62096044  0.03457008  0.30614754  1  0  0.107169  0  0.962473  0  0  0.115875  0  1.027058  0  0  0.118436  0  1.025516  0  0.092219  0  0.1076  0.113977  0  1.028173  0
H  H48  1  0.12095776  0.53457056  0.19385413  1  0  0.107166  0  0.962469  0  0  0.115851  0  1.027075  0  0  0.11841  0  1.025534  0  0.092212  0  0.107593  0.113955  0  1.028185  0
H  H49  1  0.37904074  0.96542992  0.69385302  1  0  0.10715  0  0.962494  0  0  0.115858  0  1.027075  0  0  0.118418  0  1.025533  0  0.092213  0  0.107599  0.11396  0  1.028187  0
H  H50  1  0.71903275  0.11097467  0.92277350  1  0  0.091629  0  0.946954  0  0  0.095953  0  1.018418  0  0  0.098624  0  1.015556  0  0.121782  0  0.115463  0.09399  0  1.020459  0
H  H51  1  0.78096920  0.38902678  0.42277350  1  0  0.091617  0  0.946943  0  0  0.09595  0  1.018396  0  0  0.09862  0  1.015535  0  0.121762  0  0.115453  0.093985  0  1.020437  0
H  H52  1  0.28096843  0.88902533  0.07722650  1  0  0.09161  0  0.946967  0  0  0.09595  0  1.018409  0  0  0.09862  0  1.015547  0  0.121775  0  0.115455  0.093986  0  1.02045  0
H  H53  1  0.21903102  0.61097419  0.57722650  1  0  0.091623  0  0.946952  0  0  0.095957  0  1.018403  0  0  0.098627  0  1.015543  0  0.121769  0  0.115458  0.093993  0  1.020444  0
H  H54  1  0.66267062  0.29931545  0.84824467  1  0  0.117835  0  0.933429  0  0  0.129019  0  0.987103  0  0  0.13229  0  0.986256  0  0.107699  0  0.113914  0.126661  0  0.987901  0
H  H55  1  0.83733002  0.20068503  0.34824523  1  0  0.117841  0  0.933378  0  0  0.129018  0  0.987068  0  0  0.13229  0  0.98622  0  0.107683  0  0.113925  0.12666  0  0.987867  0
H  H56  1  0.33732943  0.70068455  0.15175533  1  0  0.117816  0  0.933452  0  0  0.129001  0  0.987126  0  0  0.132272  0  0.986279  0  0.107688  0  0.113907  0.126643  0  0.987925  0
H  H57  1  0.16267003  0.79931497  0.65175477  1  0  0.117844  0  0.933391  0  0  0.129022  0  0.987082  0  0  0.132293  0  0.986234  0  0.107691  0  0.11393  0.126663  0  0.987881  0
C  C58  1  0.49964171  0.62155663  0.90413182  1  0  0.261456  0  3.696549  0  0  0.255575  0  3.956908  0  0  0.267165  0  3.972342  0  0.652076  0  0.143476  0.247761  0  3.946229  0
C  C59  1  0.00035775  0.87844289  0.40413349  1  0  0.261456  0  3.696517  0  0  0.255557  0  3.956897  0  0  0.267146  0  3.972332  0  0.652044  0  0.14348  0.247743  0  3.946218  0
C  C60  1  0.50035851  0.37844434  0.09586763  1  0  0.261439  0  3.696488  0  0  0.255566  0  3.956834  0  0  0.267155  0  3.972269  0  0.652104  0  0.143472  0.247751  0  3.946157  0
C  C61  1  0.99964212  0.12155615  0.59586651  1  0  0.261451  0  3.696493  0  0  0.255567  0  3.956874  0  0  0.267155  0  3.972309  0  0.652059  0  0.143477  0.247752  0  3.946195  0
C  C62  1  0.64541680  0.69961974  0.88185346  1  0  -0.029911  0  3.7466  0  0  -0.008201  0  3.978014  0  0  -0.014192  0  3.999723  0  0.013271  0  0.00044  -0.004692  0  3.963659  0
C  C63  1  0.85458239  0.80038171  0.38185346  1  0  -0.029901  0  3.746621  0  0  -0.008165  0  3.978013  0  0  -0.014156  0  3.999724  0  0.013019  0  0.000448  -0.004655  0  3.963657  0
C  C64  1  0.35458307  0.30037930  0.11814709  1  0  -0.029875  0  3.746486  0  0  -0.008166  0  3.9779  0  0  -0.014155  0  3.999608  0  0.013023  0  0.000446  -0.004657  0  3.963546  0
C  C65  1  0.14541669  0.19961926  0.61814709  1  0  -0.029872  0  3.74654  0  0  -0.008182  0  3.977992  0  0  -0.014173  0  3.999703  0  0.013015  0  0.000447  -0.004672  0  3.963636  0
C  C66  1  0.84055504  0.77081131  0.79045612  1  0  -0.113424  0  3.732198  0  0  -0.12329  0  3.986209  0  0  -0.131018  0  4.007403  0  0.058535  0  -0.082987  -0.118577  0  3.972089  0
C  C67  1  0.65944399  0.72918917  0.29045667  1  0  -0.113496  0  3.732189  0  0  -0.123352  0  3.986217  0  0  -0.131077  0  4.007408  0  0.058547  0  -0.083026  -0.11864  0  3.972096  0
C  C68  1  0.15944518  0.22918965  0.20954333  1  0  -0.113525  0  3.732286  0  0  -0.123401  0  3.98632  0  0  -0.131126  0  4.007512  0  0.058546  0  -0.083044  -0.118688  0  3.972199  0
C  C69  1  0.34055589  0.27080986  0.70954333  1  0  -0.113548  0  3.732277  0  0  -0.123421  0  3.986313  0  0  -0.131147  0  4.007503  0  0.058533  0  -0.083051  -0.118708  0  3.972193  0
C  C70  1  0.72723785  0.78739935  0.93158135  1  0  0.110031  0  3.657113  0  0  0.071728  0  3.901685  0  0  0.07877  0  3.920258  0  0.446514  0  0.048693  0.067269  0  3.889018  0
C  C71  1  0.77276326  0.71260017  0.43158135  1  0  0.11  0  3.657184  0  0  0.071683  0  3.901766  0  0  0.078724  0  3.920339  0  0.446509  0  0.04868  0.067224  0  3.889098  0
C  C72  1  0.27276332  0.21260065  0.06841865  1  0  0.110085  0  3.657092  0  0  0.071771  0  3.90168  0  0  0.078812  0  3.920252  0  0.446541  0  0.048717  0.067312  0  3.889013  0
C  C73  1  0.22723661  0.28739886  0.56841865  1  0  0.110006  0  3.657142  0  0  0.071702  0  3.90173  0  0  0.078742  0  3.920305  0  0.446553  0  0.048693  0.067242  0  3.889062  0
C  C74  1  0.18485007  0.46442642  0.83923218  1  0  0.247615  0  3.71316  0  0  0.243688  0  3.97078  0  0  0.254381  0  3.987022  0  0.629872  0  0.139182  0.236546  0  3.959665  0
C  C75  1  0.31514969  0.03557213  0.33923274  1  0  0.247603  0  3.71316  0  0  0.243676  0  3.970777  0  0  0.25437  0  3.98702  0  0.629906  0  0.139194  0.236536  0  3.95966  0
C  C76  1  0.81514997  0.53557358  0.16076782  1  0  0.247624  0  3.713122  0  0  0.243699  0  3.970726  0  0  0.254392  0  3.986969  0  0.629883  0  0.139188  0.236557  0  3.959613  0
C  C77  1  0.68485018  0.96442690  0.66076726  1  0  0.2476  0  3.713181  0  0  0.243669  0  3.970792  0  0  0.254361  0  3.987035  0  0.629913  0  0.139175  0.236528  0  3.959676  0
C  C78  1  0.70471252  0.69298665  0.80956061  1  0  -0.023275  0  3.671288  0  0  -0.054217  0  3.922914  0  0  -0.049723  0  3.939363  0  -0.052891  0  -0.058836  -0.056716  0  3.911692  0
C  C79  1  0.79528650  0.80701383  0.30956061  1  0  -0.023252  0  3.67127  0  0  -0.054198  0  3.922886  0  0  -0.049705  0  3.939335  0  -0.052634  0  -0.058829  -0.056698  0  3.911663  0
C  C80  1  0.29528770  0.30701432  0.19043939  1  0  -0.023236  0  3.671244  0  0  -0.054165  0  3.922852  0  0  -0.049671  0  3.939299  0  -0.052655  0  -0.058839  -0.056664  0  3.91163  0
C  C81  1  0.20471224  0.19298520  0.69043939  1  0  -0.023214  0  3.671232  0  0  -0.054141  0  3.922855  0  0  -0.049646  0  3.939302  0  -0.052651  0  -0.058817  -0.05664  0  3.911629  0
C  C82  1  0.42600711  0.64667375  0.97676202  1  0  -0.384328  0  3.695329  0  0  -0.462276  0  3.927102  0  0  -0.466927  0  3.935333  0  -0.101785  0  -0.243136  -0.458783  0  3.921213  0
C  C83  1  0.07399234  0.85332576  0.47676313  1  0  -0.384329  0  3.695355  0  0  -0.462283  0  3.927149  0  0  -0.466933  0  3.935379  0  -0.101812  0  -0.243162  -0.458791  0  3.92126  0
C  C84  1  0.57399294  0.35332625  0.02323743  1  0  -0.384338  0  3.695305  0  0  -0.462302  0  3.927094  0  0  -0.466952  0  3.935325  0  -0.101786  0  -0.243154  -0.458809  0  3.921206  0
C  C85  1  0.92600753  0.14667327  0.52323687  1  0  -0.384353  0  3.695361  0  0  -0.462302  0  3.927143  0  0  -0.466949  0  3.935373  0  -0.101822  0  -0.243155  -0.458811  0  3.921254  0
C  C86  1  0.91561619  0.85399477  0.84385692  1  0  0.123606  0  3.694916  0  0  0.090488  0  3.945515  0  0  0.098936  0  3.96273  0  0.411946  0  0.040337  0.085217  0  3.93359  0
C  C87  1  0.58438266  0.64600475  0.34385804  1  0  0.123684  0  3.694827  0  0  0.090525  0  3.945459  0  0  0.098973  0  3.962673  0  0.411949  0  0.040349  0.085254  0  3.933535  0
C  C88  1  0.08438386  0.14600523  0.15614252  1  0  0.123724  0  3.694827  0  0  0.09059  0  3.945446  0  0  0.099038  0  3.96266  0  0.411956  0  0.04038  0.085318  0  3.933523  0
C  C89  1  0.41561591  0.35399332  0.65614308  1  0  0.12372  0  3.694804  0  0  0.090591  0  3.945423  0  0  0.09904  0  3.962636  0  0.41194  0  0.040363  0.085319  0  3.933498  0
C  C90  1  0.17077876  0.56498759  0.78141630  1  0  -0.378633  0  3.710616  0  0  -0.454647  0  3.941926  0  0  -0.459001  0  3.950432  0  -0.04869  0  -0.242294  -0.451316  0  3.935951  0
C  C91  1  0.32922069  0.93501193  0.28141630  1  0  -0.378627  0  3.710605  0  0  -0.454631  0  3.941912  0  0  -0.458984  0  3.950417  0  -0.048707  0  -0.24229  -0.4513  0  3.935936  0
C  C92  1  0.82922128  0.43501241  0.21858370  1  0  -0.378633  0  3.710598  0  0  -0.454641  0  3.941905  0  0  -0.458995  0  3.950411  0  -0.048703  0  -0.242288  -0.45131  0  3.935931  0
C  C93  1  0.67077822  0.06498807  0.71858370  1  0  -0.378637  0  3.710611  0  0  -0.454642  0  3.941914  0  0  -0.458994  0  3.950419  0  -0.048688  0  -0.242296  -0.451311  0  3.935939  0
C  C94  1  0.07127378  0.25950146  0.90111520  1  0  0.103661  0  3.685803  0  0  0.06275  0  3.936458  0  0  0.070603  0  3.95429  0  0.485951  0  0.048194  0.057158  0  3.925222  0
C  C95  1  0.42872633  0.24049902  0.40111576  1  0  0.103613  0  3.685725  0  0  0.062729  0  3.936371  0  0  0.070583  0  3.9542  0  0.485951  0  0.048149  0.057133  0  3.925154  0
C  C96  1  0.92872531  0.74049950  0.09888536  1  0  0.103633  0  3.68574  0  0  0.062727  0  3.936415  0  0  0.07058  0  3.954245  0  0.485893  0  0.04819  0.057131  0  3.925184  0
C  C97  1  0.57127372  0.75950098  0.59888480  1  0  0.10362  0  3.685793  0  0  0.062706  0  3.936428  0  0  0.070559  0  3.954258  0  0.48593  0  0.048154  0.057112  0  3.925208  0
C  C98  1  0.05130244  0.36896629  0.85942511  1  0  -0.036952  0  3.770984  0  0  -0.013713  0  3.999893  0  0  -0.02013  0  4.022447  0  -0.051098  0  -0.002389  -0.009769  0  3.984744  0
C  C99  1  0.44869846  0.13103227  0.35942567  1  0  -0.036885  0  3.7708  0  0  -0.013647  0  3.999719  0  0  -0.020065  0  4.022273  0  -0.051077  0  -0.002343  -0.009702  0  3.984566  0
C  C100  1  0.94869891  0.63103468  0.14057489  1  0  -0.036979  0  3.770988  0  0  -0.013712  0  3.999866  0  0  -0.02013  0  4.022421  0  -0.051058  0  -0.002394  -0.009768  0  3.984717  0
C  C101  1  0.55130142  0.86896677  0.64057489  1  0  -0.036909  0  3.770954  0  0  -0.013658  0  3.999854  0  0  -0.020075  0  4.022408  0  -0.051086  0  -0.002364  -0.009713  0  3.984702  0
C  C102  1  0.90149093  0.38349421  0.83950820  1  0  -0.034843  0  3.667885  0  0  -0.061344  0  3.907958  0  0  -0.057013  0  3.92501  0  0.013028  0  -0.061546  -0.063854  0  3.896377  0
C  C103  1  0.59850988  0.11650723  0.33950820  1  0  -0.034815  0  3.667864  0  0  -0.061352  0  3.90793  0  0  -0.057023  0  3.924984  0  0.01287  0  -0.061545  -0.063861  0  3.896347  0
C  C104  1  0.09850946  0.61650772  0.16049236  1  0  -0.034798  0  3.667904  0  0  -0.06132  0  3.907966  0  0  -0.056988  0  3.925018  0  0.01302  0  -0.061545  -0.063829  0  3.896385  0
C  C105  1  0.40149017  0.88349276  0.66049236  1  0  -0.034752  0  3.667905  0  0  -0.061291  0  3.907965  0  0  -0.056962  0  3.92502  0  0.013015  0  -0.061519  -0.0638  0  3.896384  0
C  C106  1  0.81061058  0.18546686  0.90399576  1  0  0.128827  0  3.677688  0  0  0.093097  0  3.932278  0  0  0.101511  0  3.949953  0  0.499394  0  0.043942  0.087644  0  3.920169  0
C  C107  1  0.68939102  0.31453266  0.40399632  1  0  0.128858  0  3.677718  0  0  0.093127  0  3.932292  0  0  0.101541  0  3.949966  0  0.499547  0  0.043963  0.087675  0  3.92018  0
C  C108  1  0.18938947  0.81453314  0.09600368  1  0  0.128855  0  3.677676  0  0  0.093117  0  3.932268  0  0  0.101531  0  3.949943  0  0.499394  0  0.043954  0.087664  0  3.920159  0
C  C109  1  0.31060903  0.68546734  0.59600424  1  0  0.128854  0  3.677702  0  0  0.093122  0  3.932278  0  0  0.101537  0  3.949952  0  0.499392  0  0.043967  0.08767  0  3.920168  0
C  C110  1  0.78048716  0.29070527  0.86229731  1  0  -0.10144  0  3.717032  0  0  -0.109643  0  3.966207  0  0  -0.116663  0  3.986222  0  -0.024681  0  -0.076588  -0.105361  0  3.952942  0
C  C111  1  0.71951444  0.20929424  0.36229787  1  0  -0.101425  0  3.717017  0  0  -0.109632  0  3.966208  0  0  -0.116651  0  3.986222  0  -0.024552  0  -0.076598  -0.105351  0  3.952942  0
C  C112  1  0.21951402  0.70929473  0.13770325  1  0  -0.101426  0  3.717014  0  0  -0.109639  0  3.966209  0  0  -0.116658  0  3.986223  0  -0.02469  0  -0.076588  -0.105358  0  3.952946  0
C  C113  1  0.28048561  0.79070576  0.63770269  1  0  -0.101456  0  3.717035  0  0  -0.109665  0  3.966234  0  0  -0.116684  0  3.986247  0  -0.024715  0  -0.07662  -0.105384  0  3.952969  0
N  N114  1  0.85979839  0.86139437  0.91338686  1  0  -0.345127  0  3.277903  0  0  -0.262745  0  3.543425  0  0  -0.284389  0  3.564183  0  -1.253847  0  -0.334501  -0.247966  0  3.528652  0
N  N115  1  0.64020289  0.63860611  0.41338686  1  0  -0.345114  0  3.277899  0  0  -0.26272  0  3.543444  0  0  -0.284362  0  3.564201  0  -1.253869  0  -0.3345  -0.247941  0  3.528671  0
N  N116  1  0.14020278  0.13860563  0.08661258  1  0  -0.345198  0  3.277906  0  0  -0.262809  0  3.543445  0  0  -0.284454  0  3.564204  0  -1.253884  0  -0.334518  -0.24803  0  3.528673  0
N  N117  1  0.35979715  0.36139389  0.58661258  1  0  -0.34515  0  3.277889  0  0  -0.262757  0  3.543422  0  0  -0.2844  0  3.564179  0  -1.253869  0  -0.334496  -0.247978  0  3.528649  0
N  N118  1  0.43913531  0.53508607  0.85672689  1  0  -0.225758  0  3.140984  0  0  -0.193167  0  3.420024  0  0  -0.208405  0  3.441777  0  -0.735198  0  -0.192295  -0.182551  0  3.404562  0
N  N119  1  0.06086640  0.96491345  0.35672689  1  0  -0.225702  0  3.140934  0  0  -0.193105  0  3.419978  0  0  -0.208342  0  3.441731  0  -0.735532  0  -0.192256  -0.18249  0  3.404515  0
N  N120  1  0.56086587  0.46491393  0.14327311  1  0  -0.225741  0  3.141001  0  0  -0.193152  0  3.42004  0  0  -0.20839  0  3.441793  0  -0.735581  0  -0.192273  -0.182535  0  3.404577  0
N  N121  1  0.93913347  0.03508559  0.64327311  1  0  -0.225709  0  3.14089  0  0  -0.193112  0  3.419928  0  0  -0.208351  0  3.441684  0  -0.735538  0  -0.192262  -0.182497  0  3.404467  0
N  N122  1  0.31047535  0.45658564  0.87513159  1  0  -0.220492  0  3.167682  0  0  -0.18828  0  3.450679  0  0  -0.202535  0  3.472331  0  -0.740754  0  -0.190917  -0.17849  0  3.435316  0
N  N123  1  0.18952554  0.04341291  0.37513215  1  0  -0.220537  0  3.167714  0  0  -0.188321  0  3.450708  0  0  -0.202575  0  3.472361  0  -0.740406  0  -0.190953  -0.178529  0  3.435342  0
N  N124  1  0.68952470  0.54341436  0.12486785  1  0  -0.22052  0  3.167708  0  0  -0.18831  0  3.450703  0  0  -0.202563  0  3.472355  0  -0.740377  0  -0.190931  -0.178517  0  3.435339  0
N  N125  1  0.81047433  0.95658612  0.62486785  1  0  -0.220532  0  3.167668  0  0  -0.188318  0  3.450666  0  0  -0.202572  0  3.47232  0  -0.740424  0  -0.190932  -0.178526  0  3.435301  0
N  N126  1  0.95480786  0.17058657  0.92302108  1  0  -0.341796  0  3.280959  0  0  -0.25746  0  3.545425  0  0  -0.279043  0  3.56563  0  -1.256662  0  -0.333951  -0.242633  0  3.531215  0
N  N127  1  0.54519374  0.32941295  0.42301996  1  0  -0.341871  0  3.280984  0  0  -0.25752  0  3.54542  0  0  -0.279106  0  3.56563  0  -1.256812  0  -0.333947  -0.24269  0  3.531206  0
N  N128  1  0.04519219  0.82941343  0.07697948  1  0  -0.341806  0  3.280957  0  0  -0.257459  0  3.545418  0  0  -0.279043  0  3.565623  0  -1.256662  0  -0.333948  -0.24263  0  3.531207  0
N  N129  1  0.45480631  0.67058705  0.57697948  1  0  -0.341838  0  3.280925  0  0  -0.257493  0  3.545381  0  0  -0.279076  0  3.565586  0  -1.256637  0  -0.33395  -0.242663  0  3.531168  0
Cl  Cl130  1  0.35191571  0.01128620  0.88163377  1  0  1.390318  0  6.201937  0  0  1.326234  0  6.767556  0  0  1.378794  0  6.744234  0  3.090123  0  0.731623  1.29008  0  6.782452  0
Cl  Cl131  1  0.14808440  0.48871428  0.38163377  1  0  1.390297  0  6.201973  0  0  1.326217  0  6.767585  0  0  1.378778  0  6.744259  0  3.090125  0  0.731615  1.290063  0  6.782481  0
Cl  Cl132  1  0.64808433  0.98871380  0.11836623  1  0  1.390343  0  6.201894  0  0  1.326262  0  6.767517  0  0  1.378821  0  6.744197  0  3.090123  0  0.731633  1.290107  0  6.782415  0
Cl  Cl133  1  0.85191582  0.51128668  0.61836623  1  0  1.390299  0  6.201978  0  0  1.326229  0  6.767562  0  0  1.378791  0  6.744231  0  3.090123  0  0.731618  1.290075  0  6.782457  0
O  O134  1  0.25025264  0.96608155  0.94515055  1  0  -0.595442  0  1.899266  0  0  -0.554238  0  2.171486  0  0  -0.571906  0  2.153931  0  -0.967964  0  -0.33154  -0.541738  0  2.182966  0
O  O135  1  0.24974699  0.53391893  0.44515055  1  0  -0.595444  0  1.899278  0  0  -0.554232  0  2.171486  0  0  -0.571905  0  2.15394  0  -0.967965  0  -0.331536  -0.541733  0  2.182965  0
O  O136  1  0.74974627  0.03391845  0.05484945  1  0  -0.595427  0  1.899266  0  0  -0.554232  0  2.171494  0  0  -0.571899  0  2.153935  0  -0.967958  0  -0.331538  -0.541733  0  2.182975  0
O  O137  1  0.75025306  0.46608107  0.55484945  1  0  -0.595436  0  1.899264  0  0  -0.554228  0  2.171472  0  0  -0.571903  0  2.153924  0  -0.96796  0  -0.331533  -0.54173  0  2.182952  0
O  O138  1  0.40929373  0.14842253  0.89138062  1  0  -0.538748  0  1.864019  0  0  -0.509672  0  2.111737  0  0  -0.525168  0  2.098366  0  -1.011011  0  -0.30315  -0.49885  0  2.120377  0
O  O139  1  0.09070733  0.35157699  0.39138062  1  0  -0.538735  0  1.863986  0  0  -0.509667  0  2.111709  0  0  -0.525164  0  2.098337  0  -1.011007  0  -0.30315  -0.498843  0  2.120346  0
O  O140  1  0.59070727  0.85157650  0.10861938  1  0  -0.538764  0  1.863986  0  0  -0.509696  0  2.111708  0  0  -0.525194  0  2.098335  0  -1.011018  0  -0.303164  -0.498873  0  2.120347  0
O  O141  1  0.90929271  0.64842301  0.60861938  1  0  -0.538732  0  1.864039  0  0  -0.509665  0  2.111764  0  0  -0.525164  0  2.098393  0  -1.011022  0  -0.303145  -0.498842  0  2.120401  0
O  O142  1  0.26418473  0.99166302  0.81261514  1  0  -0.539985  0  1.879683  0  0  -0.507917  0  2.119978  0  0  -0.523863  0  2.106579  0  -1.01328  0  -0.303027  -0.496813  0  2.128725  0
O  O143  1  0.23581473  0.50833649  0.31261514  1  0  -0.539986  0  1.87971  0  0  -0.50791  0  2.119997  0  0  -0.523859  0  2.106601  0  -1.013279  0  -0.303024  -0.496807  0  2.128744  0
O  O144  1  0.73581532  0.00833698  0.18738486  1  0  -0.539999  0  1.87968  0  0  -0.507926  0  2.119969  0  0  -0.523878  0  2.106573  0  -1.013264  0  -0.303029  -0.496822  0  2.128716  0
O  O145  1  0.76418532  0.49166350  0.68738486  1  0  -0.539993  0  1.87971  0  0  -0.507914  0  2.119989  0  0  -0.523857  0  2.106589  0  -1.013276  0  -0.303023  -0.49681  0  2.128735  0
O  O146  1  0.47791339  0.93730083  0.88062953  1  0  -0.515258  0  1.868035  0  0  -0.488331  0  2.106901  0  0  -0.504961  0  2.096414  0  -0.996783  0  -0.298153  -0.476828  0  2.11356  0
O  O147  1  0.02208607  0.56269869  0.38063009  1  0  -0.515243  0  1.868032  0  0  -0.488325  0  2.106902  0  0  -0.504949  0  2.096414  0  -0.996788  0  -0.298154  -0.476821  0  2.113561  0
O  O148  1  0.52208666  0.06269917  0.11937047  1  0  -0.515262  0  1.868028  0  0  -0.488333  0  2.106889  0  0  -0.504956  0  2.0964  0  -0.996782  0  -0.298151  -0.476829  0  2.113548  0
O  O149  1  0.97791398  0.43730131  0.61937047  1  0  -0.515254  0  1.867989  0  0  -0.488336  0  2.106854  0  0  -0.504963  0  2.096365  0  -0.996779  0  -0.298168  -0.476832  0  2.113512  0
