# generated using pymatgen
data_LuH10(C3O4)2
_symmetry_space_group_name_H-M   'P 1'
_cell_length_a   5.14245971
_cell_length_b   8.79971652
_cell_length_c   25.91834561
_cell_angle_alpha   90.00283121
_cell_angle_beta   89.99890431
_cell_angle_gamma   95.68213438
_symmetry_Int_Tables_number   1
_chemical_formula_structural   LuH10(C3O4)2
_chemical_formula_sum   'Lu4 H40 C24 O32'
_cell_volume   1167.09897027
_cell_formula_units_Z   4
loop_
 _symmetry_equiv_pos_site_id
 _symmetry_equiv_pos_as_xyz
  1  'x, y, z'
loop_
 _atom_site_type_symbol
 _atom_site_label
 _atom_site_symmetry_multiplicity
 _atom_site_fract_x
 _atom_site_fract_y
 _atom_site_fract_z
 _atom_site_occupancy
 _atom_site_pbe_bader_charge
 _atom_site_pbe_bader_spin_density
 _atom_site_pbe_cm5_charge
 _atom_site_pbe_ddec_charge
 _atom_site_pbe_ddec_spin_density
 _atom_site_pbe_ddec_sum_bond_order
 _atom_site_pbe_magmom
Lu  Lu0  1  0.59440525  0.47754916  0.66025872  1  2.169766  0  1.331928  1.635145  0  2.765245  0
Lu  Lu1  1  0.40560666  0.02240567  0.16024959  1  2.1695  0  1.332058  1.635595  0  2.76443  0
Lu  Lu2  1  0.40555802  0.52245694  0.33973862  1  2.169647  0  1.33199  1.635053  0  2.765606  0
Lu  Lu3  1  0.59442210  0.97757702  0.83974389  1  2.169543  0  1.332039  1.635382  0  2.764858  0
H  H4  1  0.97186062  0.89334602  0.63760107  1  0.059502  0  0.114097  0.134225  0  0.947945  0
H  H5  1  0.90544889  0.85976396  0.70278525  1  0.083268  0  0.111658  0.127806  0  1.006782  0
H  H6  1  0.43881815  0.99538038  0.65927372  1  0.073202  0  0.110558  0.127566  0  0.966904  0
H  H7  1  0.20598625  0.10146467  0.68806751  1  0.09885  0  0.113301  0.136557  0  0.994398  0
H  H8  1  0.73925535  0.54806549  0.47994042  1  0.081042  0  0.10524  0.117065  0  1.01337  0
H  H9  1  0.97842668  0.67026266  0.51198045  1  0.053319  0  0.109051  0.12932  0  0.953309  0
H  H10  1  0.37499977  0.27133238  0.58575691  1  0.612306  0  0.332765  0.404564  0  0.874287  0
H  H11  1  0.11238793  0.33712964  0.60368543  1  0.669185  0  0.307157  0.403831  0  0.929123  0
H  H12  1  0.98025981  0.31883937  0.70727931  1  0.651017  0  0.306202  0.396202  0  0.940667  0
H  H13  1  0.73162527  0.19368116  0.71433051  1  0.664652  0  0.300598  0.397383  0  0.937379  0
H  H14  1  0.02818940  0.60660627  0.13760332  1  0.05891  0  0.114091  0.134208  0  0.948054  0
H  H15  1  0.09456952  0.64021836  0.20278549  1  0.083163  0  0.111682  0.12797  0  1.006789  0
H  H16  1  0.56123041  0.50458528  0.15927256  1  0.073386  0  0.11051  0.127597  0  0.966877  0
H  H17  1  0.79404147  0.39850539  0.18807012  1  0.098392  0  0.113183  0.136412  0  0.994466  0
H  H18  1  0.26073465  0.95192868  0.97992920  1  0.081022  0  0.105213  0.117091  0  1.013363  0
H  H19  1  0.02154282  0.82974350  0.01196100  1  0.05334  0  0.109061  0.129385  0  0.953494  0
H  H20  1  0.62502847  0.22864957  0.08575771  1  0.612038  0  0.332779  0.40459  0  0.874206  0
H  H21  1  0.88764484  0.16284450  0.10368294  1  0.6679  0  0.307121  0.403751  0  0.929251  0
H  H22  1  0.01974782  0.18113700  0.20727397  1  0.651233  0  0.306171  0.396188  0  0.940722  0
H  H23  1  0.26838470  0.30630075  0.21432514  1  0.664904  0  0.300553  0.397315  0  0.937505  0
H  H24  1  0.02811121  0.10664400  0.36239820  1  0.059555  0  0.114058  0.134055  0  0.948039  0
H  H25  1  0.09451298  0.14021470  0.29721325  1  0.083502  0  0.111643  0.127704  0  1.006896  0
H  H26  1  0.56112230  0.00463850  0.34072516  1  0.073101  0  0.110551  0.127469  0  0.966679  0
H  H27  1  0.79394869  0.89852566  0.31193986  1  0.098935  0  0.113329  0.136612  0  0.994293  0
H  H28  1  0.26073505  0.45198043  0.52006541  1  0.080764  0  0.105214  0.117016  0  1.013312  0
H  H29  1  0.02155075  0.32977650  0.48802577  1  0.053168  0  0.10901  0.129201  0  0.953436  0
H  H30  1  0.62497105  0.72867252  0.41424352  1  0.612228  0  0.332793  0.404582  0  0.87428  0
H  H31  1  0.88759630  0.66288430  0.39631886  1  0.66905  0  0.307122  0.403823  0  0.929117  0
H  H32  1  0.01971551  0.68115863  0.29272343  1  0.650926  0  0.306218  0.396214  0  0.940658  0
H  H33  1  0.26835954  0.80631562  0.28566838  1  0.664668  0  0.300585  0.397342  0  0.937429  0
H  H34  1  0.97187501  0.39338986  0.86240521  1  0.059265  0  0.114038  0.134116  0  0.948089  0
H  H35  1  0.90544962  0.35978500  0.79722266  1  0.083076  0  0.111604  0.127704  0  1.006867  0
H  H36  1  0.43881547  0.49541558  0.84073018  1  0.073055  0  0.110516  0.127618  0  0.966701  0
H  H37  1  0.20598456  0.60149334  0.81193494  1  0.098488  0  0.113241  0.136528  0  0.994399  0
H  H38  1  0.73929345  0.04805059  0.02006698  1  0.081047  0  0.105193  0.116967  0  1.013457  0
H  H39  1  0.97850342  0.17023905  0.98803248  1  0.052966  0  0.109085  0.129346  0  0.953448  0
H  H40  1  0.37498851  0.77135267  0.91424040  1  0.612098  0  0.332815  0.404556  0  0.874217  0
H  H41  1  0.11238136  0.83714507  0.89631324  1  0.668177  0  0.307145  0.40376  0  0.929218  0
H  H42  1  0.98026739  0.81885610  0.79272414  1  0.651192  0  0.30618  0.396132  0  0.940757  0
H  H43  1  0.73161737  0.69369474  0.78567259  1  0.664802  0  0.300576  0.397386  0  0.937434  0
C  C44  1  0.15401227  0.70845747  0.66863088  1  1.568999  0  0.242411  0.684673  0  4.078967  0
C  C45  1  0.06421579  0.86598169  0.67434648  1  -0.006959  0  -0.156687  -0.289754  0  3.945557  0
C  C46  1  0.28138956  0.98871756  0.68806979  1  -0.048237  0  -0.160377  -0.285474  0  3.954085  0
C  C47  1  0.40491942  0.97073716  0.74001948  1  1.533866  0  0.219607  0.640203  0  4.082079  0
C  C48  1  0.76759308  0.50627629  0.55957203  1  1.552382  0  0.203071  0.622879  0  4.138966  0
C  C49  1  0.89680952  0.55036696  0.50869042  1  -0.029811  0  -0.16284  -0.272269  0  3.943249  0
C  C50  1  0.84600978  0.79151658  0.16862377  1  1.568755  0  0.242605  0.685146  0  4.07881  0
C  C51  1  0.93582056  0.63399877  0.17434486  1  -0.00654  0  -0.156838  -0.290191  0  3.945647  0
C  C52  1  0.71865572  0.51125561  0.18806929  1  -0.048266  0  -0.160245  -0.285333  0  3.953896  0
C  C53  1  0.59509450  0.52926074  0.24001782  1  1.533777  0  0.219559  0.640173  0  4.082295  0
C  C54  1  0.23241072  0.99369970  0.05956377  1  1.552227  0  0.203194  0.623197  0  4.13819  0
C  C55  1  0.10318369  0.94962939  0.00868347  1  -0.029325  0  -0.162847  -0.272474  0  3.943594  0
C  C56  1  0.84596821  0.29153706  0.33136878  1  1.568333  0  0.242386  0.684669  0  4.079136  0
C  C57  1  0.93574656  0.13400955  0.32565164  1  -0.007024  0  -0.156578  -0.289485  0  3.945791  0
C  C58  1  0.71857561  0.01127824  0.31193102  1  -0.048259  0  -0.160453  -0.28546  0  3.953836  0
C  C59  1  0.59507033  0.02925500  0.25997632  1  1.533946  0  0.219518  0.640023  0  4.082431  0
C  C60  1  0.23237632  0.49375150  0.44043188  1  1.55221  0  0.203136  0.622842  0  4.138702  0
C  C61  1  0.10317092  0.44966759  0.49131309  1  -0.05919  0  -0.162874  -0.271974  0  3.943319  0
C  C62  1  0.15401170  0.20847875  0.83137434  1  1.568828  0  0.242588  0.685003  0  4.07898  0
C  C63  1  0.06422338  0.36600211  0.82565943  1  -0.006484  0  -0.156727  -0.289849  0  3.945896  0
C  C64  1  0.28137181  0.48874082  0.81193577  1  -0.048151  0  -0.16023  -0.285384  0  3.954099  0
C  C65  1  0.40490434  0.47073821  0.75998608  1  1.533604  0  0.219551  0.640163  0  4.082184  0
C  C66  1  0.76761526  0.00628873  0.94043049  1  1.552211  0  0.202974  0.622666  0  4.139043  0
C  C67  1  0.89685655  0.05036236  0.99131117  1  -0.058896  0  -0.162887  -0.272115  0  3.943457  0
O  O68  1  0.39627205  0.69278588  0.66937338  1  -1.18967  0  -0.366401  -0.57  0  2.286959  0
O  O69  1  0.98073857  0.59593317  0.66281120  1  -1.223566  0  -0.41017  -0.619233  0  2.375071  0
O  O70  1  0.62530730  0.04579317  0.75006440  1  -1.193675  0  -0.338949  -0.577693  0  2.268644  0
O  O71  1  0.29304141  0.88709177  0.77571958  1  -1.203245  0  -0.348395  -0.580603  0  2.263365  0
O  O72  1  0.81833480  0.38534467  0.58441663  1  -1.210475  0  -0.355991  -0.612749  0  2.213512  0
O  O73  1  0.60346891  0.59056663  0.57791720  1  -1.190675  0  -0.370507  -0.589263  0  2.189221  0
O  O74  1  0.28915635  0.31145467  0.61555368  1  -1.256279  0  -0.600078  -0.762926  0  2.09049  0
O  O75  1  0.80517082  0.28315796  0.69293546  1  -1.303775  0  -0.637233  -0.797554  0  2.101721  0
O  O76  1  0.60376077  0.80719391  0.16936362  1  -1.189359  0  -0.366427  -0.570134  0  2.286823  0
O  O77  1  0.01927934  0.90403666  0.16280189  1  -1.223341  0  -0.41024  -0.619397  0  2.375115  0
O  O78  1  0.37469701  0.45420755  0.25005685  1  -1.193354  0  -0.338952  -0.577725  0  2.26845  0
O  O79  1  0.70694933  0.61291479  0.27571773  1  -1.203279  0  -0.348308  -0.580473  0  2.263724  0
O  O80  1  0.18169393  0.11462907  0.08441765  1  -1.210418  0  -0.35602  -0.612888  0  2.213342  0
O  O81  1  0.39652082  0.90939604  0.07790766  1  -1.190867  0  -0.370678  -0.589449  0  2.188749  0
O  O82  1  0.71085981  0.18850985  0.11554885  1  -1.254711  0  -0.600056  -0.762948  0  2.090412  0
O  O83  1  0.19485316  0.21682540  0.19293196  1  -1.304057  0  -0.637134  -0.79752  0  2.10169  0
O  O84  1  0.60372207  0.30721883  0.33062898  1  -1.189059  0  -0.366366  -0.569881  0  2.287009  0
O  O85  1  0.01926023  0.40405549  0.33718730  1  -1.223376  0  -0.410213  -0.619245  0  2.375113  0
O  O86  1  0.37468007  0.95419672  0.24993295  1  -1.19399  0  -0.338907  -0.577586  0  2.268641  0
O  O87  1  0.70696189  0.11288999  0.22427584  1  -1.203326  0  -0.348353  -0.580581  0  2.263475  0
O  O88  1  0.18164277  0.61467504  0.41558380  1  -1.210444  0  -0.355868  -0.612634  0  2.213803  0
O  O89  1  0.39650888  0.40945422  0.42208207  1  -1.190647  0  -0.370658  -0.589357  0  2.188442  0
O  O90  1  0.71082007  0.68854904  0.38444945  1  -1.255983  0  -0.600085  -0.762941  0  2.090613  0
O  O91  1  0.19480516  0.71684347  0.30706458  1  -1.30367  0  -0.637266  -0.797547  0  2.101906  0
O  O92  1  0.39626310  0.19280369  0.83063719  1  -1.189684  0  -0.366439  -0.570076  0  2.286859  0
O  O93  1  0.98073804  0.09595756  0.83719082  1  -1.22325  0  -0.410202  -0.619286  0  2.375197  0
O  O94  1  0.62529817  0.54579258  0.74994551  1  -1.193334  0  -0.338956  -0.577687  0  2.268364  0
O  O95  1  0.29304629  0.38708762  0.72428501  1  -1.203228  0  -0.348316  -0.58052  0  2.263512  0
O  O96  1  0.81833399  0.88535935  0.91557777  1  -1.210608  0  -0.355878  -0.612664  0  2.213621  0
O  O97  1  0.60350733  0.09059352  0.92209046  1  -1.190807  0  -0.370571  -0.589198  0  2.189021  0
O  O98  1  0.28916578  0.81148660  0.88444580  1  -1.255025  0  -0.600152  -0.76292  0  2.090554  0
O  O99  1  0.80516509  0.78317339  0.80706615  1  -1.303964  0  -0.637171  -0.797526  0  2.101931  0
