# generated using pymatgen
data_KH14C13SNO7
_symmetry_space_group_name_H-M   'P 1'
_cell_length_a   8.21111820
_cell_length_b   10.29980620
_cell_length_c   17.71808049
_cell_angle_alpha   92.20685005
_cell_angle_beta   94.79649442
_cell_angle_gamma   93.56842119
_symmetry_Int_Tables_number   1
_chemical_formula_structural   KH14C13SNO7
_chemical_formula_sum   'K4 H56 C52 S4 N4 O28'
_cell_volume   1488.88706699
_cell_formula_units_Z   4
loop_
 _symmetry_equiv_pos_site_id
 _symmetry_equiv_pos_as_xyz
  1  'x, y, z'
loop_
 _atom_site_type_symbol
 _atom_site_label
 _atom_site_symmetry_multiplicity
 _atom_site_fract_x
 _atom_site_fract_y
 _atom_site_fract_z
 _atom_site_occupancy
 _atom_site_hle17_bader_spin_density
 _atom_site_hle17_ddec_charge
 _atom_site_hle17_ddec_spin_density
 _atom_site_hle17_ddec_sum_bond_order
 _atom_site_hle17_magmom
 _atom_site_hse06_10hf_bader_spin_density
 _atom_site_hse06_10hf_ddec_charge
 _atom_site_hse06_10hf_ddec_spin_density
 _atom_site_hse06_10hf_ddec_sum_bond_order
 _atom_site_hse06_10hf_magmom
 _atom_site_hse06_bader_spin_density
 _atom_site_hse06_ddec_charge
 _atom_site_hse06_ddec_spin_density
 _atom_site_hse06_ddec_sum_bond_order
 _atom_site_hse06_magmom
 _atom_site_pbe_bader_spin_density
 _atom_site_pbe_cm5_charge
 _atom_site_pbe_ddec_charge
 _atom_site_pbe_ddec_spin_density
 _atom_site_pbe_ddec_sum_bond_order
 _atom_site_pbe_magmom
K  K0  1  0.57842282  0.17539324  0.96724031  1  0  0.926998  0  0.468611  0  0  0.891435  0  0.64034  0  0  0.903803  0  0.618712  0  0  0.79662  0.881786  0  0.656359  0
K  K1  1  0.42156623  0.82459964  0.03275959  1  0  0.926994  0  0.468613  0  0  0.891413  0  0.640368  0  0  0.903791  0  0.618727  0  0  0.796626  0.881766  0  0.656396  0
K  K2  1  0.10665734  0.26716257  0.95813138  1  0  0.932575  0  0.435847  0  0  0.89277  0  0.605646  0  0  0.905484  0  0.583316  0  0  0.769343  0.882993  0  0.621877  0
K  K3  1  0.89334785  0.73283425  0.04186468  1  0  0.932589  0  0.435829  0  0  0.892812  0  0.605593  0  0  0.905495  0  0.583296  0  0  0.769372  0.883044  0  0.621804  0
H  H4  1  0.27532284  0.60876822  0.60254898  1  0  0.091389  0  0.963164  0  0  0.10047  0  1.029811  0  0  0.103149  0  1.027634  0  0  0.101671  0.0983  0  1.031749  0
H  H5  1  0.72467938  0.39123637  0.39745392  1  0  0.091404  0  0.963192  0  0  0.100525  0  1.029796  0  0  0.103206  0  1.027613  0  0  0.101705  0.098355  0  1.031733  0
H  H6  1  0.18361192  0.58069869  0.73125074  1  0  0.104074  0  0.987692  0  0  0.110901  0  1.057387  0  0  0.11409  0  1.057284  0  0  0.096476  0.1086  0  1.057738  0
H  H7  1  0.81638020  0.41930197  0.26875058  1  0  0.10405  0  0.987711  0  0  0.110887  0  1.057396  0  0  0.114072  0  1.057306  0  0  0.096472  0.108574  0  1.057764  0
H  H8  1  0.92567503  0.21459724  0.65439256  1  0  0.132559  0  0.96323  0  0  0.142316  0  1.026557  0  0  0.14526  0  1.027236  0  0  0.10482  0.140164  0  1.026375  0
H  H9  1  0.07432791  0.78540151  0.34560628  1  0  0.132568  0  0.963222  0  0  0.142315  0  1.026545  0  0  0.14526  0  1.027225  0  0  0.104817  0.140166  0  1.026354  0
H  H10  1  0.28401263  0.53574122  0.47316055  1  0  0.070359  0  0.939796  0  0  0.081568  0  1.00593  0  0  0.084776  0  1.001049  0  0  0.113069  0.079003  0  1.009741  0
H  H11  1  0.71599784  0.46425949  0.52684256  1  0  0.070352  0  0.939796  0  0  0.081586  0  1.005897  0  0  0.084773  0  1.001035  0  0  0.113079  0.079021  0  1.009707  0
H  H12  1  0.03868158  0.22741060  0.30697944  1  0  0.100052  0  0.975222  0  0  0.107785  0  1.041456  0  0  0.109652  0  1.043148  0  0  0.101839  0.106468  0  1.040392  0
H  H13  1  0.96132178  0.77259302  0.69302292  1  0  0.100086  0  0.975178  0  0  0.10781  0  1.041418  0  0  0.109674  0  1.043114  0  0  0.101842  0.106489  0  1.040355  0
H  H14  1  0.12329474  0.23574993  0.17594467  1  0  0.097006  0  0.973274  0  0  0.103602  0  1.041256  0  0  0.107204  0  1.038419  0  0  0.104803  0.100989  0  1.043296  0
H  H15  1  0.87670457  0.76424881  0.82405799  1  0  0.097034  0  0.973372  0  0  0.103638  0  1.041326  0  0  0.107241  0  1.03849  0  0  0.104816  0.101023  0  1.043367  0
H  H16  1  0.51477425  0.52106425  0.25343227  1  0  0.096885  0  0.963  0  0  0.105936  0  1.027531  0  0  0.108986  0  1.025826  0  0  0.104499  0.103645  0  1.028936  0
H  H17  1  0.48522869  0.47893450  0.74656714  1  0  0.096901  0  0.962994  0  0  0.105943  0  1.027542  0  0  0.109003  0  1.025806  0  0  0.104503  0.103646  0  1.028956  0
H  H18  1  0.43116357  0.51226933  0.38369092  1  0  0.107717  0  0.958969  0  0  0.117392  0  1.021611  0  0  0.120067  0  1.020931  0  0  0.106402  0.115491  0  1.02219  0
H  H19  1  0.56883867  0.48773624  0.61630750  1  0  0.107657  0  0.958973  0  0  0.117341  0  1.0216  0  0  0.120012  0  1.020923  0  0  0.106407  0.115439  0  1.022186  0
H  H20  1  0.79489128  0.91590978  0.59249316  1  0  0.09375  0  0.951623  0  0  0.103916  0  1.015608  0  0  0.106478  0  1.013475  0  0  0.103367  0.101894  0  1.017331  0
H  H21  1  0.20511059  0.08409092  0.40750682  1  0  0.093714  0  0.951668  0  0  0.103906  0  1.015625  0  0  0.106472  0  1.013491  0  0  0.10332  0.101881  0  1.017347  0
H  H22  1  0.71616689  0.95344210  0.72369602  1  0  0.106682  0  0.987048  0  0  0.113377  0  1.0566  0  0  0.116631  0  1.056502  0  0  0.096722  0.111102  0  1.056736  0
H  H23  1  0.28383377  0.04655859  0.27630448  1  0  0.106654  0  0.987056  0  0  0.113366  0  1.056599  0  0  0.11661  0  1.05651  0  0  0.096737  0.111091  0  1.056735  0
H  H24  1  0.44131180  0.27712554  0.64995494  1  0  0.134967  0  0.941175  0  0  0.147789  0  0.998046  0  0  0.151132  0  0.997788  0  0  0.107993  0.145407  0  0.998313  0
H  H25  1  0.55869145  0.72287711  0.35004457  1  0  0.134999  0  0.941119  0  0  0.147791  0  0.998028  0  0  0.151127  0  0.997786  0  0  0.10799  0.14541  0  0.998292  0
H  H26  1  0.79143159  0.96944022  0.46487450  1  0  0.067994  0  0.946828  0  0  0.079253  0  1.012848  0  0  0.082371  0  1.007915  0  0  0.112872  0.076776  0  1.016719  0
H  H27  1  0.20857418  0.03056341  0.53512512  1  0  0.067971  0  0.946847  0  0  0.079216  0  1.012878  0  0  0.082334  0  1.007945  0  0  0.112855  0.076736  0  1.016751  0
H  H28  1  0.56561896  0.24965261  0.30099379  1  0  0.098657  0  0.971174  0  0  0.108751  0  1.034556  0  0  0.110721  0  1.035718  0  0  0.101363  0.107377  0  1.033852  0
H  H29  1  0.43438423  0.75034907  0.69900682  1  0  0.098614  0  0.971219  0  0  0.108696  0  1.034637  0  0  0.110675  0  1.035773  0  0  0.101321  0.10732  0  1.033931  0
H  H30  1  0.64430360  0.22620056  0.16910475  1  0  0.092762  0  0.981117  0  0  0.099448  0  1.049951  0  0  0.103114  0  1.046899  0  0  0.103884  0.096706  0  1.052283  0
H  H31  1  0.35569179  0.77379526  0.83089488  1  0  0.092724  0  0.981115  0  0  0.099435  0  1.049925  0  0  0.103099  0  1.046879  0  0  0.103905  0.096694  0  1.052253  0
H  H32  1  0.96520389  0.92809392  0.23698446  1  0  0.104002  0  0.947716  0  0  0.114553  0  1.00764  0  0  0.118202  0  1.005195  0  0  0.110123  0.111781  0  1.009697  0
H  H33  1  0.03479546  0.07190579  0.76301427  1  0  0.104003  0  0.947702  0  0  0.114548  0  1.007635  0  0  0.118197  0  1.005192  0  0  0.110128  0.111776  0  1.0097  0
H  H34  1  0.89358660  0.95528775  0.36853079  1  0  0.10476  0  0.97413  0  0  0.114251  0  1.037906  0  0  0.11694  0  1.037117  0  0  0.104728  0.112299  0  1.038669  0
H  H35  1  0.10641664  0.04471490  0.63146815  1  0  0.10474  0  0.97408  0  0  0.114202  0  1.037902  0  0  0.11689  0  1.037115  0  0  0.104713  0.112263  0  1.038659  0
H  H36  1  0.40678955  0.37336731  0.86511575  1  0  0.41567  0  0.891369  0  0  0.388106  0  0.950447  0  0  0.397703  0  0.936188  0  0  0.288007  0.381264  0  0.960625  0
H  H37  1  0.59320340  0.62662850  0.13488492  1  0  0.415638  0  0.891425  0  0  0.388079  0  0.950496  0  0  0.397677  0  0.936234  0  0  0.287949  0.381239  0  0.960671  0
H  H38  1  0.82986502  0.30946043  0.83664628  1  0  0.425968  0  0.861196  0  0  0.402828  0  0.91191  0  0  0.41183  0  0.898581  0  0  0.302202  0.396357  0  0.921548  0
H  H39  1  0.17013427  0.69053832  0.16335412  1  0  0.42595  0  0.861211  0  0  0.402826  0  0.911902  0  0  0.411827  0  0.898574  0  0  0.302223  0.396354  0  0.921539  0
H  H40  1  0.79268666  0.00204419  0.87439530  1  0  0.438796  0  0.85807  0  0  0.410213  0  0.917148  0  0  0.420015  0  0.90277  0  0  0.302426  0.40317  0  0.92754  0
H  H41  1  0.20731024  0.99795553  0.12560278  1  0  0.438755  0  0.858123  0  0  0.410242  0  0.917092  0  0  0.420043  0  0.902717  0  0  0.302465  0.403203  0  0.927478  0
H  H42  1  0.24437992  0.55045530  0.88199360  1  0  0.425278  0  0.87574  0  0  0.395958  0  0.936777  0  0  0.405423  0  0.922779  0  0  0.300663  0.389254  0  0.946708  0
H  H43  1  0.75562317  0.44954541  0.11800530  1  0  0.425328  0  0.875687  0  0  0.396001  0  0.936735  0  0  0.405468  0  0.922732  0  0  0.300696  0.389302  0  0.946657  0
H  H44  1  0.39636442  0.23792158  0.82071427  1  0  0.423154  0  0.872536  0  0  0.395827  0  0.930655  0  0  0.405504  0  0.91632  0  0  0.293892  0.388942  0  0.940855  0
H  H45  1  0.60361875  0.76207420  0.17928548  1  0  0.423105  0  0.872646  0  0  0.395843  0  0.930645  0  0  0.405516  0  0.916313  0  0  0.293923  0.388959  0  0.940841  0
H  H46  1  0.78609339  0.39948110  0.90355100  1  0  0.418863  0  0.889184  0  0  0.391893  0  0.946996  0  0  0.401675  0  0.932622  0  0  0.288428  0.38479  0  0.957417  0
H  H47  1  0.21390490  0.60052057  0.09644830  1  0  0.418811  0  0.88924  0  0  0.391823  0  0.947077  0  0  0.401605  0  0.932705  0  0  0.288433  0.38472  0  0.9575  0
H  H48  1  0.63859213  0.90315910  0.87575801  1  0  0.434949  0  0.862637  0  0  0.406464  0  0.922702  0  0  0.415469  0  0.909543  0  0  0.302397  0.399835  0  0.932372  0
H  H49  1  0.36140698  0.09683770  0.12423952  1  0  0.434979  0  0.862607  0  0  0.406469  0  0.922716  0  0  0.415475  0  0.909557  0  0  0.302402  0.399836  0  0.932397  0
H  H50  1  0.09452978  0.63396944  0.88941519  1  0  0.430318  0  0.861294  0  0  0.402666  0  0.920088  0  0  0.41146  0  0.907144  0  0  0.303358  0.396411  0  0.929298  0
H  H51  1  0.90547075  0.36602930  0.11058638  1  0  0.430308  0  0.861307  0  0  0.402669  0  0.920081  0  0  0.411462  0  0.907139  0  0  0.303352  0.396413  0  0.92929  0
H  H52  1  0.04275289  0.45161648  0.80708457  1  0  0.393653  0  0.893366  0  0  0.366929  0  0.966046  0  0  0.377646  0  0.954775  0  0  0.301887  0.359394  0  0.973826  0
H  H53  1  0.95724387  0.54838128  0.19291572  1  0  0.393648  0  0.893372  0  0  0.366923  0  0.966055  0  0  0.377641  0  0.954785  0  0  0.301895  0.359385  0  0.973842  0
H  H54  1  0.07434503  0.25267484  0.46935943  1  0  0.339415  0  0.949669  0  0  0.302368  0  1.042575  0  0  0.31471  0  1.030607  0  0  0.290091  0.293749  0  1.050854  0
H  H55  1  0.92566320  0.74732879  0.53064197  1  0  0.3394  0  0.94976  0  0  0.302315  0  1.042711  0  0  0.314661  0  1.030738  0  0  0.290044  0.293694  0  1.050988  0
H  H56  1  0.58343550  0.07522276  0.80081031  1  0  0.402973  0  0.888751  0  0  0.376029  0  0.958902  0  0  0.386689  0  0.94782  0  0  0.304726  0.368511  0  0.96667  0
H  H57  1  0.41656385  0.92477696  0.19918843  1  0  0.402957  0  0.888728  0  0  0.376052  0  0.958819  0  0  0.386707  0  0.947744  0  0  0.304724  0.368534  0  0.966588  0
H  H58  1  0.56840811  0.22585915  0.46095158  1  0  0.343101  0  0.941835  0  0  0.305766  0  1.036682  0  0  0.318072  0  1.024572  0  0  0.289964  0.297179  0  1.045004  0
H  H59  1  0.43159255  0.77414154  0.53904835  1  0  0.343121  0  0.941819  0  0  0.305771  0  1.036688  0  0  0.318078  0  1.024574  0  0  0.289964  0.297178  0  1.045024  0
C  C60  1  0.20286313  0.52095158  0.61481068  1  0  -0.034705  0  3.780142  0  0  -0.060487  0  4.039195  0  0  -0.053945  0  4.058655  0  0  -0.083822  -0.064171  0  4.025571  0
C  C61  1  0.79713643  0.47905008  0.38519319  1  0  -0.03487  0  3.780267  0  0  -0.060688  0  4.039325  0  0  -0.054143  0  4.058779  0  0  -0.083925  -0.064375  0  4.0257  0
C  C62  1  0.15198282  0.50609918  0.68640721  1  0  -0.253498  0  3.792055  0  0  -0.274325  0  4.051896  0  0  -0.285974  0  4.073568  0  0  -0.127047  -0.266738  0  4.03728  0
C  C63  1  0.84800946  0.49390344  0.31359416  1  0  -0.253397  0  3.792002  0  0  -0.274219  0  4.051834  0  0  -0.285868  0  4.073502  0  0  -0.127003  -0.266619  0  4.037238  0
C  C64  1  0.05062915  0.39516730  0.70058303  1  0  0.392502  0  3.821022  0  0  0.382369  0  4.081894  0  0  0.399898  0  4.094272  0  0  0.093208  0.370552  0  4.073246  0
C  C65  1  0.94936647  0.60483143  0.29941668  1  0  0.392491  0  3.82116  0  0  0.382331  0  4.082043  0  0  0.399863  0  4.09442  0  0  0.0932  0.370502  0  4.073401  0
C  C66  1  0.00562352  0.29902450  0.64346611  1  0  -0.333347  0  3.67778  0  0  -0.360063  0  3.932065  0  0  -0.373005  0  3.950451  0  0  -0.126336  -0.351555  0  3.919846  0
C  C67  1  0.99437584  0.70097522  0.35653319  1  0  -0.333358  0  3.677776  0  0  -0.360025  0  3.932019  0  0  -0.372968  0  3.950405  0  0  -0.126326  -0.351511  0  3.919794  0
C  C68  1  0.06331260  0.31180736  0.57186366  1  0  0.349568  0  3.787738  0  0  0.33854  0  4.044011  0  0  0.355941  0  4.057938  0  0  0.097313  0.326899  0  4.034303  0
C  C69  1  0.93669172  0.68819334  0.42813584  1  0  0.349573  0  3.787702  0  0  0.338529  0  4.043981  0  0  0.355931  0  4.057908  0  0  0.097297  0.326881  0  4.034282  0
C  C70  1  0.16152651  0.42568228  0.55581646  1  0  -0.139654  0  3.849171  0  0  -0.125039  0  4.095455  0  0  -0.140836  0  4.123414  0  0  -0.043007  -0.114685  0  4.076322  0
C  C71  1  0.83847805  0.57432134  0.44418425  1  0  -0.13958  0  3.849103  0  0  -0.124989  0  4.095423  0  0  -0.140789  0  4.123383  0  0  -0.042975  -0.114631  0  4.076288  0
C  C72  1  0.21313588  0.44415316  0.48178390  1  0  0.178399  0  3.678464  0  0  0.133819  0  3.94045  0  0  0.152332  0  3.947839  0  0  0.076414  0.12177  0  3.935303  0
C  C73  1  0.78686846  0.55584754  0.51821786  1  0  0.178448  0  3.678132  0  0  0.133859  0  3.940104  0  0  0.152394  0  3.947504  0  0  0.076435  0.121807  0  3.934952  0
C  C74  1  0.22699841  0.36987850  0.35444699  1  0  0.245066  0  3.806689  0  0  0.242136  0  4.0516  0  0  0.250513  0  4.073012  0  0  0.101583  0.236606  0  4.036905  0
C  C75  1  0.77300233  0.63012317  0.64555353  1  0  0.245261  0  3.806535  0  0  0.242157  0  4.05168  0  0  0.250536  0  4.073095  0  0  0.101617  0.236629  0  4.036978  0
C  C76  1  0.14275324  0.29168618  0.29473045  1  0  -0.134735  0  3.68938  0  0  -0.149341  0  3.937376  0  0  -0.154897  0  3.957978  0  0  -0.085208  -0.145732  0  3.923486  0
C  C77  1  0.85725003  0.70831647  0.70527075  1  0  -0.134841  0  3.68943  0  0  -0.149394  0  3.937476  0  0  -0.154947  0  3.958077  0  0  -0.085261  -0.145782  0  3.92358  0
C  C78  1  0.19016983  0.29629764  0.22151201  1  0  -0.05347  0  3.753054  0  0  -0.077357  0  4.001594  0  0  -0.07462  0  4.01948  0  0  -0.086612  -0.078946  0  3.989624  0
C  C79  1  0.80982969  0.70370402  0.77848904  1  0  -0.053433  0  3.753279  0  0  -0.077286  0  4.00178  0  0  -0.074562  0  4.019659  0  0  -0.086559  -0.078881  0  3.989806  0
C  C80  1  0.32430033  0.37943160  0.20658801  1  0  -0.155105  0  3.771369  0  0  -0.12799  0  4.019455  0  0  -0.136439  0  4.04149  0  0  -0.031081  -0.12275  0  4.004964  0
C  C81  1  0.67570392  0.62056813  0.79341259  1  0  -0.155172  0  3.771438  0  0  -0.128124  0  4.01962  0  0  -0.13654  0  4.041612  0  0  -0.031132  -0.122879  0  4.005119  0
C  C82  1  0.40891960  0.45824812  0.26494129  1  0  -0.05005  0  3.776035  0  0  -0.075823  0  4.026359  0  0  -0.073039  0  4.045084  0  0  -0.085494  -0.077439  0  4.013764  0
C  C83  1  0.59108107  0.54175258  0.73505920  1  0  -0.05009  0  3.775967  0  0  -0.075845  0  4.026285  0  0  -0.073069  0  4.045012  0  0  -0.085508  -0.077457  0  4.013698  0
C  C84  1  0.36130766  0.45304191  0.33838951  1  0  -0.153426  0  3.689929  0  0  -0.169466  0  3.937786  0  0  -0.175692  0  3.958849  0  0  -0.088146  -0.165456  0  3.923386  0
C  C85  1  0.63869200  0.54696170  0.66160989  1  0  -0.153367  0  3.689806  0  0  -0.169353  0  3.937712  0  0  -0.175577  0  3.958779  0  0  -0.08813  -0.165352  0  3.923325  0
C  C86  1  0.72056522  0.99641935  0.60590424  1  0  -0.029129  0  3.770401  0  0  -0.055013  0  4.030981  0  0  -0.047987  0  4.048858  0  0  -0.081494  -0.059111  0  4.018391  0
C  C87  1  0.27943916  0.00358233  0.39409416  1  0  -0.029297  0  3.770532  0  0  -0.055205  0  4.031135  0  0  -0.048177  0  4.048997  0  0  -0.081493  -0.059303  0  4.018544  0
C  C88  1  0.67771378  0.01678626  0.67878522  1  0  -0.252858  0  3.785977  0  0  -0.275327  0  4.049421  0  0  -0.286456  0  4.069747  0  0  -0.126516  -0.268056  0  4.035539  0
C  C89  1  0.32228809  0.98321443  0.32121419  1  0  -0.252592  0  3.785991  0  0  -0.275087  0  4.049412  0  0  -0.286206  0  4.069748  0  0  -0.126511  -0.267822  0  4.035531  0
C  C90  1  0.57653747  0.11882543  0.69449378  1  0  0.389251  0  3.823378  0  0  0.377037  0  4.085963  0  0  0.394578  0  4.098362  0  0  0.092442  0.365284  0  4.077245  0
C  C91  1  0.42346701  0.88117722  0.30550633  1  0  0.389111  0  3.82358  0  0  0.376946  0  4.086103  0  0  0.394482  0  4.098502  0  0  0.09245  0.365202  0  4.077376  0
C  C92  1  0.52183000  0.20026652  0.63763809  1  0  -0.330619  0  3.678645  0  0  -0.358349  0  3.936317  0  0  -0.370887  0  3.95379  0  0  -0.124753  -0.350153  0  3.924592  0
C  C93  1  0.47817447  0.79973613  0.36236202  1  0  -0.330685  0  3.678887  0  0  -0.358404  0  3.936537  0  0  -0.370943  0  3.95401  0  0  -0.124766  -0.350212  0  3.924811  0
C  C94  1  0.57004033  0.18170414  0.56435497  1  0  0.349187  0  3.790395  0  0  0.338146  0  4.048084  0  0  0.355158  0  4.062143  0  0  0.096906  0.326699  0  4.038383  0
C  C95  1  0.42996138  0.81829462  0.43564326  1  0  0.349221  0  3.790433  0  0  0.338184  0  4.048112  0  0  0.355196  0  4.062169  0  0  0.096911  0.326733  0  4.038417  0
C  C96  1  0.66996636  0.07737089  0.54728661  1  0  -0.136724  0  3.853136  0  0  -0.122056  0  4.097553  0  0  -0.137421  0  4.125068  0  0  -0.041147  -0.111975  0  4.078824  0
C  C97  1  0.33003812  0.92263176  0.45271351  1  0  -0.136651  0  3.853019  0  0  -0.122001  0  4.097462  0  0  -0.137364  0  4.124977  0  0  -0.041163  -0.111919  0  4.078733  0
C  C98  1  0.71787013  0.05362538  0.47278907  1  0  0.183551  0  3.694504  0  0  0.139111  0  3.957474  0  0  0.157643  0  3.96488  0  0  0.07527  0.126965  0  3.952316  0
C  C99  1  0.28213427  0.94637630  0.52721046  1  0  0.183596  0  3.694625  0  0  0.139167  0  3.957565  0  0  0.157698  0  3.964971  0  0  0.075311  0.127019  0  3.952402  0
C  C100  1  0.72380578  0.10549461  0.34443480  1  0  0.236749  0  3.815145  0  0  0.235037  0  4.060713  0  0  0.243211  0  4.081974  0  0  0.097612  0.229593  0  4.046311  0
C  C101  1  0.27619359  0.89450511  0.65556563  1  0  0.236744  0  3.815217  0  0  0.235066  0  4.060708  0  0  0.243241  0  4.081967  0  0  0.097609  0.229629  0  4.046297  0
C  C102  1  0.65474043  0.18055885  0.28670953  1  0  -0.137063  0  3.697059  0  0  -0.153183  0  3.946101  0  0  -0.15844  0  3.966033  0  0  -0.087475  -0.149806  0  3.932753  0
C  C103  1  0.34526016  0.81944087  0.71329094  1  0  -0.137039  0  3.697061  0  0  -0.15318  0  3.946095  0  0  -0.158432  0  3.966031  0  0  -0.087469  -0.149807  0  3.932742  0
C  C104  1  0.69819874  0.16695893  0.21295408  1  0  -0.054058  0  3.757113  0  0  -0.078049  0  4.004702  0  0  -0.07525  0  4.022543  0  0  -0.087548  -0.079576  0  3.992737  0
C  C105  1  0.30179443  0.83303980  0.78704553  1  0  -0.053983  0  3.757185  0  0  -0.077955  0  4.004821  0  0  -0.075159  0  4.022675  0  0  -0.087553  -0.079485  0  3.992847  0
C  C106  1  0.81043421  0.07606638  0.19506438  1  0  -0.147296  0  3.762304  0  0  -0.118404  0  4.00491  0  0  -0.12684  0  4.027005  0  0  -0.025371  -0.113177  0  3.990286  0
C  C107  1  0.18956132  0.92393138  0.80493474  1  0  -0.147276  0  3.762386  0  0  -0.118511  0  4.005153  0  0  -0.126955  0  4.027268  0  0  -0.025355  -0.113279  0  3.990519  0
C  C108  1  0.87849285  0.99906741  0.25125517  1  0  -0.04526  0  3.761676  0  0  -0.070994  0  4.010585  0  0  -0.06834  0  4.028923  0  0  -0.080569  -0.072424  0  3.998244  0
C  C109  1  0.12150405  0.00093230  0.74874348  1  0  -0.045272  0  3.761706  0  0  -0.070957  0  4.010624  0  0  -0.068302  0  4.028963  0  0  -0.080559  -0.072391  0  3.998298  0
C  C110  1  0.83680635  0.01453575  0.32542392  1  0  -0.15787  0  3.699389  0  0  -0.174768  0  3.94939  0  0  -0.180773  0  3.97015  0  0  -0.090788  -0.170955  0  3.935512  0
C  C111  1  0.16319560  0.98546592  0.67457552  1  0  -0.157787  0  3.699436  0  0  -0.17468  0  3.949449  0  0  -0.180682  0  3.970206  0  0  -0.090764  -0.170883  0  3.935567  0
S  S112  1  0.38379549  0.38406109  0.11300702  1  0  1.318365  0  5.646433  0  0  1.214205  0  6.173478  0  0  1.261414  0  6.149282  0  0  0.514377  1.18159  0  6.189116  0
S  S113  1  0.61620716  0.61593377  0.88699341  1  0  1.318374  0  5.646474  0  0  1.214243  0  6.173533  0  0  1.261441  0  6.14933  0  0  0.514331  1.18163  0  6.189169  0
S  S114  1  0.86029233  0.05724522  0.10005368  1  0  1.32231  0  5.674512  0  0  1.227613  0  6.198081  0  0  1.275137  0  6.173125  0  0  0.48869  1.194886  0  6.214085  0
S  S115  1  0.13970099  0.94275546  0.89994543  1  0  1.322214  0  5.674681  0  0  1.227564  0  6.198253  0  0  1.275089  0  6.173306  0  0  0.488642  1.194843  0  6.21425  0
N  N116  1  0.17411913  0.35667479  0.42660160  1  0  -0.389262  0  3.202935  0  0  -0.330835  0  3.459816  0  0  -0.34937  0  3.472948  0  0  -0.325556  -0.318307  0  3.450665  0
N  N117  1  0.82588911  0.64332885  0.57340094  1  0  -0.389384  0  3.202803  0  0  -0.330879  0  3.459724  0  0  -0.349424  0  3.472858  0  0  -0.325571  -0.31834  0  3.450554  0
N  N118  1  0.67518778  0.12788458  0.41722423  1  0  -0.4012  0  3.195309  0  0  -0.343926  0  3.453281  0  0  -0.362744  0  3.467143  0  0  -0.328497  -0.331226  0  3.443729  0
N  N119  1  0.32481914  0.87211808  0.58277597  1  0  -0.40127  0  3.195395  0  0  -0.343952  0  3.453275  0  0  -0.362773  0  3.467142  0  0  -0.328482  -0.33125  0  3.443715  0
O  O120  1  0.99355395  0.38044472  0.76941916  1  0  -0.548008  0  2.137526  0  0  -0.490888  0  2.3452  0  0  -0.511259  0  2.334549  0  0  -0.346696  -0.476072  0  2.351958  0
O  O121  1  0.00644160  0.61955304  0.23058221  1  0  -0.547996  0  2.137582  0  0  -0.490905  0  2.345314  0  0  -0.511265  0  2.334634  0  0  -0.346713  -0.476093  0  2.352091  0
O  O122  1  0.02565401  0.21713960  0.51772573  1  0  -0.497879  0  2.119882  0  0  -0.44432  0  2.343509  0  0  -0.466382  0  2.336255  0  0  -0.337751  -0.428696  0  2.348273  0
O  O123  1  0.97435282  0.78286209  0.48227333  1  0  -0.497913  0  2.119932  0  0  -0.444312  0  2.343568  0  0  -0.466376  0  2.336309  0  0  -0.337737  -0.428689  0  2.348332  0
O  O124  1  0.39561751  0.24843621  0.08464659  1  0  -0.738874  0  2.023425  0  0  -0.687853  0  2.282383  0  0  -0.708723  0  2.266905  0  0  -0.403968  -0.672694  0  2.292504  0
O  O125  1  0.60437781  0.75155863  0.91535358  1  0  -0.738835  0  2.023346  0  0  -0.687846  0  2.282325  0  0  -0.708711  0  2.26684  0  0  -0.403991  -0.6727  0  2.292463  0
O  O126  1  0.25551081  0.44649268  0.06690602  1  0  -0.694485  0  1.981529  0  0  -0.640139  0  2.22263  0  0  -0.660799  0  2.206748  0  0  -0.378144  -0.625257  0  2.233129  0
O  O127  1  0.74449846  0.55350902  0.93309313  1  0  -0.69452  0  1.981611  0  0  -0.640166  0  2.222695  0  0  -0.660822  0  2.206813  0  0  -0.378178  -0.625286  0  2.233181  0
O  O128  1  0.54370009  0.45882858  0.11786898  1  0  -0.692094  0  2.044946  0  0  -0.625776  0  2.286135  0  0  -0.646736  0  2.268765  0  0  -0.320483  -0.610973  0  2.297716  0
O  O129  1  0.45630569  0.54115947  0.88213141  1  0  -0.692094  0  2.044986  0  0  -0.625793  0  2.28618  0  0  -0.646758  0  2.268823  0  0  -0.320369  -0.610981  0  2.297751  0
O  O130  1  0.52958167  0.13824108  0.76523914  1  0  -0.552557  0  2.15688  0  0  -0.486962  0  2.360522  0  0  -0.508691  0  2.351403  0  0  -0.342926  -0.471487  0  2.366541  0
O  O131  1  0.47041784  0.86176058  0.23476021  1  0  -0.552463  0  2.156888  0  0  -0.486951  0  2.360494  0  0  -0.508667  0  2.351369  0  0  -0.342908  -0.471479  0  2.366511  0
O  O132  1  0.52140409  0.26169240  0.50972431  1  0  -0.501787  0  2.101043  0  0  -0.45082  0  2.325409  0  0  -0.472187  0  2.317414  0  0  -0.343116  -0.435744  0  2.33065  0
O  O133  1  0.47859764  0.73830635  0.49027562  1  0  -0.501828  0  2.10099  0  0  -0.45086  0  2.325362  0  0  -0.472225  0  2.31737  0  0  -0.343138  -0.43578  0  2.33061  0
O  O134  1  0.00273829  0.97671552  0.10180489  1  0  -0.70914  0  2.00345  0  0  -0.655275  0  2.251828  0  0  -0.675678  0  2.235508  0  0  -0.386368  -0.640859  0  2.262848  0
O  O135  1  0.99725752  0.02328614  0.89819207  1  0  -0.709116  0  2.003493  0  0  -0.65523  0  2.251847  0  0  -0.675636  0  2.235528  0  0  -0.386386  -0.640821  0  2.262875  0
O  O136  1  0.71615269  0.99143785  0.05632579  1  0  -0.745807  0  1.957027  0  0  -0.703886  0  2.215147  0  0  -0.724711  0  2.200941  0  0  -0.457767  -0.688911  0  2.224278  0
O  O137  1  0.28384178  0.00856186  0.94367333  1  0  -0.745885  0  1.957229  0  0  -0.703952  0  2.215314  0  0  -0.72478  0  2.201115  0  0  -0.457801  -0.688978  0  2.224441  0
O  O138  1  0.89678249  0.18997145  0.07381448  1  0  -0.748597  0  1.969796  0  0  -0.697265  0  2.221063  0  0  -0.718044  0  2.205266  0  0  -0.40208  -0.682396  0  2.231389  0
O  O139  1  0.10320710  0.81002825  0.92618559  1  0  -0.748528  0  1.969724  0  0  -0.69719  0  2.22098  0  0  -0.717964  0  2.205183  0  0  -0.402045  -0.682323  0  2.231306  0
O  O140  1  0.35694545  0.28382307  0.86464150  1  0  -0.904679  0  1.767305  0  0  -0.866033  0  1.926665  0  0  -0.882554  0  1.897468  0  0  -0.722766  -0.854183  0  1.947314  0
O  O141  1  0.64303900  0.71617369  0.13535719  1  0  -0.904615  0  1.767417  0  0  -0.866001  0  1.926705  0  0  -0.882517  0  1.897513  0  0  -0.722724  -0.854153  0  1.94735  0
O  O142  1  0.80252049  0.30744670  0.88931755  1  0  -0.901184  0  1.768772  0  0  -0.860292  0  1.921735  0  0  -0.877205  0  1.893218  0  0  -0.728108  -0.848174  0  1.942422  0
O  O143  1  0.19747284  0.69255397  0.11068268  1  0  -0.901122  0  1.768833  0  0  -0.860209  0  1.921791  0  0  -0.877116  0  1.893269  0  0  -0.728147  -0.848094  0  1.942485  0
O  O144  1  0.67154749  0.99354531  0.86425430  1  0  -0.862526  0  1.838084  0  0  -0.812059  0  2.002706  0  0  -0.830627  0  1.975417  0  0  -0.633247  -0.798813  0  2.022489  0
O  O145  1  0.32845169  0.00645246  0.13574269  1  0  -0.862524  0  1.838108  0  0  -0.812118  0  2.002672  0  0  -0.830687  0  1.975385  0  0  -0.633299  -0.798869  0  2.022454  0
O  O146  1  0.12357962  0.54399358  0.87979712  1  0  -0.833295  0  1.810016  0  0  -0.786194  0  1.963198  0  0  -0.80352  0  1.935867  0  0  -0.582531  -0.773951  0  1.982331  0
O  O147  1  0.87642464  0.45600615  0.12020349  1  0  -0.833333  0  1.809965  0  0  -0.786236  0  1.963132  0  0  -0.803562  0  1.935797  0  0  -0.582568  -0.773993  0  1.982258  0
