# generated using pymatgen
data_ErH12(CO)9
_symmetry_space_group_name_H-M   'P 1'
_cell_length_a   6.65724757
_cell_length_b   11.25751441
_cell_length_c   19.40387772
_cell_angle_alpha   106.87289589
_cell_angle_beta   88.51611454
_cell_angle_gamma   89.98456352
_symmetry_Int_Tables_number   1
_chemical_formula_structural   ErH12(CO)9
_chemical_formula_sum   'Er4 H48 C36 O36'
_cell_volume   1391.09053948
_cell_formula_units_Z   4
loop_
 _symmetry_equiv_pos_site_id
 _symmetry_equiv_pos_as_xyz
  1  'x, y, z'
loop_
 _atom_site_type_symbol
 _atom_site_label
 _atom_site_symmetry_multiplicity
 _atom_site_fract_x
 _atom_site_fract_y
 _atom_site_fract_z
 _atom_site_occupancy
 _atom_site_pbe_bader_charge
 _atom_site_pbe_bader_spin_density
 _atom_site_pbe_cm5_charge
 _atom_site_pbe_ddec_charge
 _atom_site_pbe_ddec_spin_density
 _atom_site_pbe_ddec_sum_bond_order
 _atom_site_pbe_magmom
Er  Er0  1  0.19414823  0.08093889  0.74349662  1  2.188235  0  1.504985  2.110173  0  2.103486  0
Er  Er1  1  0.30614188  0.33720949  0.25658837  1  2.188417  0  1.504208  2.109909  0  2.10314  0
Er  Er2  1  0.80587419  0.91908773  0.25651679  1  2.18828  0  1.505005  2.110224  0  2.103538  0
Er  Er3  1  0.69386950  0.66277856  0.74341232  1  2.188663  0  1.504199  2.109863  0  2.103175  0
H  H4  1  0.53734914  0.18509962  0.96779593  1  0.073199  0  0.115337  0.134514  0  0.968683  0
H  H5  1  0.96323688  0.21740882  0.03227286  1  0.10751  0  0.115324  0.134609  0  0.970025  0
H  H6  1  0.46264105  0.81483930  0.03221513  1  0.072239  0  0.115351  0.134524  0  0.968711  0
H  H7  1  0.03674871  0.78259619  0.96773009  1  0.107739  0  0.115296  0.134516  0  0.970136  0
H  H8  1  0.39172220  0.91378907  0.93364117  1  0.110973  0  0.112329  0.107498  0  0.998709  0
H  H9  1  0.10796396  0.97998718  0.06635433  1  0.105285  0  0.112571  0.107614  0  0.997953  0
H  H10  1  0.60823299  0.08614894  0.06635037  1  0.111723  0  0.112368  0.107492  0  0.998719  0
H  H11  1  0.89200811  0.02001625  0.93364895  1  0.105272  0  0.112525  0.107618  0  0.997978  0
H  H12  1  0.53080715  0.73411301  0.56356564  1  0.11401  0  0.103463  0.118903  0  1.034825  0
H  H13  1  0.96918749  0.17008007  0.43632642  1  0.095754  0  0.103276  0.118716  0  1.036123  0
H  H14  1  0.46916041  0.26589041  0.43643765  1  0.114001  0  0.103393  0.118831  0  1.034772  0
H  H15  1  0.03078440  0.82994166  0.56367756  1  0.095543  0  0.103305  0.118687  0  1.036124  0
H  H16  1  0.36209528  0.99403750  0.57388035  1  0.10206  0  0.111858  0.100553  0  1.019254  0
H  H17  1  0.13775617  0.41973411  0.42595317  1  0.112153  0  0.111899  0.100986  0  1.018349  0
H  H18  1  0.63791465  0.00596836  0.42611682  1  0.102182  0  0.111833  0.100488  0  1.019397  0
H  H19  1  0.86222933  0.58028611  0.57404924  1  0.112156  0  0.111876  0.101021  0  1.018308  0
H  H20  1  0.39122136  0.74858431  0.44666171  1  0.084261  0  0.107555  0.105315  0  0.987975  0
H  H21  1  0.10855441  0.30196662  0.55334885  1  0.073779  0  0.107249  0.104566  0  0.988033  0
H  H22  1  0.60876715  0.25141397  0.55334379  1  0.084188  0  0.107536  0.105346  0  0.987889  0
H  H23  1  0.89140829  0.69806669  0.44665657  1  0.095964  0  0.10722  0.104587  0  0.987994  0
H  H24  1  0.17511159  0.00041848  0.47019352  1  0.075965  0  0.107179  0.125514  0  1.002584  0
H  H25  1  0.32491142  0.52989026  0.52955636  1  0.070344  0  0.106809  0.125238  0  1.002657  0
H  H26  1  0.82489526  0.99958453  0.52980546  1  0.076001  0  0.107125  0.125512  0  1.002595  0
H  H27  1  0.67510315  0.47011821  0.47043781  1  0.070237  0  0.106802  0.125198  0  1.002734  0
H  H28  1  0.30660697  0.29354874  0.68118855  1  0.655732  0  0.296267  0.394031  0  0.944482  0
H  H29  1  0.19331219  0.61205866  0.31876358  1  0.658965  0  0.295974  0.393919  0  0.944595  0
H  H30  1  0.69340552  0.70646351  0.31881599  1  0.655487  0  0.296262  0.39401  0  0.944507  0
H  H31  1  0.80669904  0.38794485  0.68123776  1  0.658994  0  0.295973  0.393906  0  0.944616  0
H  H32  1  0.50644632  0.21785680  0.68400495  1  0.627642  0  0.295918  0.397494  0  0.940342  0
H  H33  1  0.99342735  0.53369784  0.31604422  1  0.627973  0  0.295681  0.397383  0  0.940427  0
H  H34  1  0.49358432  0.78215265  0.31599764  1  0.627524  0  0.295952  0.397478  0  0.940382  0
H  H35  1  0.00658824  0.46631288  0.68395876  1  0.628046  0  0.295701  0.397347  0  0.940508  0
H  H36  1  0.90784000  0.27513604  0.75353175  1  0.653057  0  0.297468  0.382373  0  0.959426  0
H  H37  1  0.59204326  0.52178417  0.24664153  1  0.656226  0  0.297331  0.382718  0  0.959015  0
H  H38  1  0.09217150  0.72485744  0.24646601  1  0.652987  0  0.297467  0.382372  0  0.959445  0
H  H39  1  0.40796799  0.47822941  0.75335781  1  0.65631  0  0.29742  0.382746  0  0.958944  0
H  H40  1  0.07259693  0.35602558  0.80510597  1  0.644781  0  0.340605  0.434536  0  0.841135  0
H  H41  1  0.42729233  0.55085094  0.19493496  1  0.632399  0  0.340817  0.434813  0  0.840938  0
H  H42  1  0.92742777  0.64397381  0.19489676  1  0.644794  0  0.340631  0.434522  0  0.841139  0
H  H43  1  0.57274519  0.44914860  0.80505290  1  0.633033  0  0.340805  0.434795  0  0.840965  0
H  H44  1  0.75142046  0.04428765  0.76304130  1  0.644236  0  0.311988  0.408483  0  0.905316  0
H  H45  1  0.74882233  0.28096632  0.23692933  1  0.638217  0  0.311825  0.408391  0  0.905494  0
H  H46  1  0.24857918  0.95570558  0.23695344  1  0.644265  0  0.312014  0.408507  0  0.905286  0
H  H47  1  0.25117598  0.71902668  0.76306238  1  0.638374  0  0.31178  0.408323  0  0.905577  0
H  H48  1  0.85635021  0.96799171  0.80756879  1  0.654685  0  0.304658  0.412271  0  0.917472  0
H  H49  1  0.64386125  0.16014836  0.19240828  1  0.633626  0  0.304445  0.412435  0  0.917155  0
H  H50  1  0.14364779  0.03201028  0.19242732  1  0.654473  0  0.304646  0.412291  0  0.91745  0
H  H51  1  0.35612046  0.83984254  0.80758511  1  0.633785  0  0.304416  0.412398  0  0.917212  0
C  C52  1  0.37566915  0.09286419  0.87020400  1  1.504972  0  0.189685  0.621496  0  4.213987  0
C  C53  1  0.12483133  0.22246213  0.12983385  1  1.462505  0  0.190439  0.623049  0  4.211813  0
C  C54  1  0.62432868  0.90710007  0.12980079  1  1.504778  0  0.18953  0.621301  0  4.213876  0
C  C55  1  0.87516494  0.77754034  0.87016649  1  1.46251  0  0.190425  0.622997  0  4.211953  0
C  C56  1  0.46930612  0.09729895  0.93866238  1  -0.066738  0  -0.080073  -0.20975  0  3.847401  0
C  C57  1  0.03104750  0.15864194  0.06138000  1  -0.098626  0  -0.080456  -0.210434  0  3.846427  0
C  C58  1  0.53067681  0.90264724  0.06134293  1  -0.06616  0  -0.080128  -0.209914  0  3.84729  0
C  C59  1  0.96892898  0.84136381  0.93862467  1  -0.099213  0  -0.080429  -0.210323  0  3.8463  0
C  C60  1  0.46173325  0.99912501  0.96559484  1  0.037023  0  -0.063748  -0.018952  0  3.989826  0
C  C61  1  0.03821187  0.03349971  0.03442053  1  0.059045  0  -0.063863  -0.018786  0  3.985652  0
C  C62  1  0.53824452  0.00080505  0.03439700  1  -0.024651  0  -0.06376  -0.018577  0  3.989407  0
C  C63  1  0.96174795  0.96650573  0.96558670  1  0.000656  0  -0.063994  -0.019044  0  3.985895  0
C  C64  1  0.55010237  0.88581106  0.66315159  1  1.598531  0  0.230639  0.697427  0  4.136291  0
C  C65  1  0.94983845  0.22218617  0.33676423  1  1.568714  0  0.231998  0.699677  0  4.132815  0
C  C66  1  0.44989989  0.11419580  0.33684849  1  1.598577  0  0.230733  0.697534  0  4.136205  0
C  C67  1  0.05016385  0.77782560  0.66323425  1  1.567973  0  0.232036  0.699591  0  4.13264  0
C  C68  1  0.49461991  0.83218228  0.58694794  1  -0.146035  0  -0.083056  -0.22654  0  3.860832  0
C  C69  1  0.00540213  0.24475787  0.41296058  1  -0.045307  0  -0.082905  -0.227178  0  3.860698  0
C  C70  1  0.50537315  0.16782092  0.41305596  1  -0.146296  0  -0.082977  -0.226417  0  3.860719  0
C  C71  1  0.99457310  0.75525515  0.58703833  1  -0.045797  0  -0.082964  -0.227135  0  3.860477  0
C  C72  1  0.40111489  0.89663420  0.54820526  1  0.048348  0  -0.071547  -0.036169  0  4.016169  0
C  C73  1  0.09879650  0.34804347  0.45166495  1  -0.046693  0  -0.071549  -0.03638  0  4.015019  0
C  C74  1  0.59887687  0.10336825  0.45179509  1  0.048824  0  -0.07156  -0.036172  0  4.016474  0
C  C75  1  0.90117420  0.65197083  0.54833434  1  -0.045629  0  -0.071537  -0.036322  0  4.015105  0
C  C76  1  0.34284491  0.84350798  0.47479624  1  -0.126752  0  -0.070257  -0.022931  0  3.989474  0
C  C77  1  0.15702563  0.36854658  0.52509934  1  -0.079199  0  -0.069881  -0.022284  0  3.987841  0
C  C78  1  0.65714235  0.15649369  0.52520427  1  -0.127233  0  -0.070321  -0.023068  0  3.989401  0
C  C79  1  0.84294327  0.63148213  0.47490327  1  -0.101157  0  -0.069877  -0.02237  0  3.987968  0
C  C80  1  0.22706185  0.90691297  0.44111466  1  0.022534  0  -0.090959  -0.241652  0  3.899796  0
C  C81  1  0.27292957  0.46560837  0.55869673  1  -0.011563  0  -0.090888  -0.241363  0  3.899497  0
C  C82  1  0.77293755  0.09308978  0.55888314  1  0.022652  0  -0.090778  -0.241479  0  3.899603  0
C  C83  1  0.72707125  0.53440882  0.44130069  1  -0.011475  0  -0.090794  -0.24123  0  3.899348  0
C  C84  1  0.15449218  0.85918919  0.36705638  1  1.507299  0  0.221129  0.656821  0  4.163342  0
C  C85  1  0.34554968  0.49210186  0.63274998  1  1.548225  0  0.220921  0.656023  0  4.16484  0
C  C86  1  0.84551753  0.14082025  0.63294440  1  1.507559  0  0.221019  0.656488  0  4.163458  0
C  C87  1  0.65446035  0.50790402  0.36724533  1  1.548287  0  0.220776  0.655857  0  4.164794  0
O  O88  1  0.28602359  0.99306234  0.83400811  1  -1.19107  0  -0.38827  -0.661375  0  2.270571  0
O  O89  1  0.21404009  0.15871215  0.16604283  1  -1.199307  0  -0.387717  -0.661078  0  2.269059  0
O  O90  1  0.71398059  0.00691360  0.16598881  1  -1.190912  0  -0.388448  -0.661616  0  2.270255  0
O  O91  1  0.78595317  0.84128720  0.83395813  1  -1.199349  0  -0.387656  -0.661042  0  2.269238  0
O  O92  1  0.37586917  0.18782052  0.84665218  1  -1.173446  0  -0.391291  -0.638978  0  2.0939  0
O  O93  1  0.12509915  0.34099437  0.15336634  1  -1.142314  0  -0.392021  -0.64006  0  2.093508  0
O  O94  1  0.62414796  0.81215638  0.15335502  1  -1.173751  0  -0.390876  -0.638517  0  2.09396  0
O  O95  1  0.87491972  0.65900788  0.84663276  1  -1.142342  0  -0.39203  -0.640007  0  2.093552  0
O  O96  1  0.50742669  0.99961730  0.69673482  1  -1.208029  0  -0.395183  -0.679164  0  2.25938  0
O  O97  1  0.99282334  0.30233125  0.30319043  1  -1.201613  0  -0.395155  -0.679619  0  2.258602  0
O  O98  1  0.49258897  0.00039394  0.30326683  1  -1.207847  0  -0.395155  -0.679112  0  2.259413  0
O  O99  1  0.00717792  0.69766821  0.69680123  1  -1.201444  0  -0.395147  -0.679629  0  2.258557  0
O  O100  1  0.64333503  0.81546187  0.69184975  1  -1.186186  0  -0.398969  -0.670904  0  2.391116  0
O  O101  1  0.85610358  0.12333442  0.30806886  1  -1.19451  0  -0.399896  -0.672183  0  2.391152  0
O  O102  1  0.35667032  0.18454346  0.30814877  1  -1.18622  0  -0.399088  -0.671036  0  2.391235  0
O  O103  1  0.14393214  0.87666585  0.69192442  1  -1.194249  0  -0.39985  -0.672062  0  2.390882  0
O  O104  1  0.00847144  0.91800812  0.35138764  1  -1.181986  0  -0.388013  -0.649567  0  2.285032  0
O  O105  1  0.49156317  0.56657971  0.64839428  1  -1.180026  0  -0.387659  -0.649118  0  2.28358  0
O  O106  1  0.99153843  0.08199954  0.64861041  1  -1.182251  0  -0.387892  -0.649451  0  2.284985  0
O  O107  1  0.50845749  0.43342104  0.35159955  1  -1.180035  0  -0.387666  -0.649048  0  2.283384  0
O  O108  1  0.23873120  0.76312891  0.32210463  1  -1.203278  0  -0.309025  -0.581141  0  2.210158  0
O  O109  1  0.26126132  0.44117217  0.67775859  1  -1.208198  0  -0.30864  -0.580472  0  2.210718  0
O  O110  1  0.76128432  0.23688205  0.67789955  1  -1.20309  0  -0.309008  -0.580889  0  2.210134  0
O  O111  1  0.73876658  0.55883552  0.32223942  1  -1.208545  0  -0.308533  -0.580563  0  2.210864  0
O  O112  1  0.35740400  0.21575667  0.68870616  1  -1.2798  0  -0.659668  -0.892898  0  2.128954  0
O  O113  1  0.14246839  0.52679139  0.31134107  1  -1.285937  0  -0.659027  -0.892129  0  2.128412  0
O  O114  1  0.64261996  0.78426195  0.31130759  1  -1.27941  0  -0.659692  -0.892767  0  2.128932  0
O  O115  1  0.85754428  0.47321237  0.68866144  1  -1.286115  0  -0.659038  -0.892154  0  2.128617  0
O  O116  1  0.01326363  0.27406557  0.78913279  1  -1.278134  0  -0.626307  -0.833134  0  2.036806  0
O  O117  1  0.48658017  0.48504573  0.21109167  1  -1.26899  0  -0.6262  -0.833479  0  2.036758  0
O  O118  1  0.98675064  0.72593820  0.21086787  1  -1.278159  0  -0.626323  -0.833168  0  2.036703  0
O  O119  1  0.51343564  0.51496064  0.78890785  1  -1.269701  0  -0.626284  -0.833489  0  2.036855  0
O  O120  1  0.87364932  0.04277173  0.79027794  1  -1.274591  0  -0.635026  -0.844754  0  2.041643  0
O  O121  1  0.62658471  0.25223409  0.20969193  1  -1.248378  0  -0.634603  -0.845002  0  2.041755  0
O  O122  1  0.12635188  0.95722720  0.20971506  1  -1.274354  0  -0.635052  -0.844812  0  2.041599  0
O  O123  1  0.37341820  0.74775661  0.79029837  1  -1.248665  0  -0.634541  -0.844929  0  2.041829  0
