# generated using pymatgen
data_CdH20C26(IN3)2
_symmetry_space_group_name_H-M   'P 1'
_cell_length_a   7.08194025
_cell_length_b   9.11965085
_cell_length_c   22.17750000
_cell_angle_alpha   94.23308749
_cell_angle_beta   90.00000000
_cell_angle_gamma   112.84730210
_symmetry_Int_Tables_number   1
_chemical_formula_structural   CdH20C26(IN3)2
_chemical_formula_sum   'Cd2 H40 C52 I4 N12'
_cell_volume   1315.71240705
_cell_formula_units_Z   2
loop_
 _symmetry_equiv_pos_site_id
 _symmetry_equiv_pos_as_xyz
  1  'x, y, z'
loop_
 _atom_site_type_symbol
 _atom_site_label
 _atom_site_symmetry_multiplicity
 _atom_site_fract_x
 _atom_site_fract_y
 _atom_site_fract_z
 _atom_site_occupancy
 _atom_site_hle17_bader_spin_density
 _atom_site_hle17_ddec_charge
 _atom_site_hle17_ddec_spin_density
 _atom_site_hle17_ddec_sum_bond_order
 _atom_site_hle17_magmom
 _atom_site_hse06_10hf_bader_spin_density
 _atom_site_hse06_10hf_ddec_charge
 _atom_site_hse06_10hf_ddec_spin_density
 _atom_site_hse06_10hf_ddec_sum_bond_order
 _atom_site_hse06_10hf_magmom
 _atom_site_hse06_bader_spin_density
 _atom_site_hse06_ddec_charge
 _atom_site_hse06_ddec_spin_density
 _atom_site_hse06_ddec_sum_bond_order
 _atom_site_hse06_magmom
 _atom_site_pbe_bader_charge
 _atom_site_pbe_bader_spin_density
 _atom_site_pbe_cm5_charge
 _atom_site_pbe_ddec_charge
 _atom_site_pbe_ddec_spin_density
 _atom_site_pbe_ddec_sum_bond_order
 _atom_site_pbe_magmom
Cd  Cd0  1  0.35580684  0.00008834  0.74988838  1  0  0.755243  0  2.079146  0  0  0.582045  0  2.550631  0  0  0.629732  0  2.512124  0  0.882  0  0.525041  0.549465  0  2.576132  0
Cd  Cd1  1  0.64419644  0.99991086  0.25011291  1  0  0.755296  0  2.079083  0  0  0.582116  0  2.550574  0  0  0.629801  0  2.512066  0  0.881974  0  0.525072  0.549533  0  2.576079  0
H  H2  1  0.31159645  0.33707300  0.79861363  1  0  0.07039  0  0.957503  0  0  0.075074  0  1.030281  0  0  0.07775  0  1.027638  0  0.113005  0  0.100571  0.07317  0  1.032052  0
H  H3  1  0.97404010  0.66268267  0.70135366  1  0  0.070803  0  0.957628  0  0  0.075456  0  1.030223  0  0  0.078137  0  1.027572  0  0.079391  0  0.100712  0.073506  0  1.032095  0
H  H4  1  0.68840363  0.66292261  0.20138665  1  0  0.070436  0  0.957531  0  0  0.07513  0  1.030273  0  0  0.077807  0  1.02763  0  0.112972  0  0.100632  0.07322  0  1.032057  0
H  H5  1  0.02596177  0.33731652  0.29864717  1  0  0.070817  0  0.957657  0  0  0.075505  0  1.030205  0  0  0.078187  0  1.027554  0  0.079447  0  0.100734  0.073554  0  1.032078  0
H  H6  1  0.08701193  0.42595768  0.86281715  1  0  0.1144  0  0.980265  0  0  0.122763  0  1.043773  0  0  0.126419  0  1.042882  0  0.094335  0  0.097552  0.120175  0  1.044593  0
H  H7  1  0.66091677  0.57375144  0.63700985  1  0  0.114466  0  0.980101  0  0  0.122672  0  1.04371  0  0  0.126336  0  1.04281  0  0.10106  0  0.097508  0.120104  0  1.044494  0
H  H8  1  0.91298652  0.57404032  0.13718094  1  0  0.114396  0  0.980302  0  0  0.122802  0  1.043764  0  0  0.12646  0  1.042872  0  0.094322  0  0.097528  0.120212  0  1.044589  0
H  H9  1  0.33908792  0.42624776  0.36299008  1  0  0.114466  0  0.980157  0  0  0.122685  0  1.043749  0  0  0.12635  0  1.042848  0  0.101065  0  0.097527  0.120116  0  1.044534  0
H  H10  1  0.77503110  0.93140185  0.90588035  1  0  0.117872  0  1.011748  0  0  0.115464  0  1.091722  0  0  0.120354  0  1.089242  0  0.16794  0  0.100888  0.111982  0  1.093656  0
H  H11  1  0.84326892  0.06841112  0.59407650  1  0  0.117832  0  1.012058  0  0  0.115278  0  1.092089  0  0  0.120169  0  1.089587  0  0.171461  0  0.100549  0.111806  0  1.094002  0
H  H12  1  0.22496973  0.06860092  0.09412104  1  0  0.11793  0  1.011761  0  0  0.115562  0  1.091693  0  0  0.120451  0  1.089209  0  0.167917  0  0.100916  0.112059  0  1.093643  0
H  H13  1  0.15673496  0.93158927  0.40592392  1  0  0.117805  0  1.012088  0  0  0.115259  0  1.092125  0  0  0.120149  0  1.089621  0  0.171258  0  0.100554  0.111786  0  1.094039  0
H  H14  1  0.01858119  0.86844605  0.84152642  1  0  0.064126  0  0.968521  0  0  0.069719  0  1.041871  0  0  0.072051  0  1.039445  0  0.086816  0  0.101907  0.068032  0  1.043561  0
H  H15  1  0.14963535  0.13137409  0.65849422  1  0  0.064581  0  0.9687  0  0  0.070208  0  1.042017  0  0  0.072566  0  1.039531  0  0.098291  0  0.102046  0.068477  0  1.043766  0
H  H16  1  0.98142068  0.13155314  0.15847756  1  0  0.064153  0  0.968478  0  0  0.069737  0  1.041829  0  0  0.072069  0  1.039403  0  0.086795  0  0.101936  0.068049  0  1.043521  0
H  H17  1  0.85036853  0.86862630  0.34150755  1  0  0.064525  0  0.968704  0  0  0.070133  0  1.042072  0  0  0.072492  0  1.039587  0  0.098298  0  0.102009  0.068408  0  1.043806  0
H  H18  1  0.74100674  0.38409378  0.83138479  1  0  0.107193  0  0.993617  0  0  0.11279  0  1.064394  0  0  0.116335  0  1.063089  0  0.116667  0  0.090936  0.110231  0  1.06547  0
H  H19  1  0.35755373  0.61650585  0.66853146  1  0  0.107562  0  0.993795  0  0  0.112702  0  1.064861  0  0  0.116196  0  1.063646  0  0.122038  0  0.090806  0.110163  0  1.065933  0
H  H20  1  0.25898964  0.61591138  0.16861442  1  0  0.107174  0  0.993574  0  0  0.112785  0  1.064352  0  0  0.11633  0  1.063048  0  0.116682  0  0.090898  0.110225  0  1.065428  0
H  H21  1  0.64244879  0.38348618  0.33146961  1  0  0.107565  0  0.993772  0  0  0.112682  0  1.064864  0  0  0.116175  0  1.063651  0  0.121998  0  0.090806  0.110145  0  1.065932  0
H  H22  1  0.70976689  0.64629523  0.83888623  1  0  0.06807  0  0.957242  0  0  0.076563  0  1.021927  0  0  0.07915  0  1.019597  0  0.081532  0  0.097803  0.074666  0  1.023651  0
H  H23  1  0.06414083  0.35436051  0.66140417  1  0  0.068157  0  0.956314  0  0  0.076136  0  1.021552  0  0  0.0787  0  1.019229  0  0.088124  0  0.097797  0.074244  0  1.023294  0
H  H24  1  0.29022889  0.35370874  0.16111294  1  0  0.068075  0  0.957263  0  0  0.076601  0  1.021906  0  0  0.079187  0  1.019579  0  0.081892  0  0.097833  0.074704  0  1.023631  0
H  H25  1  0.93585865  0.64563391  0.33859471  1  0  0.068162  0  0.956326  0  0  0.076163  0  1.021533  0  0  0.07873  0  1.019206  0  0.088056  0  0.097829  0.074271  0  1.023275  0
H  H26  1  0.73234551  0.67473690  0.02607035  1  0  0.062929  0  0.952025  0  0  0.070307  0  1.019155  0  0  0.072116  0  1.018717  0  0.094757  0  0.102783  0.068968  0  1.019603  0
H  H27  1  0.05669462  0.32441833  0.47421328  1  0  0.063113  0  0.951634  0  0  0.070685  0  1.018704  0  0  0.072466  0  1.018353  0  0.086873  0  0.102947  0.06936  0  1.019095  0
H  H28  1  0.26764647  0.32526230  0.97392868  1  0  0.062937  0  0.952068  0  0  0.070309  0  1.019196  0  0  0.072119  0  1.018759  0  0.094744  0  0.102793  0.068973  0  1.019642  0
H  H29  1  0.94330578  0.67558922  0.52578510  1  0  0.063124  0  0.951622  0  0  0.070696  0  1.018697  0  0  0.072476  0  1.018344  0  0.086873  0  0.102934  0.069371  0  1.019088  0
H  H30  1  0.75572605  0.40929926  0.02719619  1  0  0.120953  0  0.938404  0  0  0.130457  0  0.998659  0  0  0.134095  0  0.997508  0  0.100146  0  0.109027  0.127875  0  0.999647  0
H  H31  1  0.34554127  0.58971033  0.47270877  1  0  0.120738  0  0.938056  0  0  0.130367  0  0.998091  0  0  0.134075  0  0.996855  0  0.108925  0  0.109067  0.127724  0  0.99917  0
H  H32  1  0.24426534  0.59069874  0.97280190  1  0  0.120981  0  0.938381  0  0  0.130459  0  0.998662  0  0  0.134101  0  0.997503  0  0.100087  0  0.109048  0.127877  0  0.999652  0
H  H33  1  0.65446276  0.41029602  0.52729228  1  0  0.120711  0  0.938044  0  0  0.130335  0  0.998083  0  0  0.134043  0  0.996846  0  0.108948  0  0.109052  0.127691  0  0.999163  0
H  H34  1  0.37075570  0.10388740  0.91574491  1  0  0.102149  0  0.970345  0  0  0.10979  0  1.037142  0  0  0.111923  0  1.037267  0  0.107458  0  0.102554  0.108241  0  1.037192  0
H  H35  1  0.26703021  0.89571309  0.58425284  1  0  0.101872  0  0.969739  0  0  0.109801  0  1.036295  0  0  0.111951  0  1.036393  0  0.090386  0  0.102308  0.10823  0  1.036371  0
H  H36  1  0.62923324  0.89611418  0.08425509  1  0  0.102223  0  0.970395  0  0  0.109866  0  1.03719  0  0  0.111998  0  1.037315  0  0.107576  0  0.102588  0.108328  0  1.037202  0
H  H37  1  0.73297188  0.10428372  0.41574792  1  0  0.101914  0  0.969676  0  0  0.109817  0  1.036254  0  0  0.111966  0  1.036353  0  0.090381  0  0.102314  0.108248  0  1.036333  0
H  H38  1  0.12367289  0.90234184  0.97813953  1  0  0.111106  0  0.943172  0  0  0.120624  0  1.004405  0  0  0.123031  0  1.004181  0  0.092387  0  0.108025  0.118923  0  1.004629  0
H  H39  1  0.22147396  0.09762513  0.52208307  1  0  0.110689  0  0.942665  0  0  0.120727  0  1.003427  0  0  0.123039  0  1.003358  0  0.097021  0  0.108031  0.11908  0  1.003574  0
H  H40  1  0.87631687  0.09765855  0.02185998  1  0  0.111061  0  0.943143  0  0  0.120579  0  1.00439  0  0  0.12298  0  1.004182  0  0.092106  0  0.107991  0.118878  0  1.004616  0
H  H41  1  0.77852634  0.90236810  0.47791713  1  0  0.110733  0  0.942634  0  0  0.120769  0  1.003401  0  0  0.123081  0  1.003332  0  0.09698  0  0.108023  0.119117  0  1.003553  0
C  C42  1  0.19061895  0.25125261  0.82346400  1  0  0.135609  0  3.749163  0  0  0.105673  0  4.000335  0  0  0.115489  0  4.017891  0  0.489129  0  0.033209  0.099397  0  3.988225  0
C  C43  1  0.93894503  0.74852097  0.67649210  1  0  0.135428  0  3.751262  0  0  0.105666  0  4.002261  0  0  0.115482  0  4.019837  0  0.535109  0  0.033188  0.099385  0  3.990146  0
C  C44  1  0.80937950  0.74874539  0.17653634  1  0  0.135585  0  3.749139  0  0  0.105678  0  4.000311  0  0  0.115492  0  4.017864  0  0.489128  0  0.033177  0.099401  0  3.988202  0
C  C45  1  0.06106167  0.25147942  0.32350922  1  0  0.135366  0  3.751317  0  0  0.105577  0  4.002329  0  0  0.115393  0  4.019907  0  0.535038  0  0.033107  0.099297  0  3.99021  0
C  C46  1  0.06309430  0.30030392  0.85956272  1  0  -0.230518  0  3.723279  0  0  -0.246326  0  3.97523  0  0  -0.256965  0  3.994068  0  -0.055902  0  -0.102297  -0.239485  0  3.962616  0
C  C47  1  0.76257617  0.69943982  0.64030681  1  0  -0.230804  0  3.724  0  0  -0.246172  0  3.976054  0  0  -0.256803  0  3.994902  0  -0.039174  0  -0.102333  -0.239334  0  3.963418  0
C  C48  1  0.93690474  0.69969527  0.14043721  1  0  -0.230548  0  3.723317  0  0  -0.246398  0  3.97528  0  0  -0.257037  0  3.994118  0  -0.055923  0  -0.102288  -0.239555  0  3.962666  0
C  C49  1  0.23743053  0.30056057  0.35969361  1  0  -0.230829  0  3.724094  0  0  -0.246239  0  3.976121  0  0  -0.256872  0  3.994968  0  -0.039539  0  -0.102399  -0.239396  0  3.963488  0
C  C50  1  0.90572619  0.18667573  0.89066001  1  0  0.261905  0  3.773  0  0  0.247856  0  4.021993  0  0  0.263659  0  4.03778  0  0.388424  0  0.119949  0.237459  0  4.010953  0
C  C51  1  0.71897432  0.81309427  0.60919183  1  0  0.263029  0  3.772816  0  0  0.247689  0  4.02241  0  0  0.263481  0  4.038201  0  0.357721  0  0.120261  0.237285  0  4.01139  0
C  C52  1  0.09426721  0.81332346  0.10934037  1  0  0.261987  0  3.772737  0  0  0.247903  0  4.021812  0  0  0.263704  0  4.037603  0  0.388443  0  0.119935  0.237507  0  4.01077  0
C  C53  1  0.28102956  0.18690612  0.39080994  1  0  0.263012  0  3.772829  0  0  0.247767  0  4.022321  0  0  0.263565  0  4.038102  0  0.35838  0  0.120276  0.237352  0  4.011314  0
C  C54  1  0.88984388  0.02723600  0.88336666  1  0  -0.228477  0  3.723058  0  0  -0.243577  0  3.976235  0  0  -0.254764  0  3.995595  0  -0.068395  0  -0.101681  -0.236384  0  3.963394  0
C  C55  1  0.86227420  0.97257458  0.61658200  1  0  -0.229818  0  3.724336  0  0  -0.244737  0  3.978206  0  0  -0.255903  0  3.997515  0  -0.068499  0  -0.101991  -0.237551  0  3.965358  0
C  C56  1  0.11016200  0.97276558  0.11663334  1  0  -0.228544  0  3.72275  0  0  -0.243677  0  3.97592  0  0  -0.25486  0  3.995274  0  -0.068361  0  -0.101686  -0.236466  0  3.963102  0
C  C57  1  0.13773108  0.02742581  0.38341842  1  0  -0.229817  0  3.724316  0  0  -0.244792  0  3.978174  0  0  -0.255961  0  3.997481  0  -0.068587  0  -0.102013  -0.237604  0  3.965332  0
C  C58  1  0.02616288  0.99056400  0.84697766  1  0  0.135894  0  3.746761  0  0  0.107541  0  3.99304  0  0  0.11705  0  4.010972  0  0.48132  0  0.032311  0.101492  0  3.980642  0
C  C59  1  0.03516926  0.00926210  0.65301476  1  0  0.136087  0  3.747178  0  0  0.107858  0  3.993276  0  0  0.117362  0  4.011225  0  0.464991  0  0.032722  0.101829  0  3.980877  0
C  C60  1  0.97383475  0.00943519  0.15302633  1  0  0.135826  0  3.746518  0  0  0.107505  0  3.992809  0  0  0.117018  0  4.010726  0  0.481427  0  0.032287  0.101454  0  3.980411  0
C  C61  1  0.96483521  0.99073948  0.34698705  1  0  0.136226  0  3.747001  0  0  0.108012  0  3.993091  0  0  0.117515  0  4.011043  0  0.46505  0  0.03276  0.101986  0  3.980693  0
C  C62  1  0.75779183  0.37760709  0.92917730  1  0  0.228633  0  3.786839  0  0  0.219644  0  4.033174  0  0  0.230001  0  4.053359  0  0.300185  0  0.10506  0.212816  0  4.019301  0
C  C63  1  0.38015316  0.62217604  0.57070875  1  0  0.229848  0  3.785902  0  0  0.219679  0  4.032897  0  0  0.229975  0  4.053151  0  0.32145  0  0.105188  0.212888  0  4.018979  0
C  C64  1  0.24220075  0.62239330  0.07082131  1  0  0.228382  0  3.787247  0  0  0.219501  0  4.033439  0  0  0.229858  0  4.053625  0  0.300196  0  0.105019  0.212671  0  4.019568  0
C  C65  1  0.61984729  0.37782315  0.42929163  1  0  0.229897  0  3.786002  0  0  0.219727  0  4.03298  0  0  0.230029  0  4.053227  0  0.321394  0  0.105187  0.212936  0  4.019062  0
C  C66  1  0.74321338  0.44551446  0.87568040  1  0  -0.215498  0  3.739261  0  0  -0.229784  0  3.982857  0  0  -0.238866  0  4.00449  0  -0.047801  0  -0.097099  -0.223829  0  3.968348  0
C  C67  1  0.29802918  0.55474855  0.62430905  1  0  -0.215622  0  3.739907  0  0  -0.229427  0  3.984039  0  0  -0.238475  0  4.005686  0  -0.045814  0  -0.096617  -0.223498  0  3.969529  0
C  C68  1  0.25678441  0.55449070  0.12431791  1  0  -0.215488  0  3.739213  0  0  -0.229813  0  3.982759  0  0  -0.238896  0  4.004393  0  -0.04787  0  -0.097119  -0.223856  0  3.96825  0
C  C69  1  0.70197313  0.44524587  0.37569164  1  0  -0.215684  0  3.739876  0  0  -0.229468  0  3.984008  0  0  -0.23852  0  4.005656  0  -0.045731  0  -0.096625  -0.22354  0  3.969497  0
C  C70  1  0.72657752  0.59298233  0.88005327  1  0  0.12253  0  3.758499  0  0  0.100849  0  4.011087  0  0  0.106382  0  4.029201  0  0.50273  0  0.033663  0.097339  0  3.998743  0
C  C71  1  0.13390751  0.40733320  0.62015196  1  0  0.122289  0  3.759171  0  0  0.101028  0  4.011674  0  0  0.106604  0  4.029711  0  0.514471  0  0.03359  0.0975  0  3.999346  0
C  C72  1  0.27341766  0.40702045  0.11994632  1  0  0.122489  0  3.758334  0  0  0.100788  0  4.010941  0  0  0.106319  0  4.029055  0  0.502453  0  0.033634  0.097281  0  3.998597  0
C  C73  1  0.86609881  0.59266361  0.37984700  1  0  0.122309  0  3.758945  0  0  0.101047  0  4.011422  0  0  0.106623  0  4.029464  0  0.514534  0  0.033523  0.097518  0  3.999098  0
C  C74  1  0.73587256  0.60751711  0.98354393  1  0  0.124102  0  3.768481  0  0  0.100768  0  4.029776  0  0  0.107246  0  4.046456  0  0.483798  0  0.035344  0.096608  0  4.018401  0
C  C75  1  0.12784884  0.39193416  0.51665580  1  0  0.123233  0  3.767356  0  0  0.099551  0  4.02896  0  0  0.106011  0  4.045607  0  0.494191  0  0.034723  0.095411  0  4.017595  0
C  C76  1  0.26412024  0.39248089  0.01645641  1  0  0.124009  0  3.768517  0  0  0.100683  0  4.029807  0  0  0.107161  0  4.046486  0  0.484147  0  0.03531  0.096525  0  4.018431  0
C  C77  1  0.87215400  0.60806981  0.48334337  1  0  0.123065  0  3.767564  0  0  0.099369  0  4.029197  0  0  0.105834  0  4.045842  0  0.494186  0  0.034619  0.09523  0  4.017831  0
C  C78  1  0.75066695  0.45981169  0.98450215  1  0  -0.203465  0  3.718328  0  0  -0.224273  0  3.973468  0  0  -0.23199  0  3.993199  0  -0.006085  0  -0.091315  -0.219352  0  3.960378  0
C  C79  1  0.29038653  0.53956199  0.51549503  1  0  -0.203558  0  3.718329  0  0  -0.224234  0  3.973973  0  0  -0.231979  0  3.993659  0  -0.071432  0  -0.091476  -0.219293  0  3.960907  0
C  C80  1  0.24932622  0.54018989  0.01549695  1  0  -0.20331  0  3.718266  0  0  -0.224127  0  3.973346  0  0  -0.231842  0  3.993078  0  -0.006209  0  -0.091281  -0.219207  0  3.960258  0
C  C81  1  0.70961713  0.46044078  0.48450546  1  0  -0.203455  0  3.718372  0  0  -0.224116  0  3.973999  0  0  -0.231863  0  3.993681  0  -0.0714  0  -0.091418  -0.219176  0  3.960933  0
C  C82  1  0.63682757  0.11242611  0.96528151  1  0  0.177921  0  3.777391  0  0  0.175062  0  4.020116  0  0  0.180104  0  4.042224  0  0.321007  0  0.091742  0.17159  0  4.005029  0
C  C83  1  0.52442948  0.88734986  0.53458584  1  0  0.179453  0  3.777804  0  0  0.175529  0  4.020896  0  0  0.180559  0  4.043006  0  0.25293  0  0.092628  0.172063  0  4.005799  0
C  C84  1  0.36316338  0.88757667  0.03471763  1  0  0.178006  0  3.777631  0  0  0.175209  0  4.020247  0  0  0.180253  0  4.042359  0  0.320952  0  0.091659  0.171734  0  4.005158  0
C  C85  1  0.47557625  0.11264575  0.46541488  1  0  0.179427  0  3.777812  0  0  0.175489  0  4.020903  0  0  0.180519  0  4.043013  0  0.252946  0  0.092641  0.172023  0  4.005809  0
C  C86  1  0.42590304  0.05907739  0.95323677  1  0  -0.11762  0  3.72474  0  0  -0.139756  0  3.97745  0  0  -0.142572  0  3.998019  0  -0.086699  0  -0.084483  -0.137771  0  3.963525  0
C  C87  1  0.36695014  0.94069738  0.54676762  1  0  -0.118829  0  3.724929  0  0  -0.141215  0  3.978413  0  0  -0.14401  0  3.998891  0  0.005356  0  -0.085086  -0.139238  0  3.964542  0
C  C88  1  0.57409095  0.94092299  0.04676320  1  0  -0.117863  0  3.724736  0  0  -0.140025  0  3.977434  0  0  -0.142845  0  3.998007  0  -0.086766  0  -0.08455  -0.138031  0  3.963513  0
C  C89  1  0.63304934  0.05929704  0.45323307  1  0  -0.118834  0  3.72505  0  0  -0.141193  0  3.978544  0  0  -0.143986  0  3.999019  0  0.005341  0  -0.085074  -0.139221  0  3.964677  0
C  C90  1  0.28822206  0.94624461  0.98782834  1  0  -0.116849  0  3.719409  0  0  -0.135892  0  3.968447  0  0  -0.138218  0  3.987657  0  0.018176  0  -0.081645  -0.134242  0  3.955439  0
C  C91  1  0.34206926  0.05374384  0.51230879  1  0  -0.115467  0  3.717265  0  0  -0.134655  0  3.966226  0  0  -0.136959  0  3.985531  0  0.014146  0  -0.081229  -0.13302  0  3.953153  0
C  C92  1  0.71177008  0.05376055  0.01217132  1  0  -0.116733  0  3.719187  0  0  -0.135766  0  3.968276  0  0  -0.138089  0  3.987483  0  0.018567  0  -0.08164  -0.134119  0  3.955268  0
C  C93  1  0.65793402  0.94625536  0.48769114  1  0  -0.115619  0  3.717358  0  0  -0.134838  0  3.966361  0  0  -0.137142  0  3.985664  0  0.014079  0  -0.08127  -0.1332  0  3.953291  0
I  I94  1  0.62628680  0.26570741  0.70157246  1  0  -0.472984  0  0.985401  0  0  -0.414334  0  1.285834  0  0  -0.432367  0  1.263746  0  -0.504584  0  -0.23422  -0.401692  0  1.300838  0
I  I95  1  0.36180844  0.73479673  0.79817586  1  0  -0.473188  0  0.98542  0  0  -0.414512  0  1.285498  0  0  -0.432522  0  1.263404  0  -0.505056  0  -0.234482  -0.401869  0  1.300493  0
I  I96  1  0.37371306  0.73429059  0.29842743  1  0  -0.472997  0  0.985397  0  0  -0.414357  0  1.285845  0  0  -0.432393  0  1.263758  0  -0.504583  0  -0.234228  -0.401715  0  1.300852  0
I  I97  1  0.63819706  0.26520128  0.20182359  1  0  -0.473187  0  0.985379  0  0  -0.414535  0  1.285471  0  0  -0.432541  0  1.263369  0  -0.505037  0  -0.234495  -0.401892  0  1.300467  0
N  N98  1  0.17524880  0.09880452  0.81691675  1  0  -0.35248  0  3.304716  0  0  -0.270803  0  3.566571  0  0  -0.292987  0  3.585986  0  -1.271607  0  -0.360697  -0.255862  0  3.552946  0
N  N99  1  0.07598367  0.90099412  0.68306943  1  0  -0.352282  0  3.306248  0  0  -0.270883  0  3.568494  0  0  -0.293053  0  3.587844  0  -1.260303  0  -0.360745  -0.255915  0  3.55483  0
N  N100  1  0.82475448  0.90119467  0.18308454  1  0  -0.352491  0  3.304876  0  0  -0.270867  0  3.566784  0  0  -0.293048  0  3.586196  0  -1.271677  0  -0.360769  -0.255927  0  3.553165  0
N  N101  1  0.92402161  0.09900626  0.31693189  1  0  -0.352287  0  3.306087  0  0  -0.270882  0  3.568324  0  0  -0.293053  0  3.587674  0  -1.260248  0  -0.360669  -0.255915  0  3.554661  0
N  N102  1  0.77430655  0.22745692  0.92814225  1  0  -0.241604  0  3.454721  0  0  -0.162786  0  3.672228  0  0  -0.183589  0  3.69379  0  -1.217808  0  -0.244692  -0.148317  0  3.656795  0
N  N103  1  0.54698221  0.77218774  0.57160569  1  0  -0.24404  0  3.455755  0  0  -0.162644  0  3.671661  0  0  -0.183412  0  3.693224  0  -1.239696  0  -0.245776  -0.14818  0  3.656203  0
N  N104  1  0.22568804  0.77254466  0.07185595  1  0  -0.241518  0  3.454828  0  0  -0.16275  0  3.672303  0  0  -0.183558  0  3.693875  0  -1.217856  0  -0.244544  -0.148281  0  3.656872  0
N  N105  1  0.45301906  0.22781026  0.42839511  1  0  -0.244118  0  3.455684  0  0  -0.162744  0  3.671568  0  0  -0.183519  0  3.69313  0  -1.239762  0  -0.245782  -0.148275  0  3.656108  0
N  N106  1  0.72468594  0.67543881  0.93270737  1  0  -0.323768  0  3.08322  0  0  -0.284307  0  3.349287  0  0  -0.295588  0  3.36451  0  -1.221396  0  -0.327344  -0.276634  0  3.338819  0
N  N107  1  0.04914327  0.32446966  0.56759868  1  0  -0.323262  0  3.082972  0  0  -0.283625  0  3.348909  0  0  -0.294896  0  3.36411  0  -1.215503  0  -0.327163  -0.275943  0  3.338421  0
N  N108  1  0.27530783  0.32456397  0.06729177  1  0  -0.323702  0  3.08328  0  0  -0.284248  0  3.34936  0  0  -0.295528  0  3.364581  0  -1.221544  0  -0.327339  -0.276573  0  3.338879  0
N  N109  1  0.95085838  0.67553192  0.43240042  1  0  -0.32312  0  3.082963  0  0  -0.283489  0  3.348909  0  0  -0.294756  0  3.364098  0  -1.215532  0  -0.327027  -0.275808  0  3.338424  0
