# generated using pymatgen
data_CuH30C28(N2O5)2
_symmetry_space_group_name_H-M   'P 1'
_cell_length_a   8.82479835
_cell_length_b   12.53452720
_cell_length_c   13.23090000
_cell_angle_alpha   90.00000000
_cell_angle_beta   106.05081803
_cell_angle_gamma   90.00000000
_symmetry_Int_Tables_number   1
_chemical_formula_structural   CuH30C28(N2O5)2
_chemical_formula_sum   'Cu2 H60 C56 N8 O20'
_cell_volume   1406.47861694
_cell_formula_units_Z   2
loop_
 _symmetry_equiv_pos_site_id
 _symmetry_equiv_pos_as_xyz
  1  'x, y, z'
loop_
 _atom_site_type_symbol
 _atom_site_label
 _atom_site_symmetry_multiplicity
 _atom_site_fract_x
 _atom_site_fract_y
 _atom_site_fract_z
 _atom_site_occupancy
 _atom_site_hle17_ddec_charge
 _atom_site_hle17_ddec_spin_density
 _atom_site_hle17_ddec_sum_bond_order
 _atom_site_hle17_magmom
 _atom_site_hse06_10hf_ddec_charge
 _atom_site_hse06_10hf_ddec_spin_density
 _atom_site_hse06_10hf_ddec_sum_bond_order
 _atom_site_hse06_10hf_magmom
 _atom_site_hse06_ddec_charge
 _atom_site_hse06_ddec_spin_density
 _atom_site_hse06_ddec_sum_bond_order
 _atom_site_hse06_magmom
 _atom_site_pbe_bader_charge
 _atom_site_pbe_bader_spin_density
 _atom_site_pbe_cm5_charge
 _atom_site_pbe_ddec_charge
 _atom_site_pbe_ddec_spin_density
 _atom_site_pbe_ddec_sum_bond_order
 _atom_site_pbe_magmom
Cu  Cu0  1  0.50000001  0.50000051  0.50000027  1  0.846361  0.684169  1.813436  0.501  0.821055  0.772069  2.197919  0.615  0.912083  0.83842  2.129756  0.7  1.067149  0.560798  0.740844  0.765171  0.724841  2.24529  0.56
Cu  Cu1  1  0.00000000  0.00000000  0.50000000  1  0.846364  0.684166  1.813449  0.501  0.821002  0.772062  2.197974  0.615  0.911991  0.838414  2.129834  0.7  1.067153  0.560788  0.74081  0.76507  0.724824  2.245387  0.56
H  H2  1  0.49593906  0.95131390  0.28677905  1  0.104376  0.000213  0.959127  0.0  0.114361  -2e-05  1.021613  0.0  0.116796  -5.8e-05  1.020496  0.0  0.079573  0.000152  0.109738  0.112952  3.7e-05  1.021944  0.0
H  H3  1  0.00405977  0.45131339  0.71322251  1  0.104456  0.000208  0.959049  0.0  0.114433  -2e-05  1.021534  0.0  0.116868  -5.8e-05  1.020417  0.0  0.07956  0.000153  0.109788  0.113031  3.7e-05  1.021859  0.0
H  H4  1  0.50406096  0.04868552  0.71322148  1  0.104381  0.000215  0.959122  0.0  0.114367  -2e-05  1.02161  0.0  0.116801  -5.8e-05  1.020495  0.0  0.079567  0.000152  0.109728  0.112959  3.7e-05  1.021941  0.0
H  H5  1  0.99593907  0.54868603  0.28677856  1  0.104377  0.000213  0.959135  0.0  0.114363  -2e-05  1.021621  0.0  0.116795  -5.8e-05  1.020516  0.0  0.079579  0.000153  0.109735  0.112961  3.7e-05  1.021947  0.0
H  H6  1  0.32952630  0.11793504  0.26123191  1  0.103345  0.000476  0.962478  0.001  0.114213  0.000439  1.021777  0.001  0.116244  0.000322  1.023231  0.0  0.094987  0.001054  0.10684  0.112378  0.000535  1.021394  0.001
H  H7  1  0.17047371  0.61793476  0.73876911  1  0.103348  0.000482  0.962451  0.001  0.114214  0.000438  1.021753  0.001  0.116245  0.000322  1.023208  0.0  0.09498  0.001054  0.106853  0.112385  0.000535  1.021364  0.001
H  H8  1  0.67047490  0.88206438  0.73876884  1  0.103373  0.000478  0.962493  0.001  0.114237  0.000439  1.021794  0.001  0.116269  0.000322  1.023247  0.0  0.094975  0.001054  0.106849  0.112406  0.000535  1.021406  0.001
H  H9  1  0.82952631  0.38206467  0.26123218  1  0.103376  0.000478  0.962488  0.001  0.114242  0.000438  1.021786  0.001  0.116274  0.000322  1.023239  0.0  0.094987  0.001054  0.106856  0.112409  0.000535  1.021402  0.001
H  H10  1  0.12068819  0.13341070  0.35747948  1  0.09031  0.000702  0.952535  0.002  0.0972  0.000653  1.019328  0.001  0.099667  0.000465  1.016414  0.001  0.129294  0.001796  0.118925  0.095139  0.000788  1.021634  0.001
H  H11  1  0.37931299  0.63341041  0.64252101  1  0.090304  0.000698  0.952563  0.002  0.097195  0.000652  1.019354  0.001  0.099663  0.000465  1.016439  0.001  0.1293  0.001796  0.118936  0.095136  0.000788  1.021658  0.001
H  H12  1  0.87931300  0.86658873  0.64252052  1  0.090289  0.000707  0.952561  0.002  0.097183  0.000652  1.019345  0.001  0.099651  0.000465  1.01643  0.001  0.129275  0.001796  0.118928  0.095124  0.000788  1.021648  0.001
H  H13  1  0.62068702  0.36658981  0.35747953  1  0.090302  0.000706  0.952557  0.002  0.097199  0.000653  1.019333  0.001  0.099667  0.000465  1.016418  0.001  0.129298  0.001796  0.118935  0.095135  0.000789  1.021644  0.001
H  H14  1  0.24174192  0.84144059  0.50161836  1  0.092829  0.000754  0.963542  0.002  0.098373  0.000694  1.03355  0.001  0.101188  0.000491  1.030027  0.001  0.12596  0.001885  0.120197  0.096149  0.000847  1.036192  0.002
H  H15  1  0.25825691  0.34144088  0.49838094  1  0.092845  0.000751  0.96354  0.002  0.098389  0.000694  1.033545  0.001  0.101203  0.000491  1.030023  0.001  0.125962  0.001885  0.1202  0.096164  0.000848  1.036188  0.002
H  H16  1  0.75825692  0.15855883  0.49838120  1  0.092854  0.000753  0.963524  0.002  0.098396  0.000694  1.033535  0.001  0.101211  0.000491  1.030013  0.001  0.125975  0.001885  0.120203  0.096168  0.000847  1.036181  0.002
H  H17  1  0.74174193  0.65855934  0.50161862  1  0.092855  0.000754  0.963539  0.002  0.098392  0.000694  1.033561  0.001  0.101207  0.000491  1.030037  0.001  0.125968  0.001885  0.120203  0.096169  0.000847  1.036201  0.002
H  H18  1  0.52450955  0.76367619  0.35091989  1  0.054685  0.000324  0.926928  0.0  0.073167  0.000188  0.98702  0.0  0.073051  0.000131  0.987233  0.0  0.0594  0.000483  0.103493  0.072956  0.000258  0.987304  0.0
H  H19  1  0.97549048  0.26367728  0.64908015  1  0.054717  0.000322  0.926958  0.0  0.073176  0.000188  0.987032  0.0  0.073058  0.000131  0.987248  0.0  0.059378  0.000483  0.103501  0.072967  0.000258  0.987313  0.0
H  H20  1  0.47549047  0.23632323  0.64907989  1  0.054693  0.000324  0.926958  0.0  0.073168  0.000188  0.987048  0.0  0.07305  0.000131  0.987264  0.0  0.059403  0.000483  0.103487  0.072955  0.000258  0.987333  0.0
H  H21  1  0.02450836  0.73632215  0.35091941  1  0.054696  0.000325  0.927003  0.0  0.073158  0.000188  0.987079  0.0  0.07304  0.000131  0.987295  0.0  0.059385  0.000483  0.10349  0.072951  0.000258  0.987362  0.0
H  H22  1  0.58669133  0.79918371  0.48525176  1  0.05809  0.000149  0.927697  0.0  0.073857  5.3e-05  0.991013  0.0  0.07327  7.1e-05  0.991297  0.0  0.057183  9.1e-05  0.09983  0.073862  5.3e-05  0.991342  0.0
H  H23  1  0.91331106  0.29918320  0.51474796  1  0.058109  0.000143  0.927712  0.0  0.073829  5.3e-05  0.991034  0.0  0.07324  7.2e-05  0.991319  0.0  0.057201  9.1e-05  0.099819  0.073833  5.4e-05  0.991365  0.0
H  H24  1  0.41331223  0.20081731  0.51474792  1  0.058112  0.000148  0.927734  0.0  0.073845  5.3e-05  0.991068  0.0  0.073256  7.2e-05  0.991353  0.0  0.05721  9.1e-05  0.099829  0.07385  5.4e-05  0.991396  0.0
H  H25  1  0.08669014  0.70081463  0.48525127  1  0.058097  0.000149  0.927738  0.0  0.073819  5.3e-05  0.991063  0.0  0.07323  7.1e-05  0.991348  0.0  0.0572  9.1e-05  0.099811  0.073829  5.4e-05  0.991391  0.0
H  H26  1  0.34681245  0.65440362  0.38181310  1  0.355061  -0.000262  0.958001  0.0  0.327487  -0.000239  1.040231  0.0  0.338896  -0.000258  1.023644  0.0  0.635568  -1.5e-05  0.2799  0.319322  -0.000199  1.049811  0.0
H  H27  1  0.15318874  0.15440471  0.61818814  1  0.355092  -0.000262  0.957953  0.0  0.327493  -0.000239  1.04023  0.0  0.338904  -0.000258  1.02364  0.0  0.635552  -1.5e-05  0.279888  0.319327  -0.000199  1.049817  0.0
H  H28  1  0.65318993  0.34559580  0.61818862  1  0.355093  -0.000262  0.957958  0.0  0.327498  -0.000239  1.040227  0.0  0.338909  -0.000258  1.023637  0.0  0.635563  -1.5e-05  0.279885  0.319331  -0.000199  1.049828  0.0
H  H29  1  0.84681245  0.84559392  0.38181488  1  0.355149  -0.000262  0.957951  0.0  0.327526  -0.000239  1.040209  0.0  0.338937  -0.000258  1.023618  0.0  0.635478  -1.5e-05  0.279891  0.319361  -0.000199  1.049854  0.0
H  H30  1  0.12886904  0.30449573  0.30718290  1  0.095967  6.2e-05  0.940353  0.0  0.110869  7.6e-05  0.994858  0.0  0.113153  4.5e-05  0.992462  0.0  0.06949  0.000128  0.107479  0.109365  0.000105  0.996311  0.0
H  H31  1  0.37113096  0.80449464  0.69281586  1  0.095997  6.4e-05  0.940325  0.0  0.110897  7.6e-05  0.99483  0.0  0.113182  4.6e-05  0.992432  0.0  0.069485  0.000128  0.107474  0.109385  0.000105  0.996287  0.0
H  H32  1  0.87113097  0.69550449  0.69281839  1  0.095995  6.4e-05  0.940334  0.0  0.110901  7.6e-05  0.994832  0.0  0.113185  4.6e-05  0.992435  0.0  0.069507  0.000127  0.107497  0.109395  0.000105  0.996285  0.0
H  H33  1  0.62886787  0.19550558  0.30718446  1  0.095982  6.3e-05  0.940327  0.0  0.110884  7.7e-05  0.994835  0.0  0.113169  4.6e-05  0.992438  0.0  0.069493  0.000127  0.107482  0.109387  0.000105  0.996283  0.0
H  H34  1  0.97279379  0.18378675  0.16273230  1  0.128084  -3.1e-05  0.958367  0.0  0.135386  -2.7e-05  1.021578  0.0  0.13911  -2.2e-05  1.021089  0.0  0.079625  -2.5e-05  0.104472  0.132641  -3.2e-05  1.02237  0.0
H  H35  1  0.52720741  0.68378566  0.83726721  1  0.128113  -3.5e-05  0.958401  0.0  0.135418  -2.7e-05  1.021607  0.0  0.13914  -2.2e-05  1.02112  0.0  0.079578  -2.4e-05  0.104487  0.132676  -3.2e-05  1.022387  0.0
H  H36  1  0.02720505  0.81621347  0.83726726  1  0.128105  -4.1e-05  0.958434  0.0  0.135414  -2.7e-05  1.021635  0.0  0.139137  -2.2e-05  1.021148  0.0  0.079621  -2.5e-05  0.104488  0.132674  -3.2e-05  1.022417  0.0
H  H37  1  0.47279261  0.31621536  0.16273257  1  0.128088  -3.7e-05  0.958409  0.0  0.135388  -2.7e-05  1.021625  0.0  0.139111  -2.2e-05  1.021137  0.0  0.079594  -2.3e-05  0.104473  0.132662  -3.1e-05  1.022394  0.0
H  H38  1  0.13518332  0.53453951  0.91104255  1  0.076159  8.2e-05  0.977177  0.0  0.088416  3.3e-05  1.053545  0.0  0.087261  1.2e-05  1.056103  0.0  0.079268  7.7e-05  0.091927  0.08939  4.6e-05  1.051512  0.0
H  H39  1  0.36481433  0.03453980  0.08895653  1  0.076139  7.8e-05  0.977114  0.0  0.088392  3.3e-05  1.053484  0.0  0.087237  1.2e-05  1.056041  0.0  0.079291  7.7e-05  0.091918  0.089353  4.6e-05  1.051461  0.0
H  H40  1  0.86481669  0.46545992  0.08895647  1  0.07622  7.5e-05  0.977124  0.0  0.088443  3.3e-05  1.053527  0.0  0.08729  1.2e-05  1.056084  0.0  0.079271  7.7e-05  0.091948  0.089415  4.6e-05  1.0515  0.0
H  H41  1  0.63518451  0.96545963  0.91104454  1  0.076117  7.2e-05  0.977185  0.0  0.088372  3.3e-05  1.053561  0.0  0.087216  1.2e-05  1.056118  0.0  0.079292  7.7e-05  0.091934  0.08935  4.6e-05  1.051526  0.0
H  H42  1  0.33057573  0.59091898  0.95356657  1  0.091352  1.1e-05  0.968788  0.0  0.105649  1e-06  1.03608  0.0  0.106292  1e-06  1.035995  0.0  0.073223  7e-06  0.098774  0.105151  5e-06  1.036081  0.0
H  H43  1  0.16942310  0.09091927  0.04643273  1  0.091343  5e-06  0.968807  0.0  0.105643  2e-06  1.036083  0.0  0.106285  1e-06  1.036001  0.0  0.073213  6e-06  0.098774  0.105143  4e-06  1.036088  0.0
H  H44  1  0.66942429  0.40908204  0.04643170  1  0.091369  6e-06  0.968795  0.0  0.105656  1e-06  1.03609  0.0  0.106296  1e-06  1.036011  0.0  0.073241  7e-06  0.098779  0.105149  5e-06  1.036101  0.0
H  H45  1  0.83057692  0.90908016  0.95356781  1  0.09134  -0.0  0.968818  0.0  0.105652  2e-06  1.036088  0.0  0.106294  1e-06  1.036006  0.0  0.073038  6e-06  0.098773  0.105164  4e-06  1.036082  0.0
H  H46  1  0.30394846  0.44977205  0.93033461  1  0.091433  6e-05  0.966931  0.0  0.102345  1.2e-05  1.040456  0.0  0.103703  -1e-06  1.038736  0.0  0.108484  8e-05  0.098237  0.101384  3.6e-05  1.041591  0.0
H  H47  1  0.19604919  0.94977176  0.06966597  1  0.091393  5.5e-05  0.966938  0.0  0.1023  1.2e-05  1.040464  0.0  0.103658  -1e-06  1.038744  0.0  0.108467  7.9e-05  0.098217  0.101345  3.5e-05  1.041591  0.0
H  H48  1  0.69605038  0.55022897  0.06966495  1  0.091419  5.7e-05  0.966949  0.0  0.102332  1.2e-05  1.040468  0.0  0.10369  -1e-06  1.038747  0.0  0.108455  8e-05  0.098224  0.101378  3.6e-05  1.041598  0.0
H  H49  1  0.80394965  0.05022766  0.93033434  1  0.091423  5e-05  0.966943  0.0  0.102336  1.1e-05  1.040462  0.0  0.103694  -1e-06  1.038742  0.0  0.108498  7.9e-05  0.098235  0.101387  3.5e-05  1.041587  0.0
H  H50  1  0.08848125  0.23673250  0.85870964  1  0.099227  -9e-06  0.931628  0.0  0.114556  -5e-06  0.997271  0.0  0.115656  -6e-06  0.995979  0.0  0.082627  2.8e-05  0.102218  0.113865  1.5e-05  0.998053  0.0
H  H51  1  0.41151758  0.73673142  0.14129041  1  0.099236  1e-06  0.931625  0.0  0.114559  -5e-06  0.997262  0.0  0.11566  -6e-06  0.995969  0.0  0.082621  2.8e-05  0.102221  0.113867  1.6e-05  0.998042  0.0
H  H52  1  0.91151759  0.76326772  0.14128992  1  0.099234  -1e-06  0.931621  0.0  0.114557  -5e-06  0.99727  0.0  0.115657  -6e-06  0.995977  0.0  0.08271  2.8e-05  0.102211  0.113864  1.5e-05  0.998055  0.0
H  H53  1  0.58848126  0.26326721  0.85870839  1  0.099226  -4e-06  0.931611  0.0  0.11455  -5e-06  0.997264  0.0  0.11565  -6e-06  0.995972  0.0  0.08263  2.8e-05  0.102231  0.113868  1.5e-05  0.998039  0.0
H  H54  1  0.90576576  0.31078954  0.83136586  1  0.102086  4.7e-05  0.971525  0.0  0.112157  8e-06  1.047616  0.0  0.114139  1e-06  1.04497  0.0  0.139418  4.9e-05  0.097016  0.11066  3.2e-05  1.049699  0.0
H  H55  1  0.59423309  0.81078766  0.16863245  1  0.102109  5.7e-05  0.97156  0.0  0.112092  8e-06  1.047731  0.0  0.114073  1e-06  1.045083  0.0  0.139451  4.9e-05  0.096981  0.110585  3.2e-05  1.049818  0.0
H  H56  1  0.09423426  0.68921148  0.16863240  1  0.10208  5.3e-05  0.971551  0.0  0.112122  7e-06  1.047672  0.0  0.114105  1e-06  1.045021  0.0  0.139447  4.9e-05  0.097015  0.110626  3.2e-05  1.049751  0.0
H  H57  1  0.40576457  0.18921176  0.83136689  1  0.101997  5.2e-05  0.971596  0.0  0.112057  8e-06  1.047704  0.0  0.114039  1e-06  1.045057  0.0  0.139448  4.9e-05  0.096997  0.110566  3.2e-05  1.04978  0.0
H  H58  1  0.90354073  0.16828557  0.81286077  1  0.087863  -1.3e-05  0.934998  0.0  0.105048  -6e-06  1.000514  0.0  0.10512  -5e-06  1.000948  0.0  0.053182  1.1e-05  0.099058  0.104973  -4e-06  1.000313  0.0
H  H59  1  0.59646048  0.66828448  0.18713949  1  0.087855  -4e-06  0.934943  0.0  0.105024  -6e-06  1.000469  0.0  0.105095  -6e-06  1.000902  0.0  0.053171  1.1e-05  0.09905  0.104951  -4e-06  1.000269  0.0
H  H60  1  0.09645811  0.83171386  0.18713728  1  0.087871  -7e-06  0.934975  0.0  0.105054  -6e-06  1.000493  0.0  0.105125  -5e-06  1.000926  0.0  0.053198  1.1e-05  0.099067  0.104977  -4e-06  1.000297  0.0
H  H61  1  0.40353836  0.33171574  0.81285931  1  0.087868  -8e-06  0.934947  0.0  0.105049  -6e-06  1.000466  0.0  0.10512  -6e-06  1.000901  0.0  0.053155  1e-05  0.099072  0.104989  -4e-06  1.000258  0.0
C  C62  1  0.40645437  0.96242800  0.32862506  1  -0.054893  -0.01184  3.688173  -0.007  -0.07833  -0.005028  3.926737  -0.003  -0.074749  -0.005617  3.945338  -0.003  -0.004618  -0.004002  -0.064855  -0.080748  -0.00453  3.914154  -0.003
C  C63  1  0.09354564  0.46242829  0.67137597  1  -0.055079  -0.011676  3.688141  -0.007  -0.078501  -0.005027  3.926739  -0.003  -0.074921  -0.00562  3.945337  -0.003  -0.00459  -0.004  -0.0649  -0.08092  -0.004528  3.91415  -0.003
C  C64  1  0.59354565  0.03757142  0.67137548  1  -0.054938  -0.011835  3.688162  -0.007  -0.078384  -0.005025  3.926736  -0.003  -0.074805  -0.005619  3.945337  -0.003  -0.00459  -0.004001  -0.064865  -0.080801  -0.004529  3.914151  -0.003
C  C65  1  0.90645320  0.53757113  0.32862435  1  -0.054877  -0.011831  3.688138  -0.007  -0.078317  -0.005028  3.926722  -0.003  -0.074737  -0.005619  3.945318  -0.003  -0.00458  -0.004  -0.06482  -0.080732  -0.004528  3.914127  -0.003
C  C66  1  0.31398999  0.05453337  0.31383241  1  -0.118542  0.008099  3.748863  0.009  -0.125223  0.003641  3.992054  0.004  -0.132686  0.003371  4.013882  0.004  -0.036771  0.00559  -0.083081  -0.120164  0.003771  3.977269  0.004
C  C67  1  0.18601120  0.55453308  0.68616883  1  -0.118449  0.00799  3.748753  0.009  -0.125125  0.003641  3.991937  0.004  -0.132586  0.003374  4.013766  0.004  -0.036765  0.005591  -0.083073  -0.120062  0.003772  3.977141  0.004
C  C68  1  0.68601120  0.94546606  0.68616834  1  -0.118547  0.008092  3.748832  0.009  -0.125221  0.00364  3.992022  0.004  -0.132683  0.003373  4.013851  0.004  -0.03677  0.00559  -0.083079  -0.12016  0.003771  3.977229  0.004
C  C69  1  0.81398882  0.44546555  0.31383246  1  -0.118554  0.008097  3.748842  0.009  -0.125231  0.003641  3.992033  0.004  -0.132692  0.003373  4.013859  0.004  -0.036769  0.005591  -0.08308  -0.120168  0.003772  3.977243  0.004
C  C70  1  0.19830841  0.06459358  0.36644038  1  0.116117  -0.009127  3.692879  -0.006  0.084299  -0.002497  3.947007  -0.001  0.093326  -0.004156  3.965031  -0.003  0.457073  -0.000938  0.043333  0.078833  -0.001309  3.934753  0.0
C  C71  1  0.30169277  0.56459329  0.63356086  1  0.116054  -0.00899  3.692898  -0.006  0.084261  -0.002497  3.947039  -0.001  0.093279  -0.00416  3.965059  -0.003  0.457056  -0.000936  0.043301  0.078798  -0.001307  3.934784  0.0
C  C72  1  0.80169160  0.93540505  0.63356016  1  0.116149  -0.00915  3.692925  -0.006  0.084326  -0.002494  3.947066  -0.001  0.093352  -0.004159  3.965089  -0.003  0.457098  -0.000938  0.043334  0.078863  -0.001309  3.934806  0.0
C  C73  1  0.69830724  0.43540693  0.36644043  1  0.116113  -0.009159  3.692903  -0.006  0.084317  -0.002495  3.947038  -0.001  0.093341  -0.004159  3.965057  -0.003  0.457057  -0.000935  0.043312  0.078853  -0.001307  3.93479  0.0
C  C74  1  0.38267118  0.88320922  0.39711320  1  0.014723  0.008247  3.721615  0.009  0.040178  0.003714  3.955447  0.005  0.033951  0.003411  3.979397  0.004  -0.035248  0.005797  -0.005684  0.043487  0.003907  3.939945  0.005
C  C75  1  0.11733001  0.38321031  0.60288728  1  0.01475  0.00815  3.721599  0.009  0.040137  0.003713  3.955458  0.005  0.03391  0.003416  3.979407  0.004  -0.035286  0.005798  -0.005723  0.043449  0.003908  3.939961  0.005
C  C76  1  0.61732884  0.11678941  0.60288733  1  0.0147  0.008238  3.721707  0.009  0.040155  0.003711  3.955525  0.005  0.033928  0.003414  3.979475  0.004  -0.03531  0.005797  -0.005701  0.04346  0.003907  3.940028  0.005
C  C77  1  0.88267001  0.61678832  0.39711325  1  0.014681  0.008249  3.721688  0.009  0.040094  0.003713  3.955532  0.005  0.033869  0.003414  3.979477  0.004  -0.035302  0.005798  -0.005739  0.043411  0.003908  3.940031  0.005
C  C78  1  0.26528692  0.90022063  0.44749725  1  0.082556  -0.009773  3.666755  -0.006  0.046076  -0.002877  3.916516  -0.002  0.054597  -0.004473  3.934799  -0.003  0.482193  -0.001275  0.046366  0.040718  -0.001636  3.9052  -0.001
C  C79  1  0.23471308  0.40022172  0.55250226  1  0.082527  -0.009642  3.666697  -0.006  0.046079  -0.002875  3.91649  -0.002  0.054589  -0.004478  3.934774  -0.003  0.482198  -0.001272  0.046358  0.040718  -0.001632  3.905186  -0.001
C  C80  1  0.73471191  0.09977879  0.55250307  1  0.082569  -0.009754  3.666771  -0.006  0.046083  -0.002877  3.916536  -0.002  0.054601  -0.004474  3.934818  -0.003  0.482195  -0.001275  0.046349  0.040721  -0.001636  3.905228  -0.001
C  C81  1  0.76528693  0.59977851  0.44749751  1  0.082575  -0.009785  3.666692  -0.006  0.04613  -0.002877  3.916441  -0.002  0.054632  -0.004475  3.934748  -0.003  0.48219  -0.001273  0.046397  0.040772  -0.001633  3.905132  -0.001
C  C82  1  0.48133545  0.78278661  0.41947960  1  0.112672  0.000617  3.687257  0.0  0.054407  0.000492  3.949656  0.0  0.063011  0.000315  3.955207  0.0  0.473129  0.000843  -0.069346  0.048945  0.000626  3.945958  0.001
C  C83  1  0.01866574  0.28278849  0.58052164  1  0.112591  0.000634  3.687354  0.0  0.054478  0.000493  3.949574  0.0  0.06308  0.000312  3.955131  0.0  0.473064  0.000843  -0.069336  0.049012  0.000627  3.945878  0.001
C  C84  1  0.51866692  0.21721282  0.58052137  1  0.112607  0.000619  3.687428  0.0  0.054397  0.000494  3.949752  0.0  0.063  0.000313  3.955309  0.0  0.473062  0.000843  -0.069353  0.048937  0.000626  3.946056  0.001
C  C85  1  0.98133428  0.71721014  0.41947814  1  0.11261  0.000618  3.687414  0.0  0.054477  0.000494  3.949633  0.0  0.063081  0.000313  3.955184  0.0  0.473151  0.000843  -0.069304  0.049003  0.000627  3.945946  0.001
C  C86  1  0.12033563  0.32092874  0.22487321  1  -0.002364  -0.000944  3.80252  -0.001  -0.029781  0.00011  4.057634  0.0  -0.020311  -6.3e-05  4.073608  0.0  -0.041715  0.000378  -0.079296  -0.03549  0.000203  4.04613  0.0
C  C87  1  0.37965966  0.82092765  0.77512770  1  -0.002403  -0.000928  3.802622  -0.001  -0.029785  0.000112  4.057731  0.0  -0.020317  -6.3e-05  4.073709  0.0  -0.041559  0.000375  -0.07932  -0.035495  0.0002  4.046222  0.0
C  C88  1  0.87966439  0.67907069  0.77512732  1  -0.002378  -0.000999  3.802565  -0.001  -0.029813  0.000112  4.057676  0.0  -0.020343  -6.7e-05  4.073649  0.0  -0.041649  0.000378  -0.079316  -0.03552  0.000202  4.046168  0.0
C  C89  1  0.62033682  0.17907177  0.22487218  1  -0.002375  -0.000956  3.802559  -0.001  -0.029781  0.000112  4.057676  0.0  -0.020314  -6.6e-05  4.073654  0.0  -0.041559  0.000382  -0.079327  -0.035486  0.000206  4.046162  0.0
C  C90  1  0.03480222  0.25388193  0.14633973  1  -0.279911  4e-06  3.753644  0.0  -0.303923  -0.000391  4.02329  0.0  -0.316236  -0.000286  4.04149  0.0  -0.015423  -1.5e-05  -0.120329  -0.295953  -8.5e-05  4.011453  0.0
C  C91  1  0.46520014  0.75388005  0.85366022  1  -0.279959  -1.9e-05  3.753706  0.0  -0.303985  -0.000389  4.02336  0.0  -0.316297  -0.000288  4.041563  0.0  -0.015001  -1e-05  -0.120375  -0.296045  -8e-05  4.011512  0.0
C  C92  1  0.96519779  0.74611909  0.85366005  1  -0.279926  6.5e-05  3.753737  0.0  -0.303969  -0.000394  4.023389  0.0  -0.316281  -0.000282  4.041592  0.0  -0.014959  -1.5e-05  -0.120354  -0.295995  -8.5e-05  4.011536  0.0
C  C93  1  0.53480223  0.24612177  0.14633924  1  -0.279899  2.1e-05  3.753637  0.0  -0.303923  -0.00039  4.023291  0.0  -0.316235  -0.000285  4.041494  0.0  -0.014955  -1.2e-05  -0.120271  -0.295947  -8.2e-05  4.011431  0.0
C  C94  1  0.19680501  0.41192778  0.20153487  1  -0.256098  0.011746  3.760616  0.012  -0.243744  0.005687  4.016199  0.006  -0.260452  0.003882  4.0349  0.005  0.010468  0.010039  -0.044117  -0.232806  0.007178  4.003489  0.008
C  C95  1  0.30319499  0.91192590  0.79846615  1  -0.256085  0.011719  3.760644  0.012  -0.243768  0.005683  4.016319  0.006  -0.260477  0.003882  4.035017  0.005  0.010348  0.010044  -0.044137  -0.232863  0.007182  4.003617  0.008
C  C96  1  0.80319500  0.58807404  0.79846490  1  -0.256116  0.011761  3.760817  0.012  -0.243717  0.005684  4.016355  0.006  -0.260426  0.003884  4.035053  0.005  0.010307  0.010038  -0.044137  -0.232782  0.007177  4.003642  0.008
C  C97  1  0.69680502  0.08807353  0.20153363  1  -0.256133  0.011739  3.760602  0.012  -0.243769  0.005684  4.016236  0.006  -0.260479  0.003885  4.034936  0.005  0.010403  0.010041  -0.044109  -0.232824  0.00718  4.003532  0.008
C  C98  1  0.03285193  0.27994993  0.04258498  1  0.466879  0.000771  3.834391  0.001  0.436391  0.000216  4.107821  0.0  0.459808  2e-05  4.11399  0.0  1.081625  0.000847  0.21735  0.420703  0.000615  4.10314  0.001
C  C99  1  0.46714690  0.77994645  0.95741507  1  0.466799  0.000813  3.834478  0.001  0.436297  0.000216  4.107918  0.0  0.459713  2.1e-05  4.11409  0.0  1.081132  0.000847  0.217291  0.420602  0.000615  4.103226  0.001
C  C100  1  0.96714691  0.72005269  0.95741458  1  0.466726  0.000758  3.834624  0.001  0.436266  0.000219  4.107999  0.0  0.459681  1.9e-05  4.114171  0.0  1.081127  0.000847  0.217284  0.42058  0.000615  4.103309  0.001
C  C101  1  0.53285312  0.22005377  0.04258471  1  0.466767  0.000776  3.834466  0.001  0.436283  0.000214  4.107881  0.0  0.459697  2e-05  4.114053  0.0  1.081141  0.000851  0.217292  0.420592  0.000618  4.103201  0.001
C  C102  1  0.18587559  0.42923199  0.09405561  1  0.445342  0.001482  3.811705  0.002  0.406844  0.00102  4.091357  0.001  0.430446  0.000575  4.097855  0.001  1.118271  0.002644  0.219891  0.390957  0.001628  4.086819  0.002
C  C103  1  0.31412206  0.92923010  0.90594423  1  0.445303  0.001534  3.81156  0.002  0.406808  0.001021  4.091304  0.001  0.43041  0.000577  4.0978  0.001  1.117547  0.002644  0.219829  0.390916  0.001628  4.086762  0.002
C  C104  1  0.81412560  0.57076904  0.90594288  1  0.445327  0.001476  3.811729  0.002  0.406792  0.001022  4.091391  0.001  0.430394  0.000573  4.097889  0.001  1.117766  0.002644  0.219876  0.39091  0.001628  4.086846  0.002
C  C105  1  0.68587678  0.07076932  0.09405382  1  0.445268  0.001508  3.81162  0.002  0.406755  0.00102  4.091391  0.001  0.430359  0.000575  4.097886  0.001  1.117575  0.002648  0.219809  0.390867  0.001632  4.086859  0.002
C  C106  1  0.28597370  0.48221923  0.28891885  1  0.66834  -0.006493  3.895565  -0.007  0.619565  -0.001356  4.205173  -0.002  0.659226  -0.001759  4.195133  -0.002  1.530266  -0.000651  0.207358  0.592761  -0.000859  4.211138  -0.002
C  C107  1  0.21402631  0.98221974  0.71108066  1  0.668348  -0.006481  3.895557  -0.007  0.619568  -0.001357  4.205194  -0.002  0.659238  -0.001758  4.195142  -0.002  1.530297  -0.000653  0.207361  0.592772  -0.000862  4.211143  -0.002
C  C108  1  0.71402985  0.51778259  0.71108385  1  0.668298  -0.006494  3.895653  -0.007  0.61953  -0.001356  4.205236  -0.002  0.659198  -0.001758  4.195188  -0.002  1.530223  -0.000651  0.207329  0.592728  -0.000859  4.211199  -0.002
C  C109  1  0.78597371  0.01778049  0.28891836  1  0.668313  -0.006478  3.89581  -0.007  0.619518  -0.001356  4.205442  -0.002  0.659187  -0.001759  4.195393  -0.002  1.530282  -0.00065  0.207364  0.592714  -0.000857  4.21141  -0.002
C  C110  1  0.25735369  0.52180349  0.95786111  1  -0.072934  -0.000151  3.609846  0.0  -0.171135  -3.2e-05  3.877303  0.0  -0.163154  -2.8e-05  3.879846  0.0  0.3158  3.4e-05  -0.147961  -0.176298  1e-05  3.874902  0.0
C  C111  1  0.24264396  0.02180298  0.04213872  1  -0.072873  -0.000112  3.609746  0.0  -0.170996  -3e-05  3.877213  0.0  -0.163013  -2.8e-05  3.879756  0.0  0.31579  3.4e-05  -0.147936  -0.176163  1e-05  3.874815  0.0
C  C112  1  0.74264633  0.47819753  0.04213716  1  -0.073027  -0.000113  3.609918  0.0  -0.171192  -2.7e-05  3.877381  0.0  -0.16321  -2.8e-05  3.879925  0.0  0.315845  3.4e-05  -0.147994  -0.176357  1.1e-05  3.874989  0.0
C  C113  1  0.75735488  0.97819565  0.95786159  1  -0.072947  -7.3e-05  3.609952  0.0  -0.171092  -2.7e-05  3.877429  0.0  -0.163106  -2.9e-05  3.879972  0.0  0.315963  3.6e-05  -0.147982  -0.176263  1.3e-05  3.875005  0.0
C  C114  1  0.96476269  0.23522068  0.86017800  1  -0.076939  -2e-05  3.594463  0.0  -0.178338  -1.7e-05  3.867586  0.0  -0.170124  -1.3e-05  3.868146  0.0  0.300967  6.5e-05  -0.1449  -0.183721  5.7e-05  3.866986  0.0
C  C115  1  0.53523733  0.73522039  0.13982128  1  -0.076962  -8.3e-05  3.59451  0.0  -0.178272  -1.7e-05  3.867647  0.0  -0.170056  -1.2e-05  3.868206  0.0  0.300955  6.5e-05  -0.144891  -0.18366  5.7e-05  3.867048  0.0
C  C116  1  0.03523615  0.76477875  0.13982005  1  -0.076941  -6.1e-05  3.594459  0.0  -0.17831  -1.5e-05  3.867579  0.0  -0.170095  -1.4e-05  3.868138  0.0  0.300878  6.5e-05  -0.14489  -0.183697  5.7e-05  3.866985  0.0
C  C117  1  0.46476268  0.26478063  0.86017698  1  -0.076852  -5.2e-05  3.594341  0.0  -0.178232  -1.7e-05  3.867471  0.0  -0.170018  -1.3e-05  3.868032  0.0  0.300966  6.7e-05  -0.14489  -0.183624  5.8e-05  3.866852  0.0
N  N118  1  0.17459243  0.98808833  0.43180054  1  -0.286645  0.071192  3.356763  0.092  -0.23338  0.050908  3.647268  0.07  -0.263028  0.042178  3.669203  0.062  -1.210392  0.082944  -0.35056  -0.2162  0.055448  3.634281  0.072
N  N119  1  0.32540875  0.48808941  0.56819994  1  -0.28657  0.071122  3.356761  0.091  -0.233371  0.050905  3.647317  0.07  -0.263005  0.042178  3.669245  0.062  -1.210395  0.08295  -0.350529  -0.216195  0.055451  3.634336  0.072
N  N120  1  0.82540640  0.01191030  0.56819902  1  -0.286648  0.071197  3.356762  0.092  -0.233373  0.050907  3.64726  0.07  -0.263019  0.042179  3.669197  0.062  -1.210403  0.082946  -0.350515  -0.216193  0.055449  3.634274  0.072
N  N121  1  0.67459126  0.51191081  0.43180135  1  -0.286677  0.071206  3.356721  0.092  -0.233473  0.050906  3.647278  0.07  -0.263113  0.042178  3.669207  0.062  -1.210415  0.082949  -0.350584  -0.216294  0.055451  3.634294  0.072
N  N122  1  0.10627089  0.36455942  0.01757911  1  -0.497846  0.001795  3.076219  0.002  -0.459989  0.000892  3.348579  0.001  -0.478893  0.000483  3.357612  0.001  -1.242082  0.002225  -0.335848  -0.447284  0.001314  3.342277  0.001
N  N123  1  0.39372558  0.86455594  0.98242050  1  -0.497794  0.001744  3.076153  0.002  -0.459868  0.000896  3.348477  0.001  -0.478773  0.000479  3.357513  0.001  -1.241805  0.002224  -0.335801  -0.447169  0.001313  3.342172  0.001
N  N124  1  0.89372795  0.63544240  0.98241894  1  -0.497765  0.001794  3.0763  0.002  -0.459884  0.000893  3.348618  0.001  -0.478787  0.000482  3.357651  0.001  -1.242021  0.002225  -0.335766  -0.447181  0.001314  3.342312  0.001
N  N125  1  0.60627325  0.13544348  0.01757754  1  -0.497761  0.001776  3.076119  0.002  -0.459842  0.000896  3.348457  0.001  -0.478745  0.000481  3.357489  0.001  -1.241832  0.002224  -0.335788  -0.447125  0.001313  3.342152  0.001
O  O126  1  0.39993846  0.69521888  0.44822020  1  -0.583476  -0.000818  2.11054  0.001  -0.54287  -0.00125  2.360605  0.0  -0.561423  -0.001593  2.344095  0.0  -1.164106  -0.000552  -0.417955  -0.529974  -0.000787  2.370507  0.0
O  O127  1  0.10006509  0.19522077  0.55178299  1  -0.583476  -0.000819  2.110508  0.001  -0.54289  -0.00125  2.360519  0.0  -0.561428  -0.001595  2.343981  0.0  -1.163995  -0.000551  -0.417932  -0.529993  -0.000786  2.37043  0.0
O  O128  1  0.60006628  0.30477895  0.55178120  1  -0.583468  -0.000818  2.110527  0.001  -0.542869  -0.00125  2.360584  0.0  -0.561413  -0.001594  2.344054  0.0  -1.164019  -0.000551  -0.417932  -0.529974  -0.000786  2.370503  0.0
O  O129  1  0.89993493  0.80477866  0.44821906  1  -0.583503  -0.000818  2.110535  0.001  -0.542909  -0.00125  2.360519  0.0  -0.56145  -0.001596  2.343988  0.0  -1.163981  -0.000552  -0.41794  -0.530006  -0.000787  2.370481  0.0
O  O130  1  0.36463746  0.43065366  0.37125693  1  -0.609416  0.090403  2.089703  0.124  -0.582713  0.059432  2.376773  0.089  -0.62708  0.044858  2.36975  0.073  -1.126354  0.107407  -0.326583  -0.552944  0.068894  2.381115  0.098
O  O131  1  0.13536255  0.93065417  0.62874258  1  -0.609454  0.090396  2.089702  0.124  -0.582735  0.059433  2.376781  0.089  -0.627095  0.044859  2.36975  0.073  -1.126374  0.107408  -0.326616  -0.552975  0.068894  2.381119  0.098
O  O132  1  0.63536374  0.56934736  0.62874382  1  -0.609401  0.090405  2.089725  0.124  -0.582694  0.059434  2.376778  0.089  -0.627064  0.04486  2.369753  0.073  -1.126322  0.107414  -0.326564  -0.552921  0.068898  2.381116  0.098
O  O133  1  0.86463511  0.06934526  0.37125601  1  -0.609434  0.090397  2.089842  0.124  -0.582708  0.059433  2.376911  0.089  -0.627068  0.044857  2.369881  0.073  -1.126343  0.107393  -0.32661  -0.552938  0.068885  2.381254  0.098
O  O134  1  0.27675993  0.58233309  0.27978407  1  -0.598749  -0.001367  1.986369  0.0  -0.553395  -0.000904  2.216586  0.0  -0.578572  -0.001588  2.205623  -0.001  -1.141862  0.000719  -0.306595  -0.536363  -0.000375  2.22335  0.001
O  O135  1  0.22324008  0.08233258  0.72021468  1  -0.598725  -0.001373  1.986431  0.0  -0.553349  -0.000903  2.216654  0.0  -0.578531  -0.00159  2.205685  -0.001  -1.141847  0.00072  -0.30658  -0.536333  -0.000374  2.223415  0.001
O  O136  1  0.72324363  0.41766873  0.72021787  1  -0.598733  -0.001363  1.98629  0.0  -0.553406  -0.000905  2.216531  0.0  -0.578587  -0.001588  2.205564  -0.001  -1.141807  0.000718  -0.306596  -0.536379  -0.000376  2.223303  0.001
O  O137  1  0.77675993  0.91766684  0.27978661  1  -0.598743  -0.001371  1.986435  0.0  -0.553344  -0.000904  2.216646  0.0  -0.578525  -0.001587  2.20568  0.0  -1.141838  0.00072  -0.306573  -0.536302  -0.000374  2.223412  0.001
O  O138  1  0.26525627  0.51187411  0.06794145  1  -0.253648  0.000848  2.299555  0.001  -0.177427  0.000245  2.537152  0.0  -0.196401  9.5e-05  2.537088  0.0  -1.073283  0.00106  -0.172387  -0.163945  0.000628  2.536449  0.001
O  O139  1  0.23473667  0.01187201  0.93205827  1  -0.253608  0.000843  2.299384  0.001  -0.177532  0.000242  2.537111  0.0  -0.1965  9.6e-05  2.537033  0.0  -1.072833  0.001061  -0.172408  -0.164072  0.000629  2.536413  0.001
O  O140  1  0.73474257  0.48812771  0.93205811  1  -0.253599  0.000842  2.299567  0.001  -0.177381  0.000242  2.537175  0.0  -0.196345  9.5e-05  2.537091  0.0  -1.072789  0.001059  -0.172364  -0.163898  0.000628  2.536465  0.001
O  O141  1  0.76526099  0.98812822  0.06794107  1  -0.253499  0.000838  2.299544  0.001  -0.177425  0.000241  2.537273  0.0  -0.196396  9.6e-05  2.537198  0.0  -1.0728  0.001062  -0.172312  -0.16393  0.00063  2.536559  0.001
O  O142  1  0.95483908  0.21333553  0.96554927  1  -0.269226  0.000636  2.318435  0.001  -0.191097  9.9e-05  2.557226  0.0  -0.210819  -5e-06  2.557497  0.0  -1.078798  0.00072  -0.173306  -0.177244  0.00044  2.556332  0.001
O  O143  1  0.54515977  0.71333205  0.03445056  1  -0.269157  0.000643  2.318538  0.001  -0.191022  9.8e-05  2.557301  0.0  -0.210742  -4e-06  2.557571  0.0  -1.078872  0.000723  -0.173263  -0.17719  0.000442  2.556406  0.001
O  O144  1  0.04516094  0.78666629  0.03445051  1  -0.269137  0.000638  2.318533  0.001  -0.191019  9.7e-05  2.557306  0.0  -0.210739  -4e-06  2.557575  0.0  -1.078853  0.00072  -0.173272  -0.177165  0.00044  2.556408  0.001
O  O145  1  0.45484143  0.28666737  0.96554944  1  -0.269178  0.00064  2.318439  0.001  -0.191054  9.8e-05  2.55723  0.0  -0.210774  -4e-06  2.557497  0.0  -1.078824  0.000724  -0.173257  -0.17719  0.000443  2.556324  0.001
