# generated using pymatgen
data_RbH8C8Br(N2O3)2
_symmetry_space_group_name_H-M   'P 1'
_cell_length_a   7.23474154
_cell_length_b   8.10956835
_cell_length_c   21.88500000
_cell_angle_alpha   90.00000000
_cell_angle_beta   90.00000000
_cell_angle_gamma   90.00000000
_symmetry_Int_Tables_number   1
_chemical_formula_structural   RbH8C8Br(N2O3)2
_chemical_formula_sum   'Rb4 H32 C32 Br4 N16 O24'
_cell_volume   1284.00675986
_cell_formula_units_Z   4
loop_
 _symmetry_equiv_pos_site_id
 _symmetry_equiv_pos_as_xyz
  1  'x, y, z'
loop_
 _atom_site_type_symbol
 _atom_site_label
 _atom_site_symmetry_multiplicity
 _atom_site_fract_x
 _atom_site_fract_y
 _atom_site_fract_z
 _atom_site_occupancy
 _atom_site_hle17_bader_spin_density
 _atom_site_hle17_ddec_charge
 _atom_site_hle17_ddec_spin_density
 _atom_site_hle17_ddec_sum_bond_order
 _atom_site_hle17_magmom
 _atom_site_hse06_10hf_bader_spin_density
 _atom_site_hse06_10hf_ddec_charge
 _atom_site_hse06_10hf_ddec_spin_density
 _atom_site_hse06_10hf_ddec_sum_bond_order
 _atom_site_hse06_10hf_magmom
 _atom_site_hse06_bader_spin_density
 _atom_site_hse06_ddec_charge
 _atom_site_hse06_ddec_spin_density
 _atom_site_hse06_ddec_sum_bond_order
 _atom_site_hse06_magmom
 _atom_site_pbe_bader_spin_density
 _atom_site_pbe_cm5_charge
 _atom_site_pbe_ddec_charge
 _atom_site_pbe_ddec_spin_density
 _atom_site_pbe_ddec_sum_bond_order
 _atom_site_pbe_magmom
Rb  Rb0  1  0.60449844  0.56530999  0.75000000  1  0  0.902273  0  0.477916  0  0  0.843057  0  0.697071  0  0  0.857173  0  0.675635  0  0  0.622413  0.832646  0  0.712281  0
Rb  Rb1  1  0.10449855  0.93468970  0.25000000  1  0  0.902268  0  0.477908  0  0  0.843046  0  0.69707  0  0  0.857168  0  0.675626  0  0  0.622423  0.832639  0  0.712283  0
Rb  Rb2  1  0.89550262  0.06530927  0.75000046  1  0  0.902279  0  0.477903  0  0  0.843061  0  0.697054  0  0  0.857172  0  0.675625  0  0  0.622413  0.832655  0  0.712266  0
Rb  Rb3  1  0.39550134  0.43468898  0.25000000  1  0  0.902275  0  0.477899  0  0  0.843047  0  0.697074  0  0  0.857177  0  0.675615  0  0  0.622421  0.832638  0  0.712285  0
H  H4  1  0.77076700  0.54425585  0.57163811  1  0  0.177957  0  0.903021  0  0  0.18782  0  0.959879  0  0  0.192753  0  0.956335  0  0  0.126773  0.184341  0  0.962504  0
H  H5  1  0.27076848  0.95574261  0.42836189  1  0  0.177969  0  0.903019  0  0  0.187833  0  0.959872  0  0  0.192766  0  0.956328  0  0  0.126774  0.184353  0  0.962497  0
H  H6  1  0.72922992  0.04425636  0.92836189  1  0  0.178018  0  0.903035  0  0  0.18787  0  0.959879  0  0  0.192803  0  0.956335  0  0  0.126787  0.184386  0  0.962509  0
H  H7  1  0.22923141  0.45574312  0.07163811  1  0  0.177953  0  0.903037  0  0  0.187813  0  0.959895  0  0  0.192746  0  0.956351  0  0  0.126772  0.184337  0  0.962519  0
H  H8  1  0.22923279  0.45574312  0.42836143  1  0  0.177975  0  0.903031  0  0  0.187829  0  0.959875  0  0  0.192762  0  0.95633  0  0  0.126766  0.18435  0  0.962501  0
H  H9  1  0.72923130  0.04425636  0.57163811  1  0  0.177972  0  0.903055  0  0  0.187827  0  0.959909  0  0  0.192761  0  0.956364  0  0  0.126774  0.184346  0  0.962535  0
H  H10  1  0.27076987  0.95574384  0.07163857  1  0  0.177963  0  0.903039  0  0  0.187828  0  0.959898  0  0  0.192761  0  0.956352  0  0  0.126757  0.184344  0  0.962527  0
H  H11  1  0.77076976  0.54425708  0.92836189  1  0  0.177964  0  0.903043  0  0  0.187828  0  0.959898  0  0  0.19276  0  0.956356  0  0  0.126769  0.184352  0  0.962523  0
H  H12  1  0.86542691  0.68939181  0.62221567  1  0  0.181529  0  0.903666  0  0  0.192574  0  0.962921  0  0  0.197244  0  0.960068  0  0  0.135878  0.18932  0  0.964997  0
H  H13  1  0.36542701  0.81060911  0.37778478  1  0  0.181496  0  0.903734  0  0  0.192523  0  0.963006  0  0  0.197188  0  0.960155  0  0  0.135865  0.189267  0  0.965082  0
H  H14  1  0.63457416  0.18939109  0.87778524  1  0  0.181547  0  0.903693  0  0  0.192567  0  0.962953  0  0  0.197233  0  0.9601  0  0  0.135884  0.189309  0  0.965028  0
H  H15  1  0.13457288  0.31060839  0.12221522  1  0  0.181485  0  0.903726  0  0  0.192546  0  0.962961  0  0  0.197214  0  0.960109  0  0  0.135873  0.189295  0  0.965037  0
H  H16  1  0.13457426  0.31060839  0.37778433  1  0  0.181513  0  0.903698  0  0  0.192522  0  0.962972  0  0  0.197188  0  0.960121  0  0  0.135866  0.189268  0  0.965049  0
H  H17  1  0.63457554  0.18939109  0.62221567  1  0  0.181506  0  0.90373  0  0  0.192514  0  0.963  0  0  0.197177  0  0.96015  0  0  0.135871  0.189259  0  0.965076  0
H  H18  1  0.36542425  0.81060911  0.12221476  1  0  0.181499  0  0.903697  0  0  0.192576  0  0.96292  0  0  0.197243  0  0.960067  0  0  0.135879  0.189317  0  0.964997  0
H  H19  1  0.86542553  0.68939058  0.87778524  1  0  0.181521  0  0.903715  0  0  0.192578  0  0.962959  0  0  0.197249  0  0.960104  0  0  0.135878  0.189328  0  0.965035  0
H  H20  1  0.31893883  0.66676175  0.53162029  1  0  0.348562  0  0.898934  0  0  0.322159  0  0.970174  0  0  0.332439  0  0.960727  0  0  0.316285  0.314942  0  0.97681  0
H  H21  1  0.81894011  0.83323794  0.46837971  1  0  0.34857  0  0.898902  0  0  0.322184  0  0.970137  0  0  0.332463  0  0.96069  0  0  0.316299  0.314966  0  0.976773  0
H  H22  1  0.18105968  0.16676227  0.96837926  1  0  0.348628  0  0.89883  0  0  0.322219  0  0.970076  0  0  0.3325  0  0.960625  0  0  0.316344  0.314998  0  0.976717  0
H  H23  1  0.68106096  0.33323845  0.03162029  1  0  0.348553  0  0.898953  0  0  0.322164  0  0.970187  0  0  0.332445  0  0.960737  0  0  0.31628  0.314949  0  0.97682  0
H  H24  1  0.68106234  0.33323845  0.46838017  1  0  0.348613  0  0.898857  0  0  0.322209  0  0.9701  0  0  0.332489  0  0.96065  0  0  0.316328  0.314991  0  0.976735  0
H  H25  1  0.18106245  0.16676227  0.53162029  1  0  0.348576  0  0.89892  0  0  0.322171  0  0.970163  0  0  0.332451  0  0.960715  0  0  0.316305  0.314952  0  0.976801  0
H  H26  1  0.81894011  0.83323794  0.03161937  1  0  0.348545  0  0.898922  0  0  0.32215  0  0.970176  0  0  0.332431  0  0.960727  0  0  0.316277  0.314931  0  0.976815  0
H  H27  1  0.31894159  0.66676298  0.96838063  1  0  0.348531  0  0.898939  0  0  0.322133  0  0.970194  0  0  0.332414  0  0.960746  0  0  0.316269  0.314917  0  0.976825  0
H  H28  1  0.20822720  0.35066971  0.67395705  1  0  0.312501  0  0.923448  0  0  0.287942  0  0.996735  0  0  0.29823  0  0.987898  0  0  0.283805  0.280635  0  1.003078  0
H  H29  1  0.70822848  0.14933101  0.32604249  1  0  0.312536  0  0.92336  0  0  0.287962  0  0.996698  0  0  0.29824  0  0.987881  0  0  0.28377  0.280651  0  1.003049  0
H  H30  1  0.29177131  0.85066920  0.82604204  1  0  0.312572  0  0.923329  0  0  0.287995  0  0.996654  0  0  0.298275  0  0.987833  0  0  0.283797  0.280683  0  1.003007  0
H  H31  1  0.79177120  0.64933049  0.17395751  1  0  0.312554  0  0.923349  0  0  0.287978  0  0.996686  0  0  0.298257  0  0.987866  0  0  0.283785  0.280667  0  1.003038  0
H  H32  1  0.79177258  0.64933049  0.32604249  1  0  0.312524  0  0.923393  0  0  0.287947  0  0.996723  0  0  0.298232  0  0.987899  0  0  0.283776  0.280635  0  1.003077  0
H  H33  1  0.29177131  0.85067166  0.67395796  1  0  0.312538  0  0.923363  0  0  0.287967  0  0.99669  0  0  0.298246  0  0.987872  0  0  0.28379  0.280655  0  1.003043  0
H  H34  1  0.70822848  0.14933101  0.17395796  1  0  0.312554  0  0.923317  0  0  0.287978  0  0.996667  0  0  0.298257  0  0.987849  0  0  0.283788  0.280665  0  1.00302  0
H  H35  1  0.20822859  0.35066848  0.82604204  1  0  0.312537  0  0.923369  0  0  0.28797  0  0.99669  0  0  0.298248  0  0.987873  0  0  0.283782  0.28066  0  1.003041  0
C  C36  1  0.28682573  0.50773972  0.60511857  1  0  0.765456  0  3.827241  0  0  0.695047  0  4.133618  0  0  0.730432  0  4.12884  0  0  0.346629  0.67104  0  4.136272  0
C  C37  1  0.78683391  0.99226120  0.39488097  1  0  0.765648  0  3.827192  0  0  0.695295  0  4.133515  0  0  0.730666  0  4.128746  0  0  0.346875  0.671293  0  4.136172  0
C  C38  1  0.21317970  0.00774394  0.89488188  1  0  0.76561  0  3.826849  0  0  0.695238  0  4.133173  0  0  0.730611  0  4.128412  0  0  0.346746  0.671235  0  4.135826  0
C  C39  1  0.71316991  0.49226048  0.10511857  1  0  0.765511  0  3.827183  0  0  0.695144  0  4.133532  0  0  0.730517  0  4.128765  0  0  0.346756  0.671136  0  4.136188  0
C  C40  1  0.71317959  0.49225801  0.39488234  1  0  0.765568  0  3.826925  0  0  0.695142  0  4.13335  0  0  0.730521  0  4.128582  0  0  0.346681  0.671136  0  4.136003  0
C  C41  1  0.21317417  0.00774271  0.60511812  1  0  0.765479  0  3.827135  0  0  0.695088  0  4.1335  0  0  0.730455  0  4.12874  0  0  0.34673  0.671083  0  4.136153  0
C  C42  1  0.78683115  0.99225996  0.10511857  1  0  0.765507  0  3.827126  0  0  0.695155  0  4.133474  0  0  0.730529  0  4.128707  0  0  0.346795  0.671154  0  4.13613  0
C  C43  1  0.28682849  0.50773972  0.89488143  1  0  0.76545  0  3.827239  0  0  0.695081  0  4.133596  0  0  0.730454  0  4.12883  0  0  0.346674  0.671068  0  4.136252  0
C  C44  1  0.96786733  0.44771557  0.63607402  1  0  0.678818  0  3.738349  0  0  0.635517  0  4.024176  0  0  0.666319  0  4.020937  0  0  0.261433  0.614503  0  4.026102  0
C  C45  1  0.46786606  0.05228515  0.36392598  1  0  0.678759  0  3.73837  0  0  0.635527  0  4.024098  0  0  0.666318  0  4.020867  0  0  0.261417  0.614511  0  4.026023  0
C  C46  1  0.53212682  0.94772245  0.86392918  1  0  0.678932  0  3.737852  0  0  0.63555  0  4.023793  0  0  0.66636  0  4.020533  0  0  0.261401  0.614533  0  4.025715  0
C  C47  1  0.03213245  0.55228464  0.13607402  1  0  0.678779  0  3.738349  0  0  0.635485  0  4.024165  0  0  0.666324  0  4.020863  0  0  0.261431  0.614469  0  4.026096  0
C  C48  1  0.03213522  0.55228217  0.36392643  1  0  0.678779  0  3.738249  0  0  0.635408  0  4.024157  0  0  0.666203  0  4.020926  0  0  0.261393  0.614398  0  4.026074  0
C  C49  1  0.53213511  0.94771752  0.63607402  1  0  0.678717  0  3.738366  0  0  0.635411  0  4.024186  0  0  0.666198  0  4.020961  0  0  0.261377  0.614401  0  4.0261  0
C  C50  1  0.46786329  0.05228392  0.13607357  1  0  0.678791  0  3.738222  0  0  0.635471  0  4.024091  0  0  0.66626  0  4.020865  0  0  0.261408  0.614503  0  4.025942  0
C  C51  1  0.96786319  0.44771433  0.86392552  1  0  0.678871  0  3.738373  0  0  0.635655  0  4.024079  0  0  0.666443  0  4.02085  0  0  0.261459  0.614658  0  4.025985  0
C  C52  1  0.90083522  0.58121343  0.59348275  1  0  -0.444004  0  3.636321  0  0  -0.481174  0  3.869994  0  0  -0.492309  0  3.872207  0  0  -0.149189  -0.473673  0  3.868667  0
C  C53  1  0.40083533  0.91878503  0.40651771  1  0  -0.443994  0  3.636372  0  0  -0.481157  0  3.869953  0  0  -0.492282  0  3.872159  0  0  -0.1492  -0.473654  0  3.868625  0
C  C54  1  0.59916722  0.08121517  0.90651771  1  0  -0.444197  0  3.636473  0  0  -0.481278  0  3.870078  0  0  -0.492405  0  3.87227  0  0  -0.149193  -0.473774  0  3.868753  0
C  C55  1  0.09916595  0.41878431  0.09348275  1  0  -0.443947  0  3.636281  0  0  -0.481121  0  3.869873  0  0  -0.492262  0  3.872065  0  0  -0.149209  -0.473623  0  3.868553  0
C  C56  1  0.09916595  0.41878431  0.40651771  1  0  -0.444044  0  3.636395  0  0  -0.481115  0  3.869975  0  0  -0.492238  0  3.872179  0  0  -0.149183  -0.473616  0  3.868649  0
C  C57  1  0.59916722  0.08121641  0.59348229  1  0  -0.444016  0  3.636429  0  0  -0.481126  0  3.870022  0  0  -0.492246  0  3.872224  0  0  -0.1492  -0.473627  0  3.868695  0
C  C58  1  0.40083256  0.91878380  0.09348275  1  0  -0.444045  0  3.636365  0  0  -0.481259  0  3.870008  0  0  -0.492382  0  3.872208  0  0  -0.149236  -0.473766  0  3.868666  0
C  C59  1  0.90083246  0.58121589  0.90651725  1  0  -0.444046  0  3.636325  0  0  -0.481286  0  3.869957  0  0  -0.492414  0  3.872165  0  0  -0.14923  -0.473794  0  3.868632  0
C  C60  1  0.03847822  0.64193552  0.54734521  1  0  0.671991  0  3.746752  0  0  0.620962  0  4.045036  0  0  0.651144  0  4.043341  0  0  0.260266  0.600537  0  4.045651  0
C  C61  1  0.53847673  0.85806293  0.45265524  1  0  0.672058  0  3.746853  0  0  0.621123  0  4.045014  0  0  0.651306  0  4.043315  0  0  0.260346  0.600699  0  4.045627  0
C  C62  1  0.46152305  0.14193234  0.95265250  1  0  0.672153  0  3.746418  0  0  0.621153  0  4.044613  0  0  0.651338  0  4.04292  0  0  0.260317  0.60073  0  4.045219  0
C  C63  1  0.96152295  0.35806098  0.04734384  1  0  0.672024  0  3.746957  0  0  0.621079  0  4.045137  0  0  0.651259  0  4.04344  0  0  0.260305  0.600652  0  4.045761  0
C  C64  1  0.96152433  0.35806468  0.45265387  1  0  0.671993  0  3.746633  0  0  0.621008  0  4.044818  0  0  0.651191  0  4.043127  0  0  0.260298  0.600584  0  4.045431  0
C  C65  1  0.46152443  0.14193604  0.54734567  1  0  0.672109  0  3.746661  0  0  0.621171  0  4.044785  0  0  0.651353  0  4.043089  0  0  0.260372  0.600746  0  4.045398  0
C  C66  1  0.53846982  0.85806170  0.04734521  1  0  0.67198  0  3.746862  0  0  0.621085  0  4.044969  0  0  0.651266  0  4.043277  0  0  0.260319  0.600662  0  4.045578  0
C  C67  1  0.03847269  0.64193922  0.95265570  1  0  0.67199  0  3.746954  0  0  0.621074  0  4.045082  0  0  0.651256  0  4.043387  0  0  0.260308  0.600649  0  4.045705  0
Br  Br68  1  0.35335609  0.21182385  0.75000000  1  0  -0.709372  0  0.7647  0  0  -0.66367  0  1.007389  0  0  -0.678628  0  0.989733  0  0  -0.347429  -0.6525  0  1.01967  0
Br  Br69  1  0.85335599  0.28817687  0.25000000  1  0  -0.709383  0  0.764677  0  0  -0.663664  0  1.007386  0  0  -0.678636  0  0.989752  0  0  -0.347429  -0.652489  0  1.019665  0
Br  Br70  1  0.14664380  0.71182334  0.75000000  1  0  -0.709365  0  0.764678  0  0  -0.663651  0  1.007384  0  0  -0.678625  0  0.989758  0  0  -0.347416  -0.652476  0  1.019665  0
Br  Br71  1  0.64664231  0.78817635  0.25000000  1  0  -0.709393  0  0.764704  0  0  -0.663653  0  1.007378  0  0  -0.678627  0  0.989744  0  0  -0.347426  -0.652482  0  1.01966  0
N  N72  1  0.22053449  0.60861069  0.55881883  1  0  -0.552947  0  3.243647  0  0  -0.49277  0  3.491886  0  0  -0.51983  0  3.493759  0  0  -0.390162  -0.474229  0  3.49007  0
N  N73  1  0.72053438  0.89138900  0.44118163  1  0  -0.55299  0  3.243559  0  0  -0.492932  0  3.491863  0  0  -0.519993  0  3.493739  0  0  -0.390225  -0.474389  0  3.490047  0
N  N74  1  0.27946679  0.10861244  0.94118163  1  0  -0.552939  0  3.243536  0  0  -0.492784  0  3.491753  0  0  -0.519839  0  3.493624  0  0  -0.390187  -0.474243  0  3.489941  0
N  N75  1  0.77946530  0.39138951  0.05881791  1  0  -0.552972  0  3.24356  0  0  -0.492903  0  3.491856  0  0  -0.519963  0  3.493728  0  0  -0.39023  -0.474364  0  3.490045  0
N  N76  1  0.77946668  0.39138828  0.44118163  1  0  -0.552988  0  3.243504  0  0  -0.492821  0  3.491746  0  0  -0.519878  0  3.493615  0  0  -0.390229  -0.474281  0  3.489933  0
N  N77  1  0.27946679  0.10861121  0.55881837  1  0  -0.552945  0  3.243547  0  0  -0.492821  0  3.491793  0  0  -0.519879  0  3.493668  0  0  -0.390205  -0.474281  0  3.489978  0
N  N78  1  0.72053023  0.89138900  0.05881791  1  0  -0.55284  0  3.243401  0  0  -0.492815  0  3.49172  0  0  -0.519876  0  3.493596  0  0  -0.390183  -0.474273  0  3.489906  0
N  N79  1  0.22053034  0.60861069  0.94118209  1  0  -0.552831  0  3.243422  0  0  -0.492765  0  3.491703  0  0  -0.519825  0  3.49358  0  0  -0.390172  -0.474224  0  3.489887  0
N  N80  1  0.15532414  0.42339122  0.63863560  1  0  -0.547409  0  3.290503  0  0  -0.485799  0  3.526564  0  0  -0.513308  0  3.529158  0  0  -0.392292  -0.466932  0  3.524424  0
N  N81  1  0.65532403  0.07660827  0.36136486  1  0  -0.547501  0  3.290433  0  0  -0.485937  0  3.526466  0  0  -0.513435  0  3.529066  0  0  -0.392332  -0.467065  0  3.524326  0
N  N82  1  0.34467714  0.92339193  0.86136486  1  0  -0.547466  0  3.290471  0  0  -0.485866  0  3.526558  0  0  -0.513366  0  3.52915  0  0  -0.39225  -0.466991  0  3.524414  0
N  N83  1  0.84467703  0.57660652  0.13863422  1  0  -0.547514  0  3.29066  0  0  -0.485927  0  3.526707  0  0  -0.513441  0  3.529292  0  0  -0.392325  -0.467052  0  3.52456  0
N  N84  1  0.84467703  0.57660775  0.36136486  1  0  -0.547339  0  3.290435  0  0  -0.485719  0  3.526527  0  0  -0.513224  0  3.529126  0  0  -0.392206  -0.466848  0  3.524383  0
N  N85  1  0.34467714  0.92339440  0.63863514  1  0  -0.547381  0  3.290449  0  0  -0.485798  0  3.526512  0  0  -0.513294  0  3.529119  0  0  -0.392285  -0.466923  0  3.524361  0
N  N86  1  0.65531989  0.07660704  0.13863468  1  0  -0.547406  0  3.290356  0  0  -0.48581  0  3.526401  0  0  -0.513307  0  3.529002  0  0  -0.392298  -0.466949  0  3.52424  0
N  N87  1  0.15532137  0.42339368  0.86136578  1  0  -0.547495  0  3.290538  0  0  -0.485939  0  3.526584  0  0  -0.513437  0  3.529187  0  0  -0.392321  -0.467074  0  3.524437  0
O  O88  1  0.45345918  0.49112108  0.61457345  1  0  -0.566127  0  1.873357  0  0  -0.530779  0  2.102181  0  0  -0.551188  0  2.094293  0  0  -0.301672  -0.516802  0  2.107339  0
O  O89  1  0.95345079  0.00887840  0.38542700  1  0  -0.566205  0  1.873475  0  0  -0.530858  0  2.102274  0  0  -0.55126  0  2.094387  0  0  -0.301802  -0.516885  0  2.107436  0
O  O90  1  0.04653380  0.99112057  0.88542518  1  0  -0.566295  0  1.873014  0  0  -0.530916  0  2.101782  0  0  -0.551324  0  2.093902  0  0  -0.301757  -0.51694  0  2.106941  0
O  O91  1  0.54654337  0.50887912  0.11457300  1  0  -0.56615  0  1.87334  0  0  -0.530766  0  2.102134  0  0  -0.55117  0  2.09425  0  0  -0.301706  -0.51679  0  2.107293  0
O  O92  1  0.54653646  0.50888035  0.38542655  1  0  -0.566273  0  1.872985  0  0  -0.530906  0  2.101853  0  0  -0.551317  0  2.09397  0  0  -0.301754  -0.516928  0  2.107012  0
O  O93  1  0.04654071  0.99112304  0.61457391  1  0  -0.566167  0  1.87326  0  0  -0.530785  0  2.102044  0  0  -0.551187  0  2.094163  0  0  -0.301708  -0.51681  0  2.107202  0
O  O94  1  0.95345770  0.00888087  0.11457345  1  0  -0.566179  0  1.873361  0  0  -0.530792  0  2.102155  0  0  -0.551197  0  2.09427  0  0  -0.301729  -0.516818  0  2.107315  0
O  O95  1  0.45345918  0.49111862  0.88542655  1  0  -0.566167  0  1.873403  0  0  -0.530784  0  2.102185  0  0  -0.551189  0  2.0943  0  0  -0.301685  -0.516807  0  2.107344  0
O  O96  1  0.86187460  0.36717984  0.66879918  1  0  -0.580593  0  1.917606  0  0  -0.546018  0  2.15154  0  0  -0.565809  0  2.143785  0  0  -0.355028  -0.532371  0  2.156683  0
O  O97  1  0.36187471  0.13281965  0.33120128  1  0  -0.580579  0  1.917666  0  0  -0.546016  0  2.151567  0  0  -0.565808  0  2.143816  0  0  -0.355035  -0.532373  0  2.156712  0
O  O98  1  0.63813199  0.86717562  0.83119808  1  0  -0.580739  0  1.917087  0  0  -0.546122  0  2.151055  0  0  -0.565922  0  2.143297  0  0  -0.355079  -0.532477  0  2.156198  0
O  O99  1  0.13812657  0.63282036  0.16879918  1  0  -0.580587  0  1.917643  0  0  -0.546016  0  2.151579  0  0  -0.565826  0  2.143805  0  0  -0.355011  -0.532368  0  2.156725  0
O  O100  1  0.13812657  0.63282160  0.33119991  1  0  -0.580607  0  1.917565  0  0  -0.545993  0  2.151514  0  0  -0.565783  0  2.143763  0  0  -0.355013  -0.532349  0  2.156656  0
O  O101  1  0.63812646  0.86717932  0.66879963  1  0  -0.580593  0  1.917633  0  0  -0.546003  0  2.151559  0  0  -0.565792  0  2.143812  0  0  -0.355016  -0.532362  0  2.156699  0
O  O102  1  0.36187471  0.13281965  0.16879963  1  0  -0.580599  0  1.917591  0  0  -0.546014  0  2.15155  0  0  -0.565805  0  2.143803  0  0  -0.355024  -0.532389  0  2.15667  0
O  O103  1  0.86187599  0.36718230  0.83120174  1  0  -0.580604  0  1.917812  0  0  -0.546053  0  2.151702  0  0  -0.56584  0  2.143951  0  0  -0.355011  -0.532411  0  2.156837  0
O  O104  1  0.99629544  0.72247495  0.50127073  1  0  -0.542152  0  1.929294  0  0  -0.495163  0  2.147482  0  0  -0.515367  0  2.139811  0  0  -0.280209  -0.481373  0  2.152492  0
O  O105  1  0.49629831  0.77752597  0.49872790  1  0  -0.542205  0  1.929461  0  0  -0.49524  0  2.147597  0  0  -0.515442  0  2.139923  0  0  -0.280263  -0.481452  0  2.152609  0
O  O106  1  0.50370424  0.22247793  0.99873018  1  0  -0.542278  0  1.928988  0  0  -0.495322  0  2.147171  0  0  -0.515534  0  2.139508  0  0  -0.280283  -0.48153  0  2.152174  0
O  O107  1  0.00370158  0.27752649  0.00127302  1  0  -0.542187  0  1.929646  0  0  -0.495217  0  2.147786  0  0  -0.515418  0  2.140113  0  0  -0.280226  -0.481425  0  2.152802  0
O  O108  1  0.00370573  0.27752525  0.49872881  1  0  -0.542146  0  1.92921  0  0  -0.495188  0  2.147372  0  0  -0.515392  0  2.139702  0  0  -0.280218  -0.481396  0  2.152381  0
O  O109  1  0.50370424  0.22247547  0.50127165  1  0  -0.542269  0  1.929297  0  0  -0.495323  0  2.147456  0  0  -0.515527  0  2.139785  0  0  -0.280296  -0.481533  0  2.152466  0
O  O110  1  0.49629693  0.77752474  0.00127210  1  0  -0.542175  0  1.929484  0  0  -0.495217  0  2.1476  0  0  -0.51542  0  2.139929  0  0  -0.28025  -0.48143  0  2.152609  0
O  O111  1  0.99629820  0.72247495  0.99872744  1  0  -0.542185  0  1.929634  0  0  -0.495209  0  2.147744  0  0  -0.515412  0  2.140072  0  0  -0.280237  -0.481421  0  2.152761  0
