# generated using pymatgen
data_ZnH12C17N2O5
_symmetry_space_group_name_H-M   'P 1'
_cell_length_a   9.84228279
_cell_length_b   11.29592358
_cell_length_c   15.61779946
_cell_angle_alpha   90.00010865
_cell_angle_beta   90.00072827
_cell_angle_gamma   116.53764094
_symmetry_Int_Tables_number   1
_chemical_formula_structural   ZnH12C17N2O5
_chemical_formula_sum   'Zn4 H48 C68 N8 O20'
_cell_volume   1553.41051660
_cell_formula_units_Z   4
loop_
 _symmetry_equiv_pos_site_id
 _symmetry_equiv_pos_as_xyz
  1  'x, y, z'
loop_
 _atom_site_type_symbol
 _atom_site_label
 _atom_site_symmetry_multiplicity
 _atom_site_fract_x
 _atom_site_fract_y
 _atom_site_fract_z
 _atom_site_occupancy
 _atom_site_hle17_bader_spin_density
 _atom_site_hle17_ddec_charge
 _atom_site_hle17_ddec_spin_density
 _atom_site_hle17_ddec_sum_bond_order
 _atom_site_hle17_magmom
 _atom_site_hse06_10hf_bader_spin_density
 _atom_site_hse06_10hf_ddec_charge
 _atom_site_hse06_10hf_ddec_spin_density
 _atom_site_hse06_10hf_ddec_sum_bond_order
 _atom_site_hse06_10hf_magmom
 _atom_site_hse06_bader_spin_density
 _atom_site_hse06_ddec_charge
 _atom_site_hse06_ddec_spin_density
 _atom_site_hse06_ddec_sum_bond_order
 _atom_site_hse06_magmom
 _atom_site_pbe_bader_spin_density
 _atom_site_pbe_cm5_charge
 _atom_site_pbe_ddec_charge
 _atom_site_pbe_ddec_spin_density
 _atom_site_pbe_ddec_sum_bond_order
 _atom_site_pbe_magmom
Zn  Zn0  1  0.74929847  0.72881186  0.32442185  1  0  1.048681  0  1.811066  0  0  0.857588  0  2.280672  0  0  0.905599  0  2.225621  0  0  0.69136  0.823861  0  2.31878  0
Zn  Zn1  1  0.24930168  0.22880566  0.17557584  1  0  1.048727  0  1.81125  0  0  0.857532  0  2.2809  0  0  0.905539  0  2.225854  0  0  0.691383  0.823806  0  2.319002  0
Zn  Zn2  1  0.25068958  0.27117738  0.67557909  1  0  1.048691  0  1.810918  0  0  0.857578  0  2.280606  0  0  0.905585  0  2.225558  0  0  0.691395  0.823861  0  2.318696  0
Zn  Zn3  1  0.75069380  0.77119646  0.82442318  1  0  1.048729  0  1.811175  0  0  0.857603  0  2.280823  0  0  0.905614  0  2.225773  0  0  0.691414  0.823913  0  2.318929  0
H  H4  1  0.43965467  0.74504999  0.29875693  1  0  0.104469  0  0.924219  0  0  0.114065  0  0.981048  0  0  0.117112  0  0.978299  0  0  0.126473  0.111637  0  0.983365  0
H  H5  1  0.93965917  0.24504471  0.20122889  1  0  0.104198  0  0.924177  0  0  0.113851  0  0.981026  0  0  0.116897  0  0.978276  0  0  0.126438  0.111439  0  0.983324  0
H  H6  1  0.56032777  0.25493819  0.70124081  1  0  0.104529  0  0.924165  0  0  0.11402  0  0.981113  0  0  0.117065  0  0.978365  0  0  0.126514  0.111604  0  0.98341  0
H  H7  1  0.06033539  0.75495151  0.79876053  1  0  0.104396  0  0.924289  0  0  0.113999  0  0.981138  0  0  0.117047  0  0.978386  0  0  0.126457  0.111588  0  0.983428  0
H  H8  1  0.24403656  0.75750842  0.39585817  1  0  0.10489  0  0.961811  0  0  0.116611  0  1.018535  0  0  0.119266  0  1.018201  0  0  0.11017  0.114474  0  1.019229  0
H  H9  1  0.74403216  0.25748508  0.10412543  1  0  0.104867  0  0.961712  0  0  0.116659  0  1.018337  0  0  0.119315  0  1.018004  0  0  0.110209  0.114557  0  1.019037  0
H  H10  1  0.75595847  0.24249075  0.60414790  1  0  0.104837  0  0.961772  0  0  0.116552  0  1.018516  0  0  0.119205  0  1.018184  0  0  0.110173  0.114445  0  1.019205  0
H  H11  1  0.25596358  0.74250329  0.89586399  1  0  0.104937  0  0.961746  0  0  0.116705  0  1.018395  0  0  0.11936  0  1.018062  0  0  0.110241  0.11461  0  1.019089  0
H  H12  1  0.26270438  0.72391199  0.55481083  1  0  0.097266  0  0.949343  0  0  0.109732  0  1.006409  0  0  0.112715  0  1.003831  0  0  0.110932  0.107628  0  1.00811  0
H  H13  1  0.76270014  0.22387527  0.94517739  1  0  0.097275  0  0.949425  0  0  0.109772  0  1.006451  0  0  0.112758  0  1.00387  0  0  0.110926  0.107677  0  1.00814  0
H  H14  1  0.73730470  0.27610113  0.44519075  1  0  0.097219  0  0.949435  0  0  0.109752  0  1.006436  0  0  0.112738  0  1.003856  0  0  0.11091  0.107657  0  1.008126  0
H  H15  1  0.23729807  0.77611805  0.05481587  1  0  0.097247  0  0.949476  0  0  0.109728  0  1.006518  0  0  0.112712  0  1.003941  0  0  0.11091  0.107643  0  1.008201  0
H  H16  1  0.46265016  0.66497759  0.60718646  1  0  0.116844  0  0.959769  0  0  0.126899  0  1.019766  0  0  0.130536  0  1.017889  0  0  0.11185  0.124134  0  1.021389  0
H  H17  1  0.96264658  0.16494022  0.89280907  1  0  0.117018  0  0.959779  0  0  0.126953  0  1.019891  0  0  0.130591  0  1.01801  0  0  0.111892  0.124213  0  1.0215  0
H  H18  1  0.53735377  0.33503742  0.39281768  1  0  0.116902  0  0.959801  0  0  0.1269  0  1.019855  0  0  0.130537  0  1.017979  0  0  0.111886  0.124172  0  1.021445  0
H  H19  1  0.03736015  0.83506206  0.10718547  1  0  0.116978  0  0.959707  0  0  0.12692  0  1.019846  0  0  0.130559  0  1.017963  0  0  0.111886  0.124216  0  1.021428  0
H  H20  1  0.37348113  0.39446631  0.36005571  1  0  0.125132  0  0.948749  0  0  0.131776  0  1.013008  0  0  0.135656  0  1.010584  0  0  0.113893  0.128985  0  1.014956  0
H  H21  1  0.87348627  0.89447423  0.13994705  1  0  0.125102  0  0.948621  0  0  0.131728  0  1.012912  0  0  0.135606  0  1.01049  0  0  0.113885  0.12894  0  1.014864  0
H  H22  1  0.62650730  0.60552982  0.63994587  1  0  0.125136  0  0.948616  0  0  0.131763  0  1.012897  0  0  0.135646  0  1.010467  0  0  0.113868  0.128966  0  1.014858  0
H  H23  1  0.12652096  0.10552904  0.86004877  1  0  0.125113  0  0.948628  0  0  0.131728  0  1.012916  0  0  0.135605  0  1.010495  0  0  0.113874  0.128941  0  1.014867  0
H  H24  1  0.15722684  0.43665799  0.32679793  1  0  0.114251  0  0.938189  0  0  0.121271  0  0.998607  0  0  0.125386  0  0.994495  0  0  0.113955  0.118313  0  1.001493  0
H  H25  1  0.65721368  0.93665233  0.17320569  1  0  0.114369  0  0.93823  0  0  0.121442  0  0.99857  0  0  0.125554  0  0.994463  0  0  0.114063  0.118501  0  1.001456  0
H  H26  1  0.84277425  0.56334519  0.67320941  1  0  0.114397  0  0.938178  0  0  0.121495  0  0.998489  0  0  0.125619  0  0.994363  0  0  0.114034  0.118459  0  1.001457  0
H  H27  1  0.34278850  0.06334694  0.82679718  1  0  0.114463  0  0.938286  0  0  0.121541  0  0.998598  0  0  0.125654  0  0.99449  0  0  0.114099  0.118585  0  1.001489  0
H  H28  1  0.96684220  0.40914176  0.44396049  1  0  0.093288  0  0.972671  0  0  0.105322  0  1.03042  0  0  0.107615  0  1.0307  0  0  0.105593  0.103655  0  1.030333  0
H  H29  1  0.46682893  0.90913306  0.05604050  1  0  0.093102  0  0.972792  0  0  0.105155  0  1.030532  0  0  0.107445  0  1.030811  0  0  0.105532  0.103494  0  1.030437  0
H  H30  1  0.03316980  0.59087926  0.55604558  1  0  0.093247  0  0.972669  0  0  0.105308  0  1.030375  0  0  0.107602  0  1.030654  0  0  0.105574  0.103641  0  1.030288  0
H  H31  1  0.53316863  0.09086713  0.94396173  1  0  0.093159  0  0.972795  0  0  0.105205  0  1.03054  0  0  0.107495  0  1.03082  0  0  0.105538  0.103539  0  1.030451  0
H  H32  1  0.01157629  0.33992080  0.59081782  1  0  0.079839  0  0.973104  0  0  0.08904  0  1.035942  0  0  0.091676  0  1.033503  0  0  0.113497  0.086801  0  1.038266  0
H  H33  1  0.51156516  0.83992403  0.90918131  1  0  0.07977  0  0.973134  0  0  0.089072  0  1.035893  0  0  0.091711  0  1.033452  0  0  0.113498  0.08683  0  1.038217  0
H  H34  1  0.98842817  0.66009324  0.40918888  1  0  0.079767  0  0.973092  0  0  0.089002  0  1.035898  0  0  0.091635  0  1.033464  0  0  0.113514  0.086758  0  1.038224  0
H  H35  1  0.48843391  0.16007716  0.09081899  1  0  0.079779  0  0.973206  0  0  0.089054  0  1.035981  0  0  0.091692  0  1.033542  0  0  0.113498  0.086813  0  1.038308  0
H  H36  1  0.80633861  0.47936504  0.11475665  1  0  0.088724  0  0.95389  0  0  0.100345  0  1.013057  0  0  0.103766  0  1.011083  0  0  0.100067  0.097491  0  1.01543  0
H  H37  1  0.30633988  0.97937641  0.38524248  1  0  0.088705  0  0.953875  0  0  0.10036  0  1.013004  0  0  0.103779  0  1.011032  0  0  0.100079  0.097508  0  1.015372  0
H  H38  1  0.19366426  0.52062539  0.88524813  1  0  0.088721  0  0.953922  0  0  0.100378  0  1.013042  0  0  0.103796  0  1.01107  0  0  0.100068  0.097529  0  1.015419  0
H  H39  1  0.69366378  0.02062582  0.61475142  1  0  0.088694  0  0.953907  0  0  0.100354  0  1.013034  0  0  0.103775  0  1.011059  0  0  0.100041  0.097499  0  1.015409  0
H  H40  1  0.83676100  0.45953126  0.95767897  1  0  0.091539  0  0.954633  0  0  0.103219  0  1.014698  0  0  0.106046  0  1.014068  0  0  0.099748  0.100538  0  1.016754  0
H  H41  1  0.33675748  0.95952842  0.54231978  1  0  0.091562  0  0.954628  0  0  0.103201  0  1.01474  0  0  0.106024  0  1.014121  0  0  0.09973  0.100523  0  1.016788  0
H  H42  1  0.16324490  0.54046118  0.04232325  1  0  0.091594  0  0.954639  0  0  0.103207  0  1.014774  0  0  0.106035  0  1.014139  0  0  0.099733  0.100527  0  1.016836  0
H  H43  1  0.66324417  0.04047183  0.45767668  1  0  0.091485  0  0.954661  0  0  0.103179  0  1.014717  0  0  0.106007  0  1.014081  0  0  0.099717  0.100501  0  1.016764  0
H  H44  1  0.95982369  0.18467741  0.73527984  1  0  0.426002  0  0.885866  0  0  0.391039  0  0.955726  0  0  0.402956  0  0.938584  0  0  0.283378  0.382719  0  0.967618  0
H  H45  1  0.45981225  0.68467628  0.76472146  1  0  0.426  0  0.885857  0  0  0.391042  0  0.955715  0  0  0.402961  0  0.938569  0  0  0.28339  0.382728  0  0.967599  0
H  H46  1  0.04018369  0.81531800  0.26472110  1  0  0.426034  0  0.885809  0  0  0.391078  0  0.955664  0  0  0.402996  0  0.938519  0  0  0.283402  0.382756  0  0.967558  0
H  H47  1  0.54017932  0.31531596  0.23528140  1  0  0.426078  0  0.885753  0  0  0.391102  0  0.95564  0  0  0.40302  0  0.938496  0  0  0.283397  0.382785  0  0.967525  0
H  H48  1  0.04455037  0.33977382  0.76425084  1  0  0.424802  0  0.821237  0  0  0.409794  0  0.871223  0  0  0.417717  0  0.862295  0  0  0.321291  0.404202  0  0.877568  0
H  H49  1  0.54453060  0.83977278  0.73574984  1  0  0.424877  0  0.821194  0  0  0.409861  0  0.871192  0  0  0.417786  0  0.862259  0  0  0.3213  0.404281  0  0.877521  0
H  H50  1  0.95545349  0.66021859  0.23575394  1  0  0.424806  0  0.821276  0  0  0.409818  0  0.871217  0  0  0.417737  0  0.862299  0  0  0.321285  0.404223  0  0.877566  0
H  H51  1  0.45545483  0.16021938  0.26424918  1  0  0.424839  0  0.821234  0  0  0.409826  0  0.871217  0  0  0.417748  0  0.862291  0  0  0.321282  0.404239  0  0.877557  0
C  C52  1  0.44354821  0.73276723  0.36777882  1  0  0.160353  0  3.663763  0  0  0.126434  0  3.916792  0  0  0.134355  0  3.932881  0  0  0.062772  0.120882  0  3.907239  0
C  C53  1  0.94354857  0.23274824  0.13221149  1  0  0.16079  0  3.663782  0  0  0.126662  0  3.916964  0  0  0.134583  0  3.933052  0  0  0.062713  0.121126  0  3.907377  0
C  C54  1  0.55644587  0.26722799  0.63222340  1  0  0.160483  0  3.664138  0  0  0.126633  0  3.917156  0  0  0.134556  0  3.93324  0  0  0.062809  0.121093  0  3.907586  0
C  C55  1  0.05644649  0.76724896  0.86778113  1  0  0.160619  0  3.663765  0  0  0.126609  0  3.916839  0  0  0.134532  0  3.932919  0  0  0.062828  0.121081  0  3.907236  0
C  C56  1  0.33418714  0.73778509  0.42222011  1  0  -0.119414  0  3.717701  0  0  -0.130258  0  3.967441  0  0  -0.13813  0  3.990231  0  0  -0.078744  -0.12617  0  3.953551  0
C  C57  1  0.83419228  0.23776155  0.07776676  1  0  -0.11931  0  3.717428  0  0  -0.130151  0  3.967157  0  0  -0.138026  0  3.989955  0  0  -0.078573  -0.126046  0  3.953271  0
C  C58  1  0.66580633  0.26221504  0.57778531  1  0  -0.119536  0  3.717918  0  0  -0.130365  0  3.967671  0  0  -0.138235  0  3.990464  0  0  -0.078815  -0.126265  0  3.953783  0
C  C59  1  0.16580695  0.76223178  0.92222714  1  0  -0.11946  0  3.717531  0  0  -0.130309  0  3.96725  0  0  -0.138183  0  3.990045  0  0  -0.078657  -0.126194  0  3.953351  0
C  C60  1  0.34318631  0.71668888  0.50968956  1  0  -0.007828  0  3.728046  0  0  -0.026888  0  3.977084  0  0  -0.023619  0  3.996409  0  0  -0.065015  -0.028456  0  3.963611  0
C  C61  1  0.84318830  0.21665675  0.99029483  1  0  -0.007997  0  3.728161  0  0  -0.027108  0  3.977191  0  0  -0.023844  0  3.996523  0  0  -0.065102  -0.028667  0  3.963714  0
C  C62  1  0.65681421  0.28331724  0.49031266  1  0  -0.007792  0  3.728025  0  0  -0.026898  0  3.977036  0  0  -0.023634  0  3.99637  0  0  -0.064946  -0.028448  0  3.96355  0
C  C63  1  0.15681138  0.78333954  0.00969843  1  0  -0.008007  0  3.728294  0  0  -0.027088  0  3.977318  0  0  -0.023824  0  3.996651  0  0  -0.065071  -0.028633  0  3.963838  0
C  C64  1  0.45738547  0.68681854  0.53974034  1  0  -0.137361  0  3.686839  0  0  -0.156172  0  3.93401  0  0  -0.163404  0  3.955308  0  0  -0.077564  -0.15086  0  3.919073  0
C  C65  1  0.95738500  0.18679287  0.96024943  1  0  -0.137469  0  3.686922  0  0  -0.156137  0  3.93402  0  0  -0.163368  0  3.955311  0  0  -0.077563  -0.150817  0  3.91907  0
C  C66  1  0.54261709  0.31318761  0.46026189  1  0  -0.137345  0  3.686735  0  0  -0.156099  0  3.933937  0  0  -0.16333  0  3.955235  0  0  -0.077553  -0.150787  0  3.918964  0
C  C67  1  0.04261919  0.81320839  0.03974639  1  0  -0.137294  0  3.686743  0  0  -0.156016  0  3.933883  0  0  -0.163244  0  3.955174  0  0  -0.077529  -0.150703  0  3.918911  0
C  C68  1  0.56413035  0.68463344  0.48141437  1  0  0.17865  0  3.779423  0  0  0.174002  0  4.020971  0  0  0.18023  0  4.043165  0  0  0.122411  0.170078  0  4.004864  0
C  C69  1  0.06412850  0.18461929  0.01858239  1  0  0.178596  0  3.77981  0  0  0.173942  0  4.021251  0  0  0.180173  0  4.043439  0  0  0.122377  0.17002  0  4.005141  0
C  C70  1  0.43586668  0.31536772  0.51859041  1  0  0.178669  0  3.779267  0  0  0.173997  0  4.020859  0  0  0.180226  0  4.043049  0  0  0.122475  0.170073  0  4.00475  0
C  C71  1  0.93587259  0.81538389  0.98141535  1  0  0.178455  0  3.779819  0  0  0.173894  0  4.021272  0  0  0.180122  0  4.043462  0  0  0.122419  0.169976  0  4.005163  0
C  C72  1  0.69188389  0.65705905  0.50682754  1  0  0.1642  0  3.758316  0  0  0.158357  0  4.001581  0  0  0.163828  0  4.023811  0  0  0.118217  0.155043  0  3.985702  0
C  C73  1  0.19189960  0.15705702  0.99317025  1  0  0.164064  0  3.757822  0  0  0.158158  0  4.001251  0  0  0.163628  0  4.023487  0  0  0.118123  0.154846  0  3.985367  0
C  C74  1  0.30811109  0.34294209  0.49317724  1  0  0.164175  0  3.758308  0  0  0.158321  0  4.001657  0  0  0.163794  0  4.023888  0  0  0.118191  0.155012  0  3.985767  0
C  C75  1  0.80810812  0.84294723  0.00682621  1  0  0.164181  0  3.75798  0  0  0.158139  0  4.001639  0  0  0.16361  0  4.023875  0  0  0.118137  0.154831  0  3.985752  0
C  C76  1  0.29203561  0.38187900  0.41049334  1  0  -0.104812  0  3.647924  0  0  -0.12912  0  3.90585  0  0  -0.134451  0  3.924414  0  0  -0.068861  -0.125864  0  3.893188  0
C  C77  1  0.79202274  0.88187522  0.08951259  1  0  -0.104628  0  3.647413  0  0  -0.128867  0  3.905435  0  0  -0.134196  0  3.924003  0  0  -0.06878  -0.12561  0  3.892768  0
C  C78  1  0.70795839  0.61812016  0.58951081  1  0  -0.10472  0  3.647779  0  0  -0.129004  0  3.905699  0  0  -0.134331  0  3.924261  0  0  -0.0688  -0.125762  0  3.89303  0
C  C79  1  0.20798195  0.11812703  0.91048259  1  0  -0.104567  0  3.647248  0  0  -0.128833  0  3.90521  0  0  -0.13416  0  3.923776  0  0  -0.06877  -0.125585  0  3.892556  0
C  C80  1  0.16830772  0.40565568  0.39145495  1  0  0.034701  0  3.662536  0  0  0.014296  0  3.914646  0  0  0.019386  0  3.929317  0  0  -0.053151  0.011534  0  3.904287  0
C  C81  1  0.66829387  0.90564919  0.10855192  1  0  0.03434  0  3.662662  0  0  0.013894  0  3.914786  0  0  0.018982  0  3.929459  0  0  -0.053344  0.011144  0  3.904418  0
C  C82  1  0.83168723  0.59434742  0.60855367  1  0  0.034379  0  3.662612  0  0  0.013876  0  3.914722  0  0  0.018963  0  3.929386  0  0  -0.05339  0.011151  0  3.904406  0
C  C83  1  0.33170983  0.09435108  0.89144711  1  0  0.034189  0  3.662797  0  0  0.013756  0  3.91489  0  0  0.018842  0  3.929562  0  0  -0.053423  0.010995  0  3.904539  0
C  C84  1  0.06435983  0.39049486  0.45595080  1  0  -0.124164  0  3.736474  0  0  -0.136712  0  3.988765  0  0  -0.144492  0  4.011991  0  0  -0.081051  -0.131434  0  3.972432  0
C  C85  1  0.56435228  0.89049747  0.04405392  1  0  -0.123784  0  3.736415  0  0  -0.136291  0  3.98873  0  0  -0.144066  0  4.011955  0  0  -0.080873  -0.13101  0  3.972392  0
C  C86  1  0.93564061  0.60951519  0.54405846  1  0  -0.124123  0  3.736347  0  0  -0.136672  0  3.98867  0  0  -0.144453  0  4.011896  0  0  -0.081025  -0.131405  0  3.972336  0
C  C87  1  0.43564623  0.10950666  0.95594510  1  0  -0.12387  0  3.736499  0  0  -0.136402  0  3.988808  0  0  -0.144178  0  4.012034  0  0  -0.080943  -0.131133  0  3.972491  0
C  C88  1  0.08754143  0.35251349  0.53728435  1  0  0.134131  0  3.711762  0  0  0.100926  0  3.964655  0  0  0.107145  0  3.98487  0  0  0.045968  0.097108  0  3.950665  0
C  C89  1  0.58753722  0.85252437  0.96271798  1  0  0.134218  0  3.71154  0  0  0.100883  0  3.964528  0  0  0.1071  0  3.984743  0  0  0.045972  0.097069  0  3.95053  0
C  C90  1  0.91245648  0.64749554  0.46272299  1  0  0.134248  0  3.711912  0  0  0.101004  0  3.964781  0  0  0.107225  0  3.984993  0  0  0.045936  0.097176  0  3.9508  0
C  C91  1  0.41246433  0.14748176  0.03728360  1  0  0.134216  0  3.711734  0  0  0.100888  0  3.964689  0  0  0.107105  0  3.984906  0  0  0.045978  0.097069  0  3.950704  0
C  C92  1  0.62254183  0.53842053  0.19651714  1  0  0.661068  0  3.909248  0  0  0.603538  0  4.212038  0  0  0.638421  0  4.20379  0  0  0.207899  0.579835  0  4.216873  0
C  C93  1  0.12253232  0.03842853  0.30348246  1  0  0.660996  0  3.909321  0  0  0.603358  0  4.212212  0  0  0.638238  0  4.203967  0  0  0.207846  0.579663  0  4.217035  0
C  C94  1  0.37746202  0.46157189  0.80348124  1  0  0.660904  0  3.909465  0  0  0.603321  0  4.212302  0  0  0.638204  0  4.204053  0  0  0.20783  0.57962  0  4.217129  0
C  C95  1  0.87746263  0.96157456  0.69651592  1  0  0.661006  0  3.909437  0  0  0.60339  0  4.21226  0  0  0.638271  0  4.204017  0  0  0.207919  0.579692  0  4.217087  0
C  C96  1  0.60364071  0.50275291  0.10273238  1  0  -0.086463  0  3.695521  0  0  -0.069723  0  3.936666  0  0  -0.074753  0  3.956243  0  0  -0.012657  -0.066627  0  3.92337  0
C  C97  1  0.10363834  0.00275925  0.39726254  1  0  -0.086363  0  3.695634  0  0  -0.069495  0  3.936619  0  0  -0.074534  0  3.956216  0  0  -0.012626  -0.0664  0  3.923303  0
C  C98  1  0.39636508  0.49724543  0.89727112  1  0  -0.08631  0  3.695516  0  0  -0.069558  0  3.936595  0  0  -0.074586  0  3.956171  0  0  -0.012548  -0.066455  0  3.923284  0
C  C99  1  0.89636321  0.99724689  0.60273200  1  0  -0.086471  0  3.695623  0  0  -0.069549  0  3.936568  0  0  -0.07459  0  3.956168  0  0  -0.012613  -0.066453  0  3.923259  0
C  C100  1  0.72201808  0.48162035  0.07035825  1  0  -0.095184  0  3.799195  0  0  -0.119896  0  4.057414  0  0  -0.120693  0  4.076962  0  0  -0.096475  -0.118991  0  4.044068  0
C  C101  1  0.22201602  0.98162733  0.42963956  1  0  -0.095277  0  3.799278  0  0  -0.120069  0  4.057517  0  0  -0.120863  0  4.077064  0  0  -0.096516  -0.119154  0  4.04414  0
C  C102  1  0.27799073  0.51837999  0.92964333  1  0  -0.095246  0  3.799392  0  0  -0.120005  0  4.057615  0  0  -0.120803  0  4.077163  0  0  -0.096557  -0.119107  0  4.044276  0
C  C103  1  0.77798753  0.01838080  0.57035370  1  0  -0.095281  0  3.799324  0  0  -0.120093  0  4.057545  0  0  -0.120887  0  4.077093  0  0  -0.096504  -0.119184  0  4.044189  0
C  C104  1  0.73927358  0.47033036  0.98226015  1  0  -0.080005  0  3.792981  0  0  -0.106456  0  4.052495  0  0  -0.107371  0  4.072921  0  0  -0.093825  -0.105491  0  4.038349  0
C  C105  1  0.23927191  0.97033018  0.51773718  1  0  -0.079977  0  3.79299  0  0  -0.106465  0  4.052465  0  0  -0.107383  0  4.072889  0  0  -0.093826  -0.105501  0  4.038318  0
C  C106  1  0.26073622  0.52967196  0.01773951  1  0  -0.08007  0  3.793091  0  0  -0.106476  0  4.052581  0  0  -0.10739  0  4.07301  0  0  -0.093874  -0.105516  0  4.038446  0
C  C107  1  0.76072660  0.02967395  0.48225928  1  0  -0.079796  0  3.792983  0  0  -0.106288  0  4.052464  0  0  -0.107202  0  4.07289  0  0  -0.093805  -0.105324  0  4.038314  0
C  C108  1  0.63827449  0.47945004  0.92429191  1  0  -0.093235  0  3.715596  0  0  -0.08016  0  3.961728  0  0  -0.084837  0  3.98069  0  0  -0.015391  -0.077303  0  3.948834  0
C  C109  1  0.13828012  0.97944381  0.57571101  1  0  -0.093546  0  3.715606  0  0  -0.080165  0  3.961477  0  0  -0.084845  0  3.980441  0  0  -0.015334  -0.077316  0  3.948571  0
C  C110  1  0.36173330  0.52055029  0.07570775  1  0  -0.093423  0  3.715449  0  0  -0.080254  0  3.961563  0  0  -0.084937  0  3.980533  0  0  -0.015387  -0.077397  0  3.948666  0
C  C111  1  0.86171608  0.02054751  0.42428865  1  0  -0.093573  0  3.715589  0  0  -0.080332  0  3.961645  0  0  -0.085014  0  3.980613  0  0  -0.015374  -0.077476  0  3.948729  0
C  C112  1  0.68417838  0.48703023  0.83155048  1  0  0.657676  0  3.928142  0  0  0.603501  0  4.235352  0  0  0.637384  0  4.227117  0  0  0.200042  0.580409  0  4.240282  0
C  C113  1  0.18417694  0.98701426  0.66845026  1  0  0.658111  0  3.928061  0  0  0.603826  0  4.235387  0  0  0.63771  0  4.227147  0  0  0.200178  0.580733  0  4.240326  0
C  C114  1  0.31582328  0.51297002  0.16845878  1  0  0.657796  0  3.9278  0  0  0.603501  0  4.235158  0  0  0.637387  0  4.226932  0  0  0.200068  0.580404  0  4.240099  0
C  C115  1  0.81582384  0.01297811  0.33154236  1  0  0.657869  0  3.928042  0  0  0.603569  0  4.235397  0  0  0.637453  0  4.227166  0  0  0.20002  0.580477  0  4.240325  0
C  C116  1  0.50881286  0.49375093  0.95424375  1  0  0.036879  0  3.673626  0  0  0.036481  0  3.910602  0  0  0.037896  0  3.932929  0  0  0.000622  0.035833  0  3.89528  0
C  C117  1  0.00881151  0.99374619  0.54576261  1  0  0.037195  0  3.672984  0  0  0.036551  0  3.910081  0  0  0.037967  0  3.932415  0  0  0.000654  0.035913  0  3.894748  0
C  C118  1  0.49119698  0.50624943  0.04575847  1  0  0.037101  0  3.67349  0  0  0.036573  0  3.910565  0  0  0.037989  0  3.932892  0  0  0.000649  0.035925  0  3.895248  0
C  C119  1  0.99118718  0.00624811  0.45423513  1  0  0.037056  0  3.673109  0  0  0.036518  0  3.910205  0  0  0.037933  0  3.932539  0  0  0.000607  0.035876  0  3.894875  0
N  N120  1  0.55673955  0.70914684  0.39745631  1  0  -0.364591  0  3.281202  0  0  -0.293016  0  3.550455  0  0  -0.311423  0  3.566269  0  0  -0.320031  -0.281209  0  3.540139  0
N  N121  1  0.05674049  0.20913084  0.10253658  1  0  -0.36481  0  3.281911  0  0  -0.293076  0  3.551112  0  0  -0.311482  0  3.566926  0  0  -0.319956  -0.281247  0  3.540757  0
N  N122  1  0.44325604  0.29084939  0.60254528  1  0  -0.3647  0  3.281228  0  0  -0.293095  0  3.550446  0  0  -0.3115  0  3.566259  0  0  -0.320071  -0.281271  0  3.540098  0
N  N123  1  0.94325552  0.79087030  0.89745860  1  0  -0.364714  0  3.281712  0  0  -0.293027  0  3.550867  0  0  -0.311431  0  3.566683  0  0  -0.32001  -0.281196  0  3.540505  0
N  N124  1  0.79363076  0.67102199  0.44439280  1  0  -0.364401  0  3.290562  0  0  -0.287802  0  3.563486  0  0  -0.307573  0  3.580403  0  0  -0.321463  -0.274103  0  3.551774  0
N  N125  1  0.29363902  0.17101238  0.05561542  1  0  -0.364289  0  3.290151  0  0  -0.287677  0  3.56318  0  0  -0.307445  0  3.580092  0  0  -0.321396  -0.273966  0  3.551454  0
N  N126  1  0.20636623  0.32898114  0.55561263  1  0  -0.364355  0  3.290408  0  0  -0.287767  0  3.563338  0  0  -0.307539  0  3.580257  0  0  -0.321477  -0.274055  0  3.551606  0
N  N127  1  0.70636354  0.82899377  0.94438616  1  0  -0.364403  0  3.289973  0  0  -0.287818  0  3.563137  0  0  -0.307583  0  3.580043  0  0  -0.321487  -0.274108  0  3.551418  0
O  O128  1  0.63625812  0.65341513  0.21484956  1  0  -0.61185  0  2.070902  0  0  -0.536576  0  2.335112  0  0  -0.566223  0  2.324801  0  0  -0.307658  -0.515795  0  2.341548  0
O  O129  1  0.13624464  0.15341794  0.28514454  1  0  -0.61184  0  2.070954  0  0  -0.536428  0  2.335046  0  0  -0.56607  0  2.324736  0  0  -0.307662  -0.515677  0  2.341485  0
O  O130  1  0.36375081  0.34657932  0.78514818  1  0  -0.611783  0  2.070977  0  0  -0.53641  0  2.33508  0  0  -0.566052  0  2.324769  0  0  -0.307643  -0.515663  0  2.341517  0
O  O131  1  0.86374167  0.84658209  0.71485128  1  0  -0.611802  0  2.070998  0  0  -0.536431  0  2.335146  0  0  -0.566071  0  2.324837  0  0  -0.307655  -0.515667  0  2.341577  0
O  O132  1  0.64547083  0.46427547  0.24985633  1  0  -0.645872  0  1.947887  0  0  -0.592631  0  2.171197  0  0  -0.616521  0  2.158475  0  0  -0.332634  -0.575619  0  2.179158  0
O  O133  1  0.14546489  0.96428799  0.25014403  1  0  -0.645861  0  1.947985  0  0  -0.592596  0  2.171307  0  0  -0.616494  0  2.158599  0  0  -0.332611  -0.575614  0  2.179293  0
O  O134  1  0.35453302  0.53571694  0.75014526  1  0  -0.645792  0  1.948133  0  0  -0.592545  0  2.171449  0  0  -0.616435  0  2.15873  0  0  -0.332594  -0.575548  0  2.17942  0
O  O135  1  0.85452994  0.03572100  0.74985371  1  0  -0.645858  0  1.947965  0  0  -0.592595  0  2.171274  0  0  -0.616493  0  2.158568  0  0  -0.332629  -0.575584  0  2.179247  0
O  O136  1  0.72995869  0.40800138  0.80332193  1  0  -0.605702  0  1.845276  0  0  -0.568752  0  2.055974  0  0  -0.590269  0  2.046904  0  0  -0.337452  -0.55313  0  2.061654  0
O  O137  1  0.22994087  0.90797178  0.69667204  1  0  -0.605897  0  1.845257  0  0  -0.568912  0  2.055993  0  0  -0.59044  0  2.046916  0  0  -0.337524  -0.553291  0  2.061683  0
O  O138  1  0.27005350  0.59200982  0.19667773  1  0  -0.605712  0  1.845209  0  0  -0.568742  0  2.055969  0  0  -0.590266  0  2.046893  0  0  -0.337478  -0.553118  0  2.061662  0
O  O139  1  0.77006502  0.09202066  0.30332186  1  0  -0.605811  0  1.845191  0  0  -0.568853  0  2.05597  0  0  -0.590378  0  2.046896  0  0  -0.337561  -0.553246  0  2.061668  0
O  O140  1  0.68001683  0.58318950  0.78762053  1  0  -0.672725  0  2.079085  0  0  -0.590115  0  2.348221  0  0  -0.620775  0  2.335093  0  0  -0.331181  -0.56862  0  2.35654  0
O  O141  1  0.18002909  0.08316325  0.71238156  1  0  -0.67276  0  2.079137  0  0  -0.590259  0  2.348404  0  0  -0.620847  0  2.335133  0  0  -0.331242  -0.568762  0  2.356767  0
O  O142  1  0.31997773  0.41680671  0.21238426  1  0  -0.672734  0  2.07925  0  0  -0.590016  0  2.348358  0  0  -0.620631  0  2.335145  0  0  -0.331119  -0.568497  0  2.356671  0
O  O143  1  0.81997283  0.91682324  0.28761618  1  0  -0.67267  0  2.079439  0  0  -0.590015  0  2.348531  0  0  -0.62061  0  2.33527  0  0  -0.331045  -0.568517  0  2.356876  0
O  O144  1  0.04281193  0.27737312  0.72103408  1  0  -0.829891  0  1.89415  0  0  -0.770041  0  2.099978  0  0  -0.790273  0  2.069106  0  0  -0.567117  -0.75571  0  2.121377  0
O  O145  1  0.54280293  0.77737769  0.77896651  1  0  -0.829969  0  1.894073  0  0  -0.770136  0  2.099885  0  0  -0.790367  0  2.069008  0  0  -0.56711  -0.755786  0  2.121252  0
O  O146  1  0.95719389  0.72262325  0.27896879  1  0  -0.829922  0  1.894096  0  0  -0.770096  0  2.099893  0  0  -0.790328  0  2.069018  0  0  -0.567111  -0.755745  0  2.121291  0
O  O147  1  0.45719213  0.22261951  0.22103379  1  0  -0.829979  0  1.894034  0  0  -0.77012  0  2.099865  0  0  -0.790352  0  2.068991  0  0  -0.567128  -0.7558  0  2.121258  0
