# generated using pymatgen
data_AgH4C7O2F
_symmetry_space_group_name_H-M   'P 1'
_cell_length_a   3.68380573
_cell_length_b   11.19814165
_cell_length_c   15.60043591
_cell_angle_alpha   101.08491598
_cell_angle_beta   89.99835594
_cell_angle_gamma   90.00145302
_symmetry_Int_Tables_number   1
_chemical_formula_structural   AgH4C7O2F
_chemical_formula_sum   'Ag4 H16 C28 O8 F4'
_cell_volume   631.53929351
_cell_formula_units_Z   4
loop_
 _symmetry_equiv_pos_site_id
 _symmetry_equiv_pos_as_xyz
  1  'x, y, z'
loop_
 _atom_site_type_symbol
 _atom_site_label
 _atom_site_symmetry_multiplicity
 _atom_site_fract_x
 _atom_site_fract_y
 _atom_site_fract_z
 _atom_site_occupancy
 _atom_site_hle17_bader_spin_density
 _atom_site_hle17_ddec_charge
 _atom_site_hle17_ddec_spin_density
 _atom_site_hle17_ddec_sum_bond_order
 _atom_site_hle17_magmom
 _atom_site_hse06_10hf_bader_spin_density
 _atom_site_hse06_10hf_ddec_charge
 _atom_site_hse06_10hf_ddec_spin_density
 _atom_site_hse06_10hf_ddec_sum_bond_order
 _atom_site_hse06_10hf_magmom
 _atom_site_hse06_bader_spin_density
 _atom_site_hse06_ddec_charge
 _atom_site_hse06_ddec_spin_density
 _atom_site_hse06_ddec_sum_bond_order
 _atom_site_hse06_magmom
 _atom_site_pbe_bader_spin_density
 _atom_site_pbe_cm5_charge
 _atom_site_pbe_ddec_charge
 _atom_site_pbe_ddec_spin_density
 _atom_site_pbe_ddec_sum_bond_order
 _atom_site_pbe_magmom
Ag  Ag0  1  0.08529774  0.12076360  0.03254543  1  0  0.612476  0  1.374276  0  0  0.494421  0  1.837862  0  0  0.531181  0  1.773099  0  0  0.415006  0.468484  0  1.88315  0
Ag  Ag1  1  0.41472126  0.62076682  0.03254216  1  0  0.612396  0  1.374279  0  0  0.494354  0  1.837829  0  0  0.531139  0  1.773017  0  0  0.415005  0.468429  0  1.883139  0
Ag  Ag2  1  0.91475359  0.87925413  0.96745640  1  0  0.612362  0  1.374343  0  0  0.494256  0  1.83801  0  0  0.531033  0  1.773222  0  0  0.414957  0.468317  0  1.88332  0
Ag  Ag3  1  0.58531650  0.37925638  0.96746100  1  0  0.612433  0  1.374319  0  0  0.494356  0  1.837974  0  0  0.531121  0  1.773194  0  0  0.415003  0.468429  0  1.883279  0
H  H4  1  0.30223533  0.22168281  0.20839855  1  0  0.106764  0  0.980479  0  0  0.115383  0  1.045115  0  0  0.118554  0  1.042554  0  0  0.101786  0.113114  0  1.04697  0
H  H5  1  0.19772717  0.72167938  0.20840426  1  0  0.106682  0  0.980607  0  0  0.115294  0  1.045266  0  0  0.118463  0  1.042671  0  0  0.101772  0.113027  0  1.04709  0
H  H6  1  0.69776984  0.77831844  0.79159739  1  0  0.106776  0  0.980457  0  0  0.115398  0  1.045118  0  0  0.11856  0  1.042566  0  0  0.101799  0.113131  0  1.046961  0
H  H7  1  0.80217757  0.27832313  0.79160466  1  0  0.106748  0  0.980473  0  0  0.115421  0  1.045039  0  0  0.118597  0  1.042468  0  0  0.10179  0.113154  0  1.046893  0
H  H8  1  0.15687281  0.19322463  0.35938775  1  0  0.126138  0  0.946102  0  0  0.134375  0  1.00875  0  0  0.137806  0  1.007149  0  0  0.108109  0.132144  0  1.009529  0
H  H9  1  0.34317260  0.69320466  0.35938271  1  0  0.126094  0  0.945983  0  0  0.134428  0  1.008361  0  0  0.137752  0  1.007078  0  0  0.108069  0.132087  0  1.009463  0
H  H10  1  0.84316222  0.80678216  0.64061209  1  0  0.126151  0  0.946064  0  0  0.134542  0  1.008421  0  0  0.137823  0  1.007125  0  0  0.108108  0.132159  0  1.009513  0
H  H11  1  0.65682986  0.30678224  0.64061913  1  0  0.126112  0  0.946082  0  0  0.134336  0  1.008766  0  0  0.137769  0  1.007163  0  0  0.108086  0.132108  0  1.009542  0
H  H12  1  0.65145876  0.54538816  0.41551605  1  0  0.125673  0  0.951368  0  0  0.126115  0  1.02578  0  0  0.131334  0  1.021156  0  0  0.102657  0.122799  0  1.028403  0
H  H13  1  0.84864010  0.04536442  0.41549958  1  0  0.125691  0  0.951448  0  0  0.126188  0  1.025686  0  0  0.131354  0  1.021223  0  0  0.1026  0.122829  0  1.028441  0
H  H14  1  0.34859528  0.45462500  0.58448458  1  0  0.12571  0  0.951368  0  0  0.126156  0  1.025845  0  0  0.131394  0  1.02117  0  0  0.102675  0.122883  0  1.028347  0
H  H15  1  0.15142751  0.95461318  0.58449340  1  0  0.125644  0  0.951365  0  0  0.126494  0  1.025073  0  0  0.131288  0  1.021202  0  0  0.102624  0.122772  0  1.028395  0
H  H16  1  0.80528004  0.57605260  0.26405370  1  0  0.098844  0  0.960728  0  0  0.110067  0  1.021479  0  0  0.112199  0  1.02102  0  0  0.103836  0.108527  0  1.021902  0
H  H17  1  0.69475786  0.07604347  0.26404588  1  0  0.098755  0  0.960681  0  0  0.109987  0  1.021426  0  0  0.112119  0  1.020971  0  0  0.103792  0.10845  0  1.021852  0
H  H18  1  0.19474143  0.42394685  0.73594265  1  0  0.098754  0  0.960728  0  0  0.109953  0  1.021495  0  0  0.112085  0  1.021055  0  0  0.103776  0.108417  0  1.021935  0
H  H19  1  0.30525003  0.92394422  0.73595158  1  0  0.098802  0  0.960754  0  0  0.110027  0  1.021514  0  0  0.112158  0  1.021032  0  0  0.103799  0.108487  0  1.021913  0
C  C20  1  0.17748784  0.42540800  0.13991237  1  0  0.648039  0  3.896513  0  0  0.594129  0  4.177646  0  0  0.630831  0  4.174267  0  0  0.204995  0.56908  0  4.179022  0
C  C21  1  0.32244995  0.92540906  0.13991907  1  0  0.648229  0  3.896368  0  0  0.59429  0  4.177525  0  0  0.630995  0  4.17414  0  0  0.205081  0.569259  0  4.17889  0
C  C22  1  0.82250105  0.57459498  0.86008058  1  0  0.648087  0  3.896248  0  0  0.594203  0  4.177368  0  0  0.630902  0  4.173993  0  0  0.205058  0.569171  0  4.178738  0
C  C23  1  0.67747922  0.07459337  0.86008727  1  0  0.647934  0  3.89666  0  0  0.593972  0  4.177893  0  0  0.630671  0  4.174511  0  0  0.204962  0.568956  0  4.179263  0
C  C24  1  0.06067317  0.40084318  0.22638091  1  0  -0.089073  0  3.759044  0  0  -0.063936  0  3.986173  0  0  -0.075771  0  4.012269  0  0  -0.026815  -0.056173  0  3.96869  0
C  C25  1  0.43926866  0.90084412  0.22638745  1  0  -0.08944  0  3.759184  0  0  -0.064314  0  3.986426  0  0  -0.076145  0  4.012426  0  0  -0.026874  -0.056553  0  3.968861  0
C  C26  1  0.93931843  0.59915702  0.77360977  1  0  -0.089263  0  3.75884  0  0  -0.064208  0  3.986135  0  0  -0.076031  0  4.012194  0  0  -0.026931  -0.056464  0  3.968671  0
C  C27  1  0.56064693  0.09915751  0.77362264  1  0  -0.088776  0  3.759109  0  0  -0.0637  0  3.986349  0  0  -0.075521  0  4.012389  0  0  -0.02678  -0.056004  0  3.968911  0
C  C28  1  0.15511858  0.29212758  0.25267577  1  0  -0.038149  0  3.717096  0  0  -0.0582  0  3.960021  0  0  -0.056458  0  3.981563  0  0  -0.080001  -0.059031  0  3.945339  0
C  C29  1  0.34483331  0.79212143  0.25267886  1  0  -0.037992  0  3.716612  0  0  -0.057962  0  3.959456  0  0  -0.056243  0  3.98099  0  0  -0.079978  -0.058805  0  3.944735  0
C  C30  1  0.84487303  0.70787911  0.74732020  1  0  -0.037971  0  3.716612  0  0  -0.05798  0  3.959531  0  0  -0.056254  0  3.981051  0  0  -0.079921  -0.058806  0  3.944814  0
C  C31  1  0.65507957  0.20787834  0.74732971  1  0  -0.038323  0  3.716944  0  0  -0.05838  0  3.959925  0  0  -0.056636  0  3.981404  0  0  -0.080001  -0.0592  0  3.945238  0
C  C32  1  0.07399027  0.27509618  0.33669576  1  0  -0.194238  0  3.745654  0  0  -0.218065  0  4.004757  0  0  -0.223998  0  4.02261  0  0  -0.101689  -0.213712  0  3.99167  0
C  C33  1  0.42603170  0.77508963  0.33669696  1  0  -0.193989  0  3.745516  0  0  -0.217345  0  4.00335  0  0  -0.223774  0  4.022436  0  0  -0.101535  -0.213481  0  3.991499  0
C  C34  1  0.92604205  0.72490418  0.66330071  1  0  -0.194421  0  3.74593  0  0  -0.218159  0  4.004871  0  0  -0.22418  0  4.022915  0  0  -0.101722  -0.213893  0  3.991994  0
C  C35  1  0.57395719  0.22490553  0.66330848  1  0  -0.194077  0  3.745546  0  0  -0.217918  0  4.004691  0  0  -0.223856  0  4.022517  0  0  -0.1017  -0.213566  0  3.991566  0
C  C36  1  0.89320313  0.36737732  0.39278075  1  0  0.330319  0  3.765559  0  0  0.311553  0  4.052447  0  0  0.325947  0  4.059748  0  0  0.101559  0.302761  0  4.046138  0
C  C37  1  0.60681241  0.86735478  0.39277316  1  0  0.330163  0  3.765656  0  0  0.312621  0  4.05088  0  0  0.325862  0  4.059751  0  0  0.10145  0.302665  0  4.046149  0
C  C38  1  0.10681562  0.63263667  0.60721677  1  0  0.330658  0  3.765412  0  0  0.311974  0  4.052166  0  0  0.326323  0  4.05957  0  0  0.101684  0.303122  0  4.045978  0
C  C39  1  0.39319277  0.13262932  0.60722577  1  0  0.33019  0  3.765689  0  0  0.31148  0  4.052461  0  0  0.325821  0  4.059857  0  0  0.10155  0.302633  0  4.046245  0
C  C40  1  0.79369216  0.47621007  0.36903359  1  0  -0.195566  0  3.761726  0  0  -0.224309  0  4.032994  0  0  -0.230096  0  4.050212  0  0  -0.102441  -0.219848  0  4.019862  0
C  C41  1  0.70635374  0.97620180  0.36902582  1  0  -0.195536  0  3.761379  0  0  -0.223949  0  4.031648  0  0  -0.230116  0  4.049829  0  0  -0.102339  -0.219889  0  4.019551  0
C  C42  1  0.20634559  0.52379485  0.63096409  1  0  -0.19566  0  3.761038  0  0  -0.224493  0  4.032385  0  0  -0.230259  0  4.049529  0  0  -0.102505  -0.22001  0  4.019217  0
C  C43  1  0.29366229  0.02378864  0.63097262  1  0  -0.195435  0  3.761475  0  0  -0.223901  0  4.03189  0  0  -0.23  0  4.049964  0  0  -0.102421  -0.219747  0  4.01962  0
C  C44  1  0.87936191  0.49214742  0.28516505  1  0  -0.030891  0  3.718998  0  0  -0.05207  0  3.963601  0  0  -0.049704  0  3.984846  0  0  -0.078898  -0.05344  0  3.949219  0
C  C45  1  0.62062466  0.99213965  0.28516370  1  0  -0.030753  0  3.719147  0  0  -0.051933  0  3.963736  0  0  -0.049571  0  3.984982  0  0  -0.078961  -0.053311  0  3.949356  0
C  C46  1  0.12063783  0.50785472  0.71483035  1  0  -0.030841  0  3.718773  0  0  -0.051953  0  3.963369  0  0  -0.049584  0  3.984632  0  0  -0.07889  -0.053322  0  3.949022  0
C  C47  1  0.37933708  0.00785371  0.71484216  1  0  -0.030996  0  3.719008  0  0  -0.052105  0  3.963595  0  0  -0.049764  0  3.984841  0  0  -0.078853  -0.053482  0  3.949239  0
O  O48  1  0.31210395  0.33722334  0.08369310  1  0  -0.649443  0  2.169768  0  0  -0.558547  0  2.462975  0  0  -0.594376  0  2.448881  0  0  -0.331858  -0.533561  0  2.471975  0
O  O49  1  0.18783091  0.83722622  0.08370030  1  0  -0.649422  0  2.169746  0  0  -0.558537  0  2.462992  0  0  -0.59437  0  2.4489  0  0  -0.331849  -0.533562  0  2.471998  0
O  O50  1  0.68790394  0.66278064  0.91630318  1  0  -0.649421  0  2.169755  0  0  -0.558509  0  2.462927  0  0  -0.594342  0  2.448842  0  0  -0.331826  -0.533517  0  2.471902  0
O  O51  1  0.81206840  0.16277814  0.91631013  1  0  -0.649452  0  2.169743  0  0  -0.558534  0  2.462966  0  0  -0.594365  0  2.448878  0  0  -0.331867  -0.533528  0  2.471892  0
O  O52  1  0.14543083  0.53474707  0.12894092  1  0  -0.630457  0  2.163495  0  0  -0.551161  0  2.445461  0  0  -0.58371  0  2.431812  0  0  -0.320246  -0.52848  0  2.454097  0
O  O53  1  0.35456992  0.03474556  0.12894065  1  0  -0.630555  0  2.163457  0  0  -0.551223  0  2.445414  0  0  -0.583771  0  2.431769  0  0  -0.320285  -0.528517  0  2.453962  0
O  O54  1  0.85456892  0.46525421  0.87105631  1  0  -0.630488  0  2.163322  0  0  -0.551196  0  2.445297  0  0  -0.583749  0  2.431658  0  0  -0.320306  -0.528512  0  2.453913  0
O  O55  1  0.64546512  0.96525024  0.87105525  1  0  -0.630393  0  2.163538  0  0  -0.551039  0  2.445524  0  0  -0.583587  0  2.431875  0  0  -0.32017  -0.528348  0  2.454106  0
F  F56  1  0.80874957  0.35044529  0.47492375  1  0  -0.220387  0  1.210424  0  0  -0.159647  0  1.370374  0  0  -0.173688  0  1.364899  0  0  -0.095997  -0.152643  0  1.377079  0
F  F57  1  0.69129827  0.85042963  0.47491452  1  0  -0.220359  0  1.21037  0  0  -0.163497  0  1.374508  0  0  -0.17371  0  1.364829  0  0  -0.095966  -0.152645  0  1.377  0
F  F58  1  0.19128818  0.64956157  0.52507866  1  0  -0.22045  0  1.210487  0  0  -0.159402  0  1.36997  0  0  -0.173799  0  1.36498  0  0  -0.09598  -0.15274  0  1.377169  0
F  F59  1  0.30875305  0.14955259  0.52508161  1  0  -0.220406  0  1.210533  0  0  -0.159596  0  1.370364  0  0  -0.173655  0  1.36494  0  0  -0.095984  -0.152606  0  1.37713  0
