# generated using pymatgen
data_SmH7(C3O4)2
_symmetry_space_group_name_H-M   'P 1'
_cell_length_a   9.57995246
_cell_length_b   14.60530630
_cell_length_c   14.72271780
_cell_angle_alpha   89.99999508
_cell_angle_beta   91.52794280
_cell_angle_gamma   90.00000602
_symmetry_Int_Tables_number   1
_chemical_formula_structural   SmH7(C3O4)2
_chemical_formula_sum   'Sm8 H56 C48 O64'
_cell_volume   2059.24284450
_cell_formula_units_Z   8
loop_
 _symmetry_equiv_pos_site_id
 _symmetry_equiv_pos_as_xyz
  1  'x, y, z'
loop_
 _atom_site_type_symbol
 _atom_site_label
 _atom_site_symmetry_multiplicity
 _atom_site_fract_x
 _atom_site_fract_y
 _atom_site_fract_z
 _atom_site_occupancy
 _atom_site_pbe_bader_charge
 _atom_site_pbe_bader_spin_density
 _atom_site_pbe_cm5_charge
 _atom_site_pbe_ddec_charge
 _atom_site_pbe_ddec_spin_density
 _atom_site_pbe_ddec_sum_bond_order
 _atom_site_pbe_magmom
Sm  Sm0  1  0.80468978  0.35257322  0.90617642  1  2.23532  0  1.49994  2.126456  0  2.081556  0
Sm  Sm1  1  0.69530882  0.85257370  0.59382442  1  2.235337  0  1.49994  2.12643  0  2.081576  0
Sm  Sm2  1  0.19530895  0.64742634  0.09382390  1  2.235325  0  1.499936  2.126429  0  2.081577  0
Sm  Sm3  1  0.30469096  0.14742655  0.40617592  1  2.235317  0  1.499962  2.12645  0  2.081564  0
Sm  Sm4  1  0.02145892  0.16595746  0.74508527  1  2.206568  0  1.480265  2.073787  0  2.083365  0
Sm  Sm5  1  0.47854239  0.66595794  0.75491356  1  2.206378  0  1.480274  2.073792  0  2.083341  0
Sm  Sm6  1  0.97854190  0.83404278  0.25491441  1  2.206497  0  1.480269  2.073818  0  2.083319  0
Sm  Sm7  1  0.52145843  0.33404230  0.24508612  1  2.206449  0  1.480267  2.073772  0  2.083397  0
H  H8  1  0.30830076  0.39293456  0.80466012  1  0.165015  0  0.119284  0.143906  0  1.011502  0
H  H9  1  0.19169850  0.89293503  0.69533866  1  0.165026  0  0.119276  0.143899  0  1.011528  0
H  H10  1  0.69169797  0.60706568  0.19533952  1  0.165013  0  0.119273  0.143883  0  1.01153  0
H  H11  1  0.80830023  0.10706453  0.30466099  1  0.165022  0  0.119265  0.14388  0  1.011526  0
H  H12  1  0.31021834  0.30105220  0.99463528  1  0.131726  0  0.121331  0.145408  0  0.97382  0
H  H13  1  0.18977985  0.80105337  0.50536348  1  0.131679  0  0.121347  0.145441  0  0.973793  0
H  H14  1  0.68978143  0.69894736  0.00536370  1  0.131685  0  0.121338  0.145416  0  0.973802  0
H  H15  1  0.81021887  0.19894688  0.49463548  1  0.131683  0  0.121331  0.145409  0  0.973827  0
H  H16  1  0.50321672  0.19876267  0.79397849  1  0.099394  0  0.120806  0.142623  0  0.987407  0
H  H17  1  0.99678497  0.69876522  0.70601901  1  0.099315  0  0.120777  0.142586  0  0.987476  0
H  H18  1  0.49678514  0.80123620  0.20601984  1  0.09934  0  0.120786  0.142595  0  0.98749  0
H  H19  1  0.00321793  0.30123708  0.29398069  1  0.099386  0  0.120805  0.1426  0  0.987493  0
H  H20  1  0.54749677  0.15525863  0.59142921  1  0.156502  0  0.118583  0.123506  0  1.038391  0
H  H21  1  0.95250387  0.65525773  0.90856761  1  0.156578  0  0.118583  0.123527  0  1.038354  0
H  H22  1  0.45250300  0.84474161  0.40856841  1  0.156588  0  0.118569  0.1235  0  1.038382  0
H  H23  1  0.04749695  0.34474183  0.09143207  1  0.156594  0  0.118575  0.1235  0  1.038401  0
H  H24  1  0.12994830  0.06178166  0.04284412  1  0.083121  0  0.114841  0.134147  0  0.976227  0
H  H25  1  0.37004951  0.56178349  0.45715568  1  0.083101  0  0.114869  0.134157  0  0.976208  0
H  H26  1  0.87005043  0.93821790  0.95715621  1  0.083117  0  0.114857  0.134159  0  0.976203  0
H  H27  1  0.62994713  0.43821676  0.54284393  1  0.083151  0  0.114859  0.134161  0  0.97625  0
H  H28  1  0.85803921  0.13442309  0.12470097  1  0.097833  0  0.113345  0.129074  0  0.993582  0
H  H29  1  0.64196004  0.63442354  0.37530023  1  0.097881  0  0.113339  0.129068  0  0.993576  0
H  H30  1  0.14196057  0.86557716  0.87529936  1  0.097837  0  0.113351  0.129079  0  0.993581  0
H  H31  1  0.35803660  0.36557739  0.62470074  1  0.097813  0  0.113344  0.129064  0  0.993546  0
H  H32  1  0.72086951  0.45884282  0.72562689  1  0.663661  0  0.300794  0.41631  0  0.910131  0
H  H33  1  0.77913015  0.95884260  0.77437328  1  0.663716  0  0.300784  0.416299  0  0.910155  0
H  H34  1  0.27913131  0.54115811  0.27437347  1  0.663673  0  0.30075  0.416226  0  0.910257  0
H  H35  1  0.22086858  0.04115764  0.22562636  1  0.663668  0  0.300767  0.416275  0  0.910192  0
H  H36  1  0.85099206  0.39322010  0.70406419  1  0.634207  0  0.321892  0.414571  0  0.88441  0
H  H37  1  0.64900863  0.89321987  0.79593668  1  0.634197  0  0.321887  0.414574  0  0.88442  0
H  H38  1  0.14900772  0.60678015  0.29593614  1  0.6342  0  0.321905  0.414608  0  0.884378  0
H  H39  1  0.35099219  0.10677969  0.20406368  1  0.634203  0  0.321912  0.41462  0  0.884359  0
H  H40  1  0.84790540  0.54052614  0.98359176  1  0.645858  0  0.301003  0.40399  0  0.931494  0
H  H41  1  0.65209524  0.04052637  0.51640914  1  0.645867  0  0.301012  0.403996  0  0.931485  0
H  H42  1  0.15209542  0.45947411  0.01640792  1  0.645729  0  0.300995  0.40396  0  0.931539  0
H  H43  1  0.34790663  0.95947319  0.48359191  1  0.645848  0  0.30102  0.404016  0  0.931458  0
H  H44  1  0.76304551  0.56309807  0.89158945  1  0.658118  0  0.305432  0.413117  0  0.916365  0
H  H45  1  0.73695617  0.06309830  0.60841011  1  0.658107  0  0.30541  0.41308  0  0.916414  0
H  H46  1  0.23695531  0.43690217  0.10841023  1  0.658118  0  0.305422  0.413103  0  0.916381  0
H  H47  1  0.26304569  0.93690126  0.39158958  1  0.658114  0  0.305417  0.413079  0  0.916423  0
H  H48  1  0.02979210  0.26929388  0.56204468  1  0.638415  0  0.29924  0.409983  0  0.917958  0
H  H49  1  0.47020923  0.76929298  0.93795414  1  0.638434  0  0.299268  0.410032  0  0.917888  0
H  H50  1  0.97020872  0.73070636  0.43795567  1  0.638418  0  0.299257  0.410012  0  0.917915  0
H  H51  1  0.52979055  0.23070589  0.06204552  1  0.638441  0  0.299252  0.409999  0  0.917921  0
H  H52  1  0.08016405  0.33352122  0.64320420  1  0.616862  0  0.328489  0.410534  0  0.877666  0
H  H53  1  0.41983624  0.83352169  0.85679527  1  0.616864  0  0.328498  0.410567  0  0.877631  0
H  H54  1  0.91983676  0.66647902  0.35679547  1  0.616224  0  0.32849  0.410551  0  0.877657  0
H  H55  1  0.58016457  0.16647786  0.14320440  1  0.61711  0  0.328483  0.410526  0  0.877666  0
H  H56  1  0.12842007  0.07600797  0.58814205  1  0.638818  0  0.299147  0.381899  0  0.965232  0
H  H57  1  0.37158123  0.57600912  0.91185813  1  0.638732  0  0.299132  0.38188  0  0.965256  0
H  H58  1  0.87158179  0.92399159  0.41185832  1  0.638726  0  0.299159  0.381927  0  0.965195  0
H  H59  1  0.62841855  0.42399181  0.08814220  1  0.638834  0  0.299151  0.381922  0  0.965202  0
H  H60  1  0.00375200  0.00724323  0.61448876  1  0.646676  0  0.304391  0.404873  0  0.923673  0
H  H61  1  0.49624929  0.50724371  0.88551279  1  0.646673  0  0.304394  0.404872  0  0.923671  0
H  H62  1  0.99624882  0.99275633  0.38551295  1  0.646679  0  0.304385  0.404859  0  0.923689  0
H  H63  1  0.50375049  0.49275585  0.11448822  1  0.646695  0  0.304396  0.404864  0  0.923681  0
C  C64  1  0.11215008  0.36268116  0.87199225  1  1.572871  0  0.228996  0.666049  0  4.157889  0
C  C65  1  0.38784917  0.86268165  0.62800585  1  1.572032  0  0.229042  0.666078  0  4.157947  0
C  C66  1  0.88784760  0.63731908  0.12800670  1  1.572745  0  0.228985  0.666043  0  4.157956  0
C  C67  1  0.61215165  0.13731859  0.37199451  1  1.571722  0  0.229027  0.66601  0  4.158055  0
C  C68  1  0.26610393  0.36474823  0.86682712  1  -0.056092  0  -0.061853  -0.153028  0  3.840941  0
C  C69  1  0.23389637  0.86474871  0.63317235  1  -0.056089  0  -0.06182  -0.15301  0  3.840941  0
C  C70  1  0.73389689  0.63525133  0.13317323  1  -0.056131  0  -0.06184  -0.153027  0  3.840933  0
C  C71  1  0.76610236  0.13525085  0.36682729  1  -0.056088  0  -0.061814  -0.152984  0  3.840864  0
C  C72  1  0.35043820  0.33233740  0.93338426  1  -0.08751  0  -0.071912  -0.171413  0  3.864927  0
C  C73  1  0.14956105  0.83233720  0.56661520  1  -0.087449  0  -0.07195  -0.171445  0  3.864924  0
C  C74  1  0.64956053  0.66766215  0.06661606  1  -0.087408  0  -0.071915  -0.171375  0  3.864919  0
C  C75  1  0.85043977  0.16766305  0.43338516  1  -0.087442  0  -0.07191  -0.171384  0  3.864892  0
C  C76  1  0.50358261  0.33382180  0.92385539  1  1.547788  0  0.207102  0.61901  0  4.218568  0
C  C77  1  0.99641599  0.83382162  0.57614614  1  1.548362  0  0.207075  0.618931  0  4.218635  0
C  C78  1  0.49641508  0.66617776  0.07614492  1  1.547709  0  0.207088  0.618898  0  4.21873  0
C  C79  1  0.00358379  0.16617863  0.42385420  1  1.548349  0  0.207051  0.618885  0  4.218734  0
C  C80  1  0.71262620  0.18861363  0.73557386  1  1.565993  0  0.227711  0.670049  0  4.141995  0
C  C81  1  0.78737444  0.68861410  0.76442363  1  1.566008  0  0.227676  0.670035  0  4.141969  0
C  C82  1  0.28737565  0.81138661  0.26442447  1  1.565974  0  0.227719  0.670165  0  4.141955  0
C  C83  1  0.21262741  0.31138682  0.23557538  1  1.566004  0  0.227711  0.670143  0  4.141876  0
C  C84  1  0.55829275  0.18573865  0.73147455  1  -0.037609  0  -0.069112  -0.173364  0  3.838343  0
C  C85  1  0.94170894  0.68574050  0.76852296  1  -0.03766  0  -0.069099  -0.173387  0  3.838357  0
C  C86  1  0.44170806  0.81426091  0.26852309  1  -0.037662  0  -0.069117  -0.173382  0  3.838383  0
C  C87  1  0.05829292  0.31426112  0.23147673  1  -0.037686  0  -0.069118  -0.173377  0  3.838401  0
C  C88  1  0.48988608  0.16781502  0.65279596  1  -0.080973  0  -0.060228  -0.150222  0  3.856246  0
C  C89  1  0.01011313  0.66781547  0.84720079  1  -0.080928  0  -0.060219  -0.150192  0  3.856091  0
C  C90  1  0.51011369  0.83218522  0.34720166  1  -0.080955  0  -0.060232  -0.150232  0  3.856095  0
C  C91  1  0.98988768  0.33218546  0.15279888  1  -0.080969  0  -0.060237  -0.150219  0  3.856104  0
C  C92  1  0.33595984  0.15828834  0.64210569  1  1.594046  0  0.241687  0.689504  0  4.121512  0
C  C93  1  0.16404146  0.65828811  0.85789177  1  1.594017  0  0.24173  0.689521  0  4.121383  0
C  C94  1  0.66404201  0.84171258  0.35789332  1  1.594049  0  0.241734  0.689569  0  4.121385  0
C  C95  1  0.83595936  0.34171213  0.14210790  1  1.594057  0  0.241709  0.689525  0  4.121326  0
C  C96  1  0.00494188  0.16971499  0.97505482  1  1.563764  0  0.229306  0.680788  0  4.165398  0
C  C97  1  0.49505630  0.66971618  0.52494395  1  1.563204  0  0.229306  0.680841  0  4.165361  0
C  C98  1  0.99505789  0.83028457  0.02494484  1  1.563411  0  0.229287  0.680732  0  4.165389  0
C  C99  1  0.50494034  0.33028407  0.47505566  1  1.563351  0  0.229289  0.680742  0  4.165439  0
C  C100  1  0.03829603  0.10510495  0.05065521  1  0.006985  0  -0.075224  -0.174321  0  3.855845  0
C  C101  1  0.46170283  0.60510679  0.44934460  1  0.006971  0  -0.075264  -0.174359  0  3.855909  0
C  C102  1  0.96170374  0.89489461  0.94934513  1  0.006968  0  -0.075246  -0.174353  0  3.855858  0
C  C103  1  0.53829486  0.39489414  0.55065503  1  0.00694  0  -0.075256  -0.174362  0  3.855871  0
C  C104  1  0.95218911  0.09289709  0.11993919  1  -0.065606  0  -0.073381  -0.158236  0  3.882065  0
C  C105  1  0.54780804  0.59289821  0.38006131  1  -0.065662  0  -0.073383  -0.158244  0  3.882047  0
C  C106  1  0.04781066  0.90710316  0.88006115  1  -0.065603  0  -0.073373  -0.158216  0  3.882072  0
C  C107  1  0.45218860  0.40710271  0.61993898  1  -0.065608  0  -0.073386  -0.15822  0  3.882006  0
C  C108  1  0.96677456  0.01447764  0.18274042  1  1.539359  0  0.193292  0.611842  0  4.231231  0
C  C109  1  0.53322467  0.51447740  0.31726011  1  1.539469  0  0.193279  0.611813  0  4.231341  0
C  C110  1  0.03322417  0.98552329  0.81725990  1  1.539465  0  0.193285  0.61182  0  4.23134  0
C  C111  1  0.46677510  0.48552284  0.68274022  1  1.539499  0  0.193267  0.611802  0  4.231445  0
O  O112  1  0.03925010  0.32575075  0.80767842  1  -1.21196  0  -0.389751  -0.71809  0  2.327666  0
O  O113  1  0.46074914  0.82575124  0.69231900  1  -1.211778  0  -0.389772  -0.7181  0  2.327709  0
O  O114  1  0.96074862  0.67424881  0.19232055  1  -1.211759  0  -0.389745  -0.718074  0  2.327693  0
O  O115  1  0.53924959  0.17424832  0.30768132  1  -1.211458  0  -0.389773  -0.718062  0  2.32769  0
O  O116  1  0.05333975  0.39853388  0.93996883  1  -1.18177  0  -0.337528  -0.601569  0  2.247845  0
O  O117  1  0.44665846  0.89853438  0.56002924  1  -1.180995  0  -0.337553  -0.601594  0  2.247891  0
O  O118  1  0.94665793  0.60146705  0.06003011  1  -1.181771  0  -0.337531  -0.601589  0  2.247842  0
O  O119  1  0.55334236  0.10146655  0.43997179  1  -1.181014  0  -0.337562  -0.601578  0  2.247991  0
O  O120  1  0.58098536  0.27547246  0.96621835  1  -1.188844  0  -0.339238  -0.617074  0  2.208163  0
O  O121  1  0.91901427  0.77547159  0.53378184  1  -1.18942  0  -0.339249  -0.617046  0  2.208188  0
O  O122  1  0.41901442  0.72452778  0.03378199  1  -1.188769  0  -0.339247  -0.617048  0  2.208246  0
O  O123  1  0.08098550  0.22452865  0.46621782  1  -1.189422  0  -0.339246  -0.617031  0  2.20822  0
O  O124  1  0.55890199  0.39337413  0.87175757  1  -1.186713  0  -0.368694  -0.63216  0  2.242465  0
O  O125  1  0.94109766  0.89337257  0.62824532  1  -1.186729  0  -0.368658  -0.632097  0  2.242472  0
O  O126  1  0.44109778  0.60662542  0.12824277  1  -1.186737  0  -0.36867  -0.6321  0  2.242528  0
O  O127  1  0.05890212  0.10662630  0.37175637  1  -1.186712  0  -0.368646  -0.63209  0  2.242524  0
O  O128  1  0.77692712  0.22468135  0.80432535  1  -1.213556  0  -0.420314  -0.749244  0  2.370654  0
O  O129  1  0.72307041  0.72468113  0.69567413  1  -1.213615  0  -0.42033  -0.749285  0  2.370607  0
O  O130  1  0.22307265  0.77531958  0.19567363  1  -1.213582  0  -0.420313  -0.749306  0  2.370657  0
O  O131  1  0.27692936  0.27531911  0.30432553  1  -1.213598  0  -0.420318  -0.749288  0  2.370555  0
O  O132  1  0.78410767  0.15474033  0.67175492  1  -1.181094  0  -0.352095  -0.605712  0  2.24801  0
O  O133  1  0.71589506  0.65473942  0.82824328  1  -1.181032  0  -0.352082  -0.605695  0  2.248121  0
O  O134  1  0.21589418  0.84525991  0.32824341  1  -1.181037  0  -0.352088  -0.605756  0  2.248079  0
O  O135  1  0.28410784  0.34526014  0.17175574  1  -1.181077  0  -0.352103  -0.605767  0  2.248089  0
O  O136  1  0.29220561  0.11564563  0.57055588  1  -1.192576  0  -0.365779  -0.64616  0  2.273839  0
O  O137  1  0.20779256  0.61564471  0.92944222  1  -1.192502  0  -0.365802  -0.646183  0  2.27388  0
O  O138  1  0.70779312  0.88435393  0.42944444  1  -1.192571  0  -0.365768  -0.646151  0  2.273804  0
O  O139  1  0.79220825  0.38435485  0.07055678  1  -1.192514  0  -0.365766  -0.64616  0  2.273802  0
O  O140  1  0.25707522  0.18921272  0.70284767  1  -1.1992  0  -0.393119  -0.659726  0  2.233307  0
O  O141  1  0.24292609  0.68921387  0.79715047  1  -1.199239  0  -0.393122  -0.659701  0  2.233136  0
O  O142  1  0.74292559  0.81078753  0.29715200  1  -1.199227  0  -0.393143  -0.659761  0  2.233281  0
O  O143  1  0.75707473  0.31078706  0.20284920  1  -1.199253  0  -0.393123  -0.659731  0  2.233197  0
O  O144  1  0.90515973  0.22621024  0.98450913  1  -1.191094  0  -0.398192  -0.679308  0  2.311172  0
O  O145  1  0.59483989  0.72621140  0.51549038  1  -1.190739  0  -0.398178  -0.679302  0  2.31111  0
O  O146  1  0.09484213  0.77378932  0.01548921  1  -1.190738  0  -0.398194  -0.679277  0  2.311082  0
O  O147  1  0.40515780  0.27378884  0.48450992  1  -1.190694  0  -0.398157  -0.679207  0  2.311204  0
O  O148  1  0.07772854  0.16179253  0.90439336  1  -1.187516  0  -0.394765  -0.669435  0  2.263561  0
O  O149  1  0.42227068  0.66179439  0.59560611  1  -1.187292  0  -0.394769  -0.669439  0  2.263564  0
O  O150  1  0.92227332  0.83820634  0.09560701  1  -1.187504  0  -0.394756  -0.669399  0  2.263567  0
O  O151  1  0.57772596  0.33820585  0.40439350  1  -1.187477  0  -0.394776  -0.669442  0  2.26355  0
O  O152  1  0.85686508  0.98202735  0.21656815  1  -1.155521  0  -0.361812  -0.6023  0  2.164546  0
O  O153  1  0.64313423  0.48202619  0.28343302  1  -1.155589  0  -0.361784  -0.602255  0  2.164623  0
O  O154  1  0.14313365  0.01797358  0.78343217  1  -1.155584  0  -0.361792  -0.602267  0  2.164625  0
O  O155  1  0.35686659  0.51797405  0.71656733  1  -1.155584  0  -0.361813  -0.602292  0  2.164689  0
O  O156  1  0.08672089  0.97565019  0.19699804  1  -1.199217  0  -0.378416  -0.646478  0  2.22525  0
O  O157  1  0.41327803  0.47565110  0.30300241  1  -1.199227  0  -0.378412  -0.646463  0  2.225252  0
O  O158  1  0.91327784  0.02434937  0.80300228  1  -1.199247  0  -0.378417  -0.646485  0  2.225259  0
O  O159  1  0.58672174  0.52434914  0.69699589  1  -1.199211  0  -0.37838  -0.646459  0  2.225289  0
O  O160  1  0.79975943  0.42168920  0.75285751  1  -1.285105  0  -0.634002  -0.852869  0  2.023521  0
O  O161  1  0.70023813  0.92168966  0.74714263  1  -1.285148  0  -0.633993  -0.852877  0  2.02355  0
O  O162  1  0.20023929  0.57831104  0.24714213  1  -1.285109  0  -0.633973  -0.852841  0  2.023589  0
O  O163  1  0.29975956  0.07831058  0.25285768  1  -1.285108  0  -0.633998  -0.852909  0  2.023553  0
O  O164  1  0.79259319  0.51220150  0.93275044  1  -1.291138  0  -0.67335  -0.881756  0  2.10505  0
O  O165  1  0.70740744  0.01220241  0.56724978  1  -1.291141  0  -0.673343  -0.88172  0  2.105083  0
O  O166  1  0.20740554  0.48779806  0.06724988  1  -1.291002  0  -0.673339  -0.881692  0  2.105081  0
O  O167  1  0.29259338  0.98779783  0.43275057  1  -1.291123  0  -0.673366  -0.881751  0  2.105067  0
O  O168  1  0.00669546  0.29048892  0.62538463  1  -1.242824  0  -0.615528  -0.828649  0  1.998885  0
O  O169  1  0.49330586  0.79048871  0.87461419  1  -1.242836  0  -0.615559  -0.828714  0  1.998795  0
O  O170  1  0.99330640  0.70951064  0.37461574  1  -1.242189  0  -0.615552  -0.828708  0  1.998829  0
O  O171  1  0.50669496  0.20951017  0.12538685  1  -1.243107  0  -0.615534  -0.828645  0  1.998835  0
O  O172  1  0.02945140  0.07266808  0.60759702  1  -1.273015  0  -0.642568  -0.840301  0  2.087752  0
O  O173  1  0.47055094  0.57266924  0.89240319  1  -1.272906  0  -0.642572  -0.840276  0  2.087762  0
O  O174  1  0.97054942  0.92733147  0.39240266  1  -1.27292  0  -0.642578  -0.840317  0  2.087782  0
O  O175  1  0.52945092  0.42733169  0.10759718  1  -1.273029  0  -0.642587  -0.840326  0  2.087789  0
