# generated using pymatgen
data_CaH12C16S2N4(ClO4)2
_symmetry_space_group_name_H-M   'P 1'
_cell_length_a   5.60487750
_cell_length_b   10.64354612
_cell_length_c   18.39412312
_cell_angle_alpha   72.98930923
_cell_angle_beta   85.03168718
_cell_angle_gamma   76.08647861
_symmetry_Int_Tables_number   1
_chemical_formula_structural   CaH12C16S2N4(ClO4)2
_chemical_formula_sum   'Ca2 H24 C32 S4 N8 Cl4 O16'
_cell_volume   1018.36503683
_cell_formula_units_Z   2
loop_
 _symmetry_equiv_pos_site_id
 _symmetry_equiv_pos_as_xyz
  1  'x, y, z'
loop_
 _atom_site_type_symbol
 _atom_site_label
 _atom_site_symmetry_multiplicity
 _atom_site_fract_x
 _atom_site_fract_y
 _atom_site_fract_z
 _atom_site_occupancy
 _atom_site_pbe_bader_spin_density
 _atom_site_pbe_cm5_charge
 _atom_site_pbe_ddec_charge
 _atom_site_pbe_ddec_spin_density
 _atom_site_pbe_ddec_sum_bond_order
 _atom_site_pbe_magmom
Ca  Ca0  1  0.00000343  0.99999926  0.49999947  1  0  0.968225  1.507978  0  1.458108  0
Ca  Ca1  1  0.50000038  0.49999672  0.50000179  1  0  0.93037  1.481523  0  1.420142  0
H  H2  1  0.00315911  0.72972849  0.24668845  1  0  0.318086  0.257835  0  1.010092  0
H  H3  1  0.99687508  0.27025277  0.75331397  1  0  0.318179  0.257918  0  1.010071  0
H  H4  1  0.76665772  0.68829900  0.94908520  1  0  0.095136  0.143362  0  1.016293  0
H  H5  1  0.23326035  0.31174502  0.05091734  1  0  0.095147  0.143401  0  1.016306  0
H  H6  1  0.07938890  0.66552148  0.97382200  1  0  0.095517  0.145517  0  0.992866  0
H  H7  1  0.92055077  0.33451164  0.02616486  1  0  0.095628  0.14566  0  0.992749  0
H  H8  1  0.86747110  0.82015232  0.97022879  1  0  0.083438  0.1265  0  1.040913  0
H  H9  1  0.13246175  0.17987749  0.02977948  1  0  0.083475  0.126562  0  1.040937  0
H  H10  1  0.36502502  0.89084571  0.08537940  1  0  0.099565  0.115194  0  1.073149  0
H  H11  1  0.63493828  0.10917818  0.91461426  1  0  0.099631  0.115227  0  1.073257  0
H  H12  1  0.65151501  0.41925990  0.31515688  1  0  0.117635  0.128961  0  1.048938  0
H  H13  1  0.34848636  0.58073654  0.68484672  1  0  0.117657  0.12896  0  1.049037  0
H  H14  1  0.31541185  0.46275863  0.10465878  1  0  0.107426  0.116066  0  1.026101  0
H  H15  1  0.68460800  0.53723173  0.89534365  1  0  0.107486  0.116245  0  1.026036  0
H  H16  1  0.48182840  0.96618537  0.33243021  1  0  0.126331  0.144686  0  0.974701  0
H  H17  1  0.51820047  0.03379998  0.66756897  1  0  0.126344  0.1447  0  0.974723  0
H  H18  1  0.05226910  0.30616034  0.17443253  1  0  0.096659  0.09995  0  1.018486  0
H  H19  1  0.94775179  0.69382705  0.82556656  1  0  0.096689  0.100049  0  1.018418  0
H  H20  1  0.08891220  0.20467957  0.31536901  1  0  0.111096  0.117362  0  1.014212  0
H  H21  1  0.91109758  0.79530885  0.68463133  1  0  0.111119  0.117366  0  1.014164  0
H  H22  1  0.97647058  0.57085364  0.56371306  1  0  0.310915  0.400396  0  0.928227  0
H  H23  1  0.02353391  0.42913973  0.43629369  1  0  0.310928  0.400381  0  0.928255  0
H  H24  1  0.14461014  0.45754011  0.62649896  1  0  0.317473  0.420918  0  0.894239  0
H  H25  1  0.85540514  0.54244825  0.37350394  1  0  0.317504  0.421049  0  0.894062  0
C  C26  1  0.90006229  0.68322431  0.13164489  1  0  0.093308  -0.072292  0  4.079114  0
C  C27  1  0.09993559  0.31678030  0.86835148  1  0  0.093426  -0.072284  0  4.079144  0
C  C28  1  0.77695631  0.60770021  0.19759240  1  0  0.227112  0.356288  0  4.147892  0
C  C29  1  0.22308091  0.39228297  0.80241505  1  0  0.22708  0.356037  0  4.14783  0
C  C30  1  0.81792425  0.65712420  0.06632435  1  0  0.119497  0.223998  0  4.017132  0
C  C31  1  0.18204092  0.34288651  0.93367634  1  0  0.119392  0.223989  0  4.017207  0
C  C32  1  0.88666662  0.71051667  0.98528903  1  0  -0.239577  -0.434003  0  3.945662  0
C  C33  1  0.11327318  0.28951232  0.01470558  1  0  -0.239731  -0.434333  0  3.945887  0
C  C34  1  0.26290274  0.84813526  0.20411159  1  0  0.102192  0.191263  0  4.031393  0
C  C35  1  0.73708940  0.15187037  0.79588588  1  0  0.102149  0.191211  0  4.031173  0
C  C36  1  0.49383764  0.45416697  0.20566692  1  0  0.099781  0.183875  0  4.007404  0
C  C37  1  0.50617659  0.54582846  0.79433430  1  0  0.099727  0.18394  0  4.007014  0
C  C38  1  0.29770553  0.86937668  0.27446626  1  0  -0.015465  -0.165266  0  3.913951  0
C  C39  1  0.70230484  0.13062381  0.72553315  1  0  -0.015516  -0.165259  0  3.913796  0
C  C40  1  0.39047327  0.90792876  0.13932262  1  0  -0.101666  -0.233467  0  3.982351  0
C  C41  1  0.60949918  0.09208598  0.86067555  1  0  -0.101888  -0.233628  0  3.98253  0
C  C42  1  0.51883527  0.39619319  0.28423310  1  0  -0.087042  -0.183421  0  3.943393  0
C  C43  1  0.48117985  0.60380428  0.71576557  1  0  -0.086977  -0.1834  0  3.943325  0
C  C44  1  0.32755665  0.41963891  0.16600801  1  0  -0.093253  -0.174599  0  3.971315  0
C  C45  1  0.67245724  0.58034846  0.83399511  1  0  -0.09338  -0.174911  0  3.971139  0
C  C46  1  0.45535126  0.95017026  0.27823325  1  0  -0.075655  -0.104155  0  3.971622  0
C  C47  1  0.54465612  0.04982421  0.72176670  1  0  -0.075653  -0.104169  0  3.971558  0
C  C48  1  0.54725073  0.98858402  0.14383136  1  0  0.00971  0.09317  0  4.065133  0
C  C49  1  0.45271642  0.01143480  0.85616412  1  0  0.009853  0.093382  0  4.064862  0
C  C50  1  0.37410342  0.30623959  0.32180901  1  0  -0.017621  -0.085917  0  4.014725  0
C  C51  1  0.62591263  0.69375582  0.67819270  1  0  -0.017608  -0.085955  0  4.014823  0
C  C52  1  0.18273063  0.33111353  0.20556440  1  0  -0.0953  -0.069619  0  4.012159  0
C  C53  1  0.81729592  0.66887784  0.79443603  1  0  -0.095241  -0.069646  0  4.011858  0
C  C54  1  0.58066773  0.01042138  0.21367417  1  0  0.005773  0.070627  0  4.048866  0
C  C55  1  0.41933628  0.98957712  0.78632575  1  0  0.005766  0.070622  0  4.048779  0
C  C56  1  0.20193865  0.27379333  0.28418650  1  0  -0.088642  -0.105347  0  3.98107  0
C  C57  1  0.79808236  0.72619402  0.71581531  1  0  -0.088693  -0.105327  0  3.981155  0
S  S58  1  0.14873979  0.79739025  0.36154243  1  0  0.550818  1.239072  0  6.175482  0
S  S59  1  0.85126971  0.20260323  0.63845599  1  0  0.550977  1.239257  0  6.175294  0
S  S60  1  0.42474163  0.23200666  0.42062963  1  0  0.57523  1.262149  0  6.107562  0
S  S61  1  0.57526581  0.76798779  0.57937141  1  0  0.575207  1.26209  0  6.107415  0
N  N62  1  0.05807031  0.75713253  0.13211031  1  0  -0.164489  -0.069164  0  3.331187  0
N  N63  1  0.94191513  0.24287209  0.86788916  1  0  -0.164381  -0.068778  0  3.331051  0
N  N64  1  0.10094301  0.77049185  0.19825679  1  0  -0.247859  -0.120891  0  3.668503  0
N  N65  1  0.89906715  0.22950462  0.80174274  1  0  -0.247945  -0.121214  0  3.668721  0
N  N66  1  0.63974906  0.54407176  0.16669683  1  0  -0.148456  -0.022148  0  3.714403  0
N  N67  1  0.36025499  0.45592672  0.83330419  1  0  -0.148412  -0.021893  0  3.714374  0
N  N68  1  0.66407518  0.57651304  0.08711545  1  0  -0.222308  -0.26258  0  3.068054  0
N  N69  1  0.33590338  0.42349560  0.91288573  1  0  -0.222351  -0.262741  0  3.067994  0
Cl  Cl70  1  0.70211081  0.06036033  0.06337925  1  0  0.039161  -0.028803  0  1.707695  0
Cl  Cl71  1  0.29784489  0.93966955  0.93661799  1  0  0.03916  -0.028847  0  1.707501  0
Cl  Cl72  1  0.77567481  0.10800594  0.22075550  1  0  0.041157  -0.022535  0  1.736298  0
Cl  Cl73  1  0.22433581  0.89198951  0.77924528  1  0  0.041167  -0.022525  0  1.736254  0
O  O74  1  0.79244929  0.60222788  0.26565657  1  0  -0.268143  -0.442376  0  2.24502  0
O  O75  1  0.20761558  0.39774328  0.73434118  1  0  -0.268178  -0.44229  0  2.244655  0
O  O76  1  0.32476568  0.67232681  0.39870831  1  0  -0.393902  -0.657403  0  2.230597  0
O  O77  1  0.67525559  0.32766863  0.60128997  1  0  -0.393916  -0.657383  0  2.23045  0
O  O78  1  0.92138184  0.77346975  0.34157530  1  0  -0.313089  -0.579561  0  2.259175  0
O  O79  1  0.07863600  0.22652069  0.65842229  1  0  -0.313207  -0.579731  0  2.259251  0
O  O80  1  0.11215695  0.89862156  0.40359373  1  0  -0.38964  -0.679708  0  2.292421  0
O  O81  1  0.88786215  0.10136585  0.59640542  1  0  -0.389676  -0.679778  0  2.292436  0
O  O82  1  0.34308691  0.34405039  0.45612039  1  0  -0.356453  -0.666228  0  2.254036  0
O  O83  1  0.65692186  0.65594509  0.54387935  1  0  -0.35649  -0.666283  0  2.25397  0
O  O84  1  0.27485871  0.13168008  0.44606216  1  0  -0.379952  -0.662471  0  2.286441  0
O  O85  1  0.72514655  0.86831538  0.55393932  1  0  -0.379935  -0.662432  0  2.286467  0
O  O86  1  0.68930557  0.17353279  0.42883173  1  0  -0.363526  -0.658083  0  2.248983  0
O  O87  1  0.31070604  0.82646467  0.57116868  1  0  -0.363479  -0.658026  0  2.24895  0
O  O88  1  0.14791395  0.52340519  0.57658132  1  0  -0.63028  -0.831866  0  1.96486  0
O  O89  1  0.85209475  0.47659118  0.42342534  1  0  -0.630328  -0.832005  0  1.964721  0
