# generated using pymatgen
data_CoH3C8ClO4
_symmetry_space_group_name_H-M   'P 1'
_cell_length_a   4.82494437
_cell_length_b   12.88605613
_cell_length_c   13.81804801
_cell_angle_alpha   102.58928787
_cell_angle_beta   89.99942139
_cell_angle_gamma   90.00036758
_symmetry_Int_Tables_number   1
_chemical_formula_structural   CoH3C8ClO4
_chemical_formula_sum   'Co4 H12 C32 Cl4 O16'
_cell_volume   838.47466626
_cell_formula_units_Z   4
loop_
 _symmetry_equiv_pos_site_id
 _symmetry_equiv_pos_as_xyz
  1  'x, y, z'
loop_
 _atom_site_type_symbol
 _atom_site_label
 _atom_site_symmetry_multiplicity
 _atom_site_fract_x
 _atom_site_fract_y
 _atom_site_fract_z
 _atom_site_occupancy
 _atom_site_hle17_ddec_charge
 _atom_site_hle17_ddec_spin_density
 _atom_site_hle17_ddec_sum_bond_order
 _atom_site_hle17_magmom
 _atom_site_hse06_10hf_ddec_charge
 _atom_site_hse06_10hf_ddec_spin_density
 _atom_site_hse06_10hf_ddec_sum_bond_order
 _atom_site_hse06_10hf_magmom
 _atom_site_hse06_ddec_charge
 _atom_site_hse06_ddec_spin_density
 _atom_site_hse06_ddec_sum_bond_order
 _atom_site_hse06_magmom
 _atom_site_pbe_cm5_charge
 _atom_site_pbe_ddec_charge
 _atom_site_pbe_ddec_spin_density
 _atom_site_pbe_ddec_sum_bond_order
 _atom_site_pbe_magmom
Co  Co0  1  0.21834568  0.39324632  0.43848857  1  1.123738  -2.832841  1.869457  -2.557  1.08493  -2.835852  2.320361  -2.617  1.169306  -2.877849  2.236988  -2.7  0.681849  1.013703  -2.795769  2.389028  -2.537
Co  Co1  1  0.71836171  0.10675790  0.56150944  1  1.123693  -2.832866  1.869604  -2.557  1.08487  -2.835858  2.32051  -2.617  1.169246  -2.877855  2.237143  -2.7  0.681836  1.013635  -2.795783  2.389168  -2.537
Co  Co2  1  0.78163721  0.60675874  0.56151397  1  1.123825  -2.832906  1.869452  -2.557  1.084941  -2.83587  2.320327  -2.617  1.169319  -2.877869  2.236956  -2.7  0.681865  1.013708  -2.795778  2.388993  -2.537
Co  Co3  1  0.28165435  0.89324075  0.43848900  1  1.1238  -2.832882  1.869506  -2.557  1.084937  -2.835856  2.320395  -2.617  1.169316  -2.877857  2.23702  -2.7  0.68185  1.013705  -2.795767  2.389045  -2.537
H  H4  1  0.42192352  0.22630426  0.02695433  1  0.09656  -1.1e-05  0.975699  0.0  0.10269  1.8e-05  1.046342  0.0  0.105771  5e-06  1.044407  0.0  0.094854  0.100468  5.3e-05  1.047888  0.0
H  H5  1  0.92189944  0.27368599  0.97304033  1  0.096614  -9e-06  0.975595  0.0  0.102727  1.8e-05  1.046256  0.0  0.105808  6e-06  1.044317  0.0  0.094857  0.100467  5.3e-05  1.047841  0.0
H  H6  1  0.57807802  0.77369442  0.97304557  1  0.096616  -9e-06  0.975628  0.0  0.102741  1.8e-05  1.04627  0.0  0.105823  5e-06  1.044331  0.0  0.094854  0.100502  5.3e-05  1.047829  0.0
H  H7  1  0.07808967  0.72630707  0.02695561  1  0.09661  -8e-06  0.975611  0.0  0.10273  1.8e-05  1.046261  0.0  0.10581  5e-06  1.044323  0.0  0.09485  0.100476  5.3e-05  1.047833  0.0
H  H8  1  0.17948594  0.05934269  0.03998077  1  0.086355  6.9e-05  0.957466  0.0  0.095329  -6e-05  1.020813  0.0  0.098199  -3.5e-05  1.01964  0.0  0.096551  0.093299  -9.3e-05  1.021682  0.0
H  H9  1  0.67945475  0.44064562  0.96001727  1  0.086384  7.2e-05  0.957508  0.0  0.095384  -6e-05  1.020804  0.0  0.098257  -3.5e-05  1.019627  0.0  0.096586  0.093347  -9.3e-05  1.021681  0.0
H  H10  1  0.82052183  0.94065437  0.96001737  1  0.086364  7.1e-05  0.957476  0.0  0.095348  -6e-05  1.020816  0.0  0.098219  -3.5e-05  1.019641  0.0  0.096554  0.093312  -9.3e-05  1.021697  0.0
H  H11  1  0.32053437  0.55934913  0.03998478  1  0.086333  7.1e-05  0.957504  0.0  0.095343  -6e-05  1.020809  0.0  0.098217  -3.5e-05  1.019629  0.0  0.096553  0.093288  -9.3e-05  1.0217  0.0
H  H12  1  0.20216763  0.99638164  0.19898443  1  0.094199  -5e-05  0.990569  0.0  0.0955  0.000106  1.067614  0.0  0.09917  0.000146  1.064803  0.0  0.092293  0.092873  5e-05  1.069679  0.0
H  H13  1  0.70214593  0.50361291  0.80101572  1  0.094094  -4.9e-05  0.990672  0.0  0.095384  0.000106  1.067711  0.0  0.099053  0.000146  1.0649  0.0  0.092245  0.092753  5e-05  1.069777  0.0
H  H14  1  0.79784221  0.00361462  0.80101356  1  0.094169  -5e-05  0.990694  0.0  0.095445  0.000105  1.067756  0.0  0.099113  0.000146  1.064948  0.0  0.092297  0.092816  5e-05  1.069828  0.0
H  H15  1  0.29784318  0.49638821  0.19898753  1  0.094147  -4.9e-05  0.990611  0.0  0.095464  0.000106  1.06764  0.0  0.099134  0.000146  1.06483  0.0  0.092305  0.092834  5e-05  1.069706  0.0
C  C16  1  0.74131374  0.29065429  0.35198877  1  0.695051  0.018462  3.862168  0.015  0.65089  -0.00046  4.163539  0.0  0.69303  -0.000418  4.153002  0.0  0.225823  0.619434  0.001098  4.169231  0.002
C  C17  1  0.24131957  0.20934760  0.64800944  1  0.694989  0.018466  3.861903  0.015  0.650804  -0.000458  4.163366  0.0  0.692943  -0.000419  4.15283  0.0  0.225805  0.61935  0.0011  4.169045  0.002
C  C18  1  0.25867745  0.70934757  0.64801172  1  0.695081  0.018466  3.861816  0.015  0.650891  -0.000459  4.163228  0.0  0.693033  -0.000419  4.152692  0.0  0.225808  0.619442  0.001099  4.168897  0.002
C  C19  1  0.75869027  0.79065424  0.35199033  1  0.695157  0.018461  3.862023  0.015  0.651013  -0.000458  4.1634  0.0  0.693155  -0.000418  4.152861  0.0  0.225855  0.619556  0.0011  4.169083  0.002
C  C20  1  0.58833437  0.22168233  0.26691234  1  -0.097633  0.002027  3.684514  -0.002  -0.094075  -0.000734  3.917846  -0.003  -0.096136  7e-06  3.933553  -0.002  -0.00403  -0.093184  -0.001455  3.908482  -0.004
C  C21  1  0.08833272  0.27831613  0.73308576  1  -0.097683  0.002053  3.684516  -0.002  -0.094192  -0.000734  3.917924  -0.003  -0.096247  4e-06  3.933626  -0.002  -0.004053  -0.093294  -0.001454  3.908539  -0.004
C  C22  1  0.41165682  0.77831873  0.73308800  1  -0.097679  0.002046  3.684518  -0.002  -0.094112  -0.000733  3.917818  -0.003  -0.096175  6e-06  3.933529  -0.002  -0.00404  -0.093219  -0.001454  3.908436  -0.004
C  C23  1  0.91167712  0.72168729  0.26691358  1  -0.097482  0.002053  3.684499  -0.002  -0.093988  -0.000734  3.917922  -0.003  -0.096051  7e-06  3.933631  -0.002  -0.003976  -0.093093  -0.001455  3.908542  -0.004
C  C24  1  0.57414512  0.25524204  0.17716028  1  0.116694  -0.003469  3.760247  -0.005  0.120764  -0.001536  4.026801  -0.002  0.122607  -0.001054  4.04757  -0.001  0.017635  0.119319  -0.002098  4.013322  -0.003
C  C25  1  0.07413822  0.24475557  0.82283626  1  0.116574  -0.003482  3.760517  -0.005  0.120746  -0.001537  4.026971  -0.002  0.122587  -0.001058  4.047739  -0.002  0.017605  0.119307  -0.002098  4.013467  -0.003
C  C26  1  0.42585643  0.74475743  0.82283976  1  0.116699  -0.003479  3.760347  -0.005  0.12079  -0.001536  4.026853  -0.002  0.122634  -0.001055  4.047623  -0.001  0.017636  0.119355  -0.002098  4.013347  -0.003
C  C27  1  0.92586748  0.75524545  0.17716191  1  0.116559  -0.003485  3.76045  -0.005  0.12072  -0.001536  4.026915  -0.002  0.122564  -0.001056  4.047682  -0.001  0.017614  0.119291  -0.002098  4.013403  -0.003
C  C28  1  0.42839076  0.19795821  0.09564470  1  -0.124313  0.007221  3.770042  0.005  -0.150994  0.001098  4.027599  0.001  -0.151533  0.000873  4.047146  0.001  -0.095677  -0.150935  0.001832  4.014724  0.001
C  C29  1  0.92837951  0.30203607  0.90435287  1  -0.124281  0.007248  3.770013  0.005  -0.150979  0.0011  4.027546  0.001  -0.151514  0.000881  4.047091  0.001  -0.095675  -0.150896  0.001833  4.014698  0.001
C  C30  1  0.57160665  0.80204046  0.90435447  1  -0.12439  0.00724  3.770115  0.005  -0.151073  0.001099  4.027659  0.001  -0.15161  0.000875  4.047204  0.001  -0.095702  -0.151005  0.001833  4.014786  0.001
C  C31  1  0.07161997  0.69796181  0.09564687  1  -0.124349  0.007243  3.770141  0.005  -0.151038  0.001099  4.027669  0.001  -0.151573  0.000878  4.047213  0.001  -0.095696  -0.150955  0.001832  4.014801  0.001
C  C32  1  0.29340797  0.10447703  0.10349299  1  -0.052618  -0.003796  3.772021  -0.005  -0.06561  -0.001619  4.027871  -0.002  -0.068933  -0.00112  4.049089  -0.001  -0.090422  -0.063194  -0.002221  4.013548  -0.003
C  C33  1  0.79339027  0.39551546  0.89650616  1  -0.052499  -0.003816  3.772037  -0.005  -0.065549  -0.00162  4.027871  -0.002  -0.068871  -0.001125  4.04908  -0.001  -0.090301  -0.063133  -0.002221  4.013544  -0.003
C  C34  1  0.70659565  0.89552084  0.89650603  1  -0.052611  -0.003809  3.771961  -0.005  -0.065636  -0.00162  4.027804  -0.002  -0.068958  -0.001121  4.049018  -0.001  -0.090418  -0.063224  -0.002221  4.013489  -0.003
C  C35  1  0.20660713  0.60448405  0.10349606  1  -0.052556  -0.003812  3.771952  -0.005  -0.065584  -0.00162  4.027781  -0.002  -0.068911  -0.00112  4.049005  -0.001  -0.090395  -0.063148  -0.002221  4.013458  -0.003
C  C36  1  0.30670188  0.06894616  0.19146624  1  -0.060144  0.006091  3.722392  0.004  -0.089028  0.000445  3.97793  0.0  -0.086709  0.000513  3.995151  0.0  -0.088404  -0.09098  0.000596  3.966911  0.0
C  C37  1  0.80668527  0.43104713  0.80853157  1  -0.060264  0.006128  3.722487  0.004  -0.089063  0.000444  3.977946  0.0  -0.086741  0.00052  3.995172  0.0  -0.088524  -0.091005  0.000596  3.966909  0.0
C  C38  1  0.69330589  0.93105250  0.80853221  1  -0.060139  0.006111  3.722452  0.004  -0.088987  0.000445  3.977962  0.0  -0.086663  0.000512  3.995179  0.0  -0.088417  -0.090937  0.000597  3.966944  0.0
C  C39  1  0.19331421  0.56895236  0.19146920  1  -0.060135  0.006117  3.722162  0.004  -0.088997  0.000444  3.977737  0.0  -0.086678  0.000508  3.994962  0.0  -0.088465  -0.090949  0.000596  3.966711  0.0
C  C40  1  0.45478788  0.12623375  0.27292535  1  -0.044267  -0.010062  3.698646  -0.015  -0.028233  -0.004638  3.924402  -0.007  -0.035958  -0.003036  3.942724  -0.005  -0.006013  -0.023191  -0.006314  3.91368  -0.009
C  C41  1  0.95477678  0.37376377  0.72707419  1  -0.04402  -0.01008  3.698467  -0.015  -0.028025  -0.004637  3.924192  -0.007  -0.03576  -0.003033  3.942514  -0.005  -0.005953  -0.022993  -0.006314  3.913469  -0.009
C  C42  1  0.54521367  0.87376572  0.72707470  1  -0.044186  -0.010071  3.698702  -0.015  -0.028108  -0.004638  3.924382  -0.007  -0.035836  -0.003034  3.942704  -0.005  -0.005984  -0.023072  -0.006314  3.913656  -0.009
C  C43  1  0.04522685  0.62624052  0.27292966  1  -0.044244  -0.010074  3.698569  -0.015  -0.028279  -0.004638  3.924478  -0.007  -0.036005  -0.003033  3.942803  -0.005  -0.005973  -0.023246  -0.006313  3.913761  -0.009
C  C44  1  0.47118430  0.08286187  0.36435085  1  0.68517  0.015438  3.837164  0.011  0.642796  -0.00231  4.13049  -0.004  0.68611  -0.002292  4.119458  -0.004  0.232454  0.609919  -0.000619  4.137955  -0.002
C  C45  1  0.97117659  0.41713649  0.63564950  1  0.684919  0.015449  3.837107  0.011  0.642605  -0.002311  4.13038  -0.004  0.685925  -0.0023  4.119344  -0.004  0.232395  0.609738  -0.000619  4.137834  -0.002
C  C46  1  0.52881725  0.91713441  0.63564786  1  0.684991  0.015443  3.837144  0.011  0.642563  -0.002311  4.130563  -0.004  0.685881  -0.002294  4.11953  -0.004  0.232402  0.609694  -0.000619  4.138013  -0.002
C  C47  1  0.02882289  0.58287180  0.36435582  1  0.684896  0.015442  3.837419  0.011  0.642498  -0.002311  4.130837  -0.004  0.685813  -0.002294  4.119808  -0.004  0.232299  0.609633  -0.000621  4.138291  -0.002
Cl  Cl48  1  0.74236998  0.37125701  0.16594923  1  -0.065705  8.1e-05  1.397744  -0.001  -0.03675  8.3e-05  1.632676  -0.001  -0.04228  0.000216  1.62968  0.0  0.037215  -0.032655  -9.2e-05  1.634874  -0.001
Cl  Cl49  1  0.24236905  0.12874166  0.83404620  1  -0.065688  8.2e-05  1.397834  -0.001  -0.036758  8.3e-05  1.632722  -0.001  -0.042289  0.000216  1.629727  0.0  0.037212  -0.032675  -9.1e-05  1.634923  -0.001
Cl  Cl50  1  0.25762328  0.62874243  0.83404936  1  -0.065703  8.2e-05  1.397728  -0.001  -0.036767  8.3e-05  1.632667  -0.001  -0.042297  0.000216  1.629672  0.0  0.037195  -0.032689  -9.1e-05  1.634856  -0.001
Cl  Cl51  1  0.75762836  0.87125774  0.16595021  1  -0.065717  8.3e-05  1.397782  -0.001  -0.036786  8.3e-05  1.632684  -0.001  -0.042316  0.000216  1.629689  0.0  0.037182  -0.032702  -9.1e-05  1.634873  -0.001
O  O52  1  0.00379847  0.28357789  0.34940324  1  -0.595179  -0.056294  2.112185  -0.099  -0.563828  -0.040431  2.390251  -0.065  -0.607406  -0.030052  2.379312  -0.049  -0.29464  -0.528589  -0.051299  2.396744  -0.082
O  O53  1  0.50381174  0.21642596  0.65059400  1  -0.595111  -0.056297  2.111954  -0.099  -0.563746  -0.040433  2.390032  -0.065  -0.607324  -0.030052  2.3791  -0.049  -0.294633  -0.528509  -0.051303  2.396514  -0.082
O  O54  1  0.99618442  0.71642716  0.65059858  1  -0.595216  -0.056299  2.111866  -0.099  -0.563841  -0.040436  2.389948  -0.065  -0.607424  -0.030055  2.379017  -0.049  -0.294632  -0.528599  -0.051308  2.396422  -0.082
O  O55  1  0.49620432  0.78357661  0.34940229  1  -0.595262  -0.056293  2.112193  -0.099  -0.56391  -0.040434  2.390264  -0.065  -0.607491  -0.030053  2.379327  -0.049  -0.294675  -0.528674  -0.051303  2.396751  -0.082
O  O56  1  0.61299479  0.35841978  0.41776568  1  -0.617891  -0.049271  2.088958  -0.085  -0.592335  -0.040764  2.387177  -0.062  -0.633351  -0.031027  2.367622  -0.047  -0.295758  -0.558385  -0.051161  2.399634  -0.077
O  O57  1  0.11300758  0.14158029  0.58223119  1  -0.617861  -0.049273  2.088904  -0.085  -0.59231  -0.040767  2.387178  -0.062  -0.633328  -0.031029  2.367628  -0.047  -0.295765  -0.558361  -0.051164  2.399628  -0.077
O  O58  1  0.38698810  0.64158211  0.58223627  1  -0.617885  -0.049266  2.089019  -0.085  -0.592351  -0.040764  2.387316  -0.062  -0.633366  -0.031027  2.36776  -0.047  -0.295766  -0.558409  -0.051161  2.399769  -0.077
O  O59  1  0.88700433  0.85841682  0.41776986  1  -0.61796  -0.049271  2.088964  -0.085  -0.592374  -0.040765  2.387138  -0.062  -0.633391  -0.031028  2.367582  -0.047  -0.295756  -0.55843  -0.051164  2.39959  -0.077
O  O60  1  0.65147802  0.12359839  0.42920991  1  -0.607921  -0.047098  2.139131  -0.078  -0.570202  -0.036391  2.427682  -0.052  -0.610249  -0.027214  2.408356  -0.038  -0.297415  -0.538271  -0.045826  2.441079  -0.067
O  O61  1  0.15146617  0.37640254  0.57078699  1  -0.607875  -0.047098  2.139122  -0.078  -0.570194  -0.03639  2.427671  -0.052  -0.610238  -0.027214  2.408335  -0.038  -0.297459  -0.538272  -0.045829  2.441072  -0.067
O  O62  1  0.34853389  0.87640024  0.57078708  1  -0.607898  -0.047095  2.139219  -0.078  -0.570166  -0.03639  2.427801  -0.052  -0.610212  -0.027214  2.408471  -0.038  -0.297477  -0.538248  -0.045828  2.441201  -0.067
O  O63  1  0.84853123  0.62360172  0.42921469  1  -0.607809  -0.047091  2.139141  -0.078  -0.570039  -0.036387  2.427654  -0.052  -0.610081  -0.027211  2.408327  -0.038  -0.297423  -0.538119  -0.045822  2.441059  -0.067
O  O64  1  0.30721069  0.00714356  0.37010656  1  -0.632083  -0.046495  2.17564  -0.079  -0.601794  -0.036944  2.480439  -0.055  -0.641591  -0.027651  2.459682  -0.04  -0.306259  -0.569553  -0.046671  2.494513  -0.07
O  O65  1  0.80720445  0.49285853  0.62989652  1  -0.632059  -0.046503  2.175517  -0.079  -0.601764  -0.036947  2.480271  -0.055  -0.641565  -0.027651  2.459517  -0.04  -0.306208  -0.569529  -0.046677  2.494349  -0.07
O  O66  1  0.69279915  0.99285668  0.62989218  1  -0.631979  -0.046504  2.175419  -0.079  -0.601685  -0.036946  2.480242  -0.055  -0.641484  -0.027652  2.459489  -0.04  -0.306187  -0.569446  -0.046677  2.494312  -0.07
O  O67  1  0.19280539  0.50715058  0.37011040  1  -0.631986  -0.046505  2.175639  -0.079  -0.601694  -0.036947  2.480467  -0.055  -0.641496  -0.027652  2.459719  -0.04  -0.306162  -0.569458  -0.046676  2.494546  -0.07
