# generated using pymatgen
data_AgH2C3SO2
_symmetry_space_group_name_H-M   'P 1'
_cell_length_a   5.47300094
_cell_length_b   12.35188199
_cell_length_c   12.65281508
_cell_angle_alpha   94.83188338
_cell_angle_beta   90.00026439
_cell_angle_gamma   89.99985341
_symmetry_Int_Tables_number   1
_chemical_formula_structural   AgH2C3SO2
_chemical_formula_sum   'Ag8 H16 C24 S8 O16'
_cell_volume   852.31404870
_cell_formula_units_Z   8
loop_
 _symmetry_equiv_pos_site_id
 _symmetry_equiv_pos_as_xyz
  1  'x, y, z'
loop_
 _atom_site_type_symbol
 _atom_site_label
 _atom_site_symmetry_multiplicity
 _atom_site_fract_x
 _atom_site_fract_y
 _atom_site_fract_z
 _atom_site_occupancy
 _atom_site_hle17_bader_spin_density
 _atom_site_hle17_ddec_charge
 _atom_site_hle17_ddec_spin_density
 _atom_site_hle17_ddec_sum_bond_order
 _atom_site_hle17_magmom
 _atom_site_hse06_10hf_bader_spin_density
 _atom_site_hse06_10hf_ddec_charge
 _atom_site_hse06_10hf_ddec_spin_density
 _atom_site_hse06_10hf_ddec_sum_bond_order
 _atom_site_hse06_10hf_magmom
 _atom_site_hse06_bader_spin_density
 _atom_site_hse06_ddec_charge
 _atom_site_hse06_ddec_spin_density
 _atom_site_hse06_ddec_sum_bond_order
 _atom_site_hse06_magmom
 _atom_site_pbe_bader_spin_density
 _atom_site_pbe_cm5_charge
 _atom_site_pbe_ddec_charge
 _atom_site_pbe_ddec_spin_density
 _atom_site_pbe_ddec_sum_bond_order
 _atom_site_pbe_magmom
Ag  Ag0  1  0.14598148  0.12107691  0.97975299  1  0  0.490243  0  1.540513  0  0  0.383625  0  1.994961  0  0  0.407321  0  1.947688  0  0  0.407354  0.3669  0  2.027735  0
Ag  Ag1  1  0.64598837  0.37893047  0.02024155  1  0  0.490168  0  1.540392  0  0  0.383573  0  1.994811  0  0  0.40727  0  1.947542  0  0  0.407347  0.366845  0  2.027585  0
Ag  Ag2  1  0.85402463  0.87892372  0.02024065  1  0  0.490214  0  1.540442  0  0  0.383621  0  1.994857  0  0  0.407321  0  1.947586  0  0  0.407374  0.366896  0  2.027631  0
Ag  Ag3  1  0.35402321  0.62107830  0.97975905  1  0  0.49018  0  1.54047  0  0  0.38358  0  1.994887  0  0  0.407275  0  1.947619  0  0  0.407333  0.366852  0  2.027662  0
Ag  Ag4  1  0.78558199  0.90945679  0.49443598  1  0  0.546662  0  1.465673  0  0  0.427221  0  1.926524  0  0  0.456942  0  1.874632  0  0  0.408434  0.40622  0  1.962508  0
Ag  Ag5  1  0.28558117  0.59054612  0.50556524  1  0  0.546675  0  1.465505  0  0  0.427254  0  1.926316  0  0  0.456969  0  1.874423  0  0  0.408438  0.406252  0  1.962303  0
Ag  Ag6  1  0.21441315  0.09054386  0.50556319  1  0  0.546721  0  1.465557  0  0  0.42728  0  1.926367  0  0  0.456999  0  1.874478  0  0  0.408468  0.406277  0  1.962351  0
Ag  Ag7  1  0.71441763  0.40945046  0.49443361  1  0  0.546626  0  1.465538  0  0  0.427207  0  1.926346  0  0  0.456925  0  1.874454  0  0  0.408428  0.406207  0  1.96233  0
H  H8  1  0.85700345  0.58119599  0.66182662  1  0  0.121064  0  0.924419  0  0  0.134462  0  0.98923  0  0  0.136906  0  0.987083  0  0  0.104809  0.13256  0  0.991047  0
H  H9  1  0.35699907  0.91880197  0.33817435  1  0  0.120986  0  0.924444  0  0  0.134401  0  0.989273  0  0  0.136842  0  0.987131  0  0  0.104775  0.132494  0  0.991087  0
H  H10  1  0.14299535  0.41879897  0.33817368  1  0  0.121004  0  0.924471  0  0  0.134396  0  0.98929  0  0  0.136836  0  0.987149  0  0  0.104793  0.132491  0  0.991105  0
H  H11  1  0.64298876  0.08120275  0.66182989  1  0  0.120971  0  0.924523  0  0  0.134403  0  0.989304  0  0  0.136846  0  0.987156  0  0  0.104773  0.132503  0  0.991117  0
H  H12  1  0.58439294  0.56805490  0.73785503  1  0  0.125789  0  0.948944  0  0  0.136904  0  1.010884  0  0  0.139227  0  1.010083  0  0  0.103622  0.135139  0  1.011637  0
H  H13  1  0.08439133  0.93194008  0.26214120  1  0  0.125769  0  0.948899  0  0  0.136905  0  1.01085  0  0  0.139226  0  1.010049  0  0  0.10361  0.135135  0  1.0116  0
H  H14  1  0.41560951  0.43194167  0.26213907  1  0  0.12576  0  0.949004  0  0  0.13687  0  1.010941  0  0  0.139188  0  1.010147  0  0  0.10361  0.135103  0  1.011692  0
H  H15  1  0.91560563  0.06805976  0.73786028  1  0  0.125787  0  0.948978  0  0  0.136873  0  1.010936  0  0  0.139195  0  1.010134  0  0  0.103607  0.135108  0  1.011689  0
H  H16  1  0.94581844  0.64403106  0.84860808  1  0  0.121925  0  0.955391  0  0  0.13485  0  1.019775  0  0  0.137237  0  1.018078  0  0  0.103171  0.133008  0  1.02125  0
H  H17  1  0.44581424  0.85596681  0.15139385  1  0  0.121922  0  0.955405  0  0  0.134869  0  1.019765  0  0  0.137251  0  1.018074  0  0  0.103178  0.133028  0  1.021238  0
H  H18  1  0.05417305  0.35596634  0.15139162  1  0  0.121914  0  0.955403  0  0  0.134892  0  1.019686  0  0  0.13728  0  1.017989  0  0  0.103193  0.133046  0  1.021162  0
H  H19  1  0.55417908  0.14403710  0.84861191  1  0  0.121957  0  0.955328  0  0  0.13489  0  1.019665  0  0  0.137279  0  1.017971  0  0  0.103158  0.133043  0  1.021146  0
H  H20  1  0.95332365  0.75830459  0.76976003  1  0  0.114417  0  0.962046  0  0  0.125551  0  1.025477  0  0  0.126634  0  1.026977  0  0  0.09917  0.124722  0  1.024511  0
H  H21  1  0.45333187  0.74169490  0.23024599  1  0  0.114399  0  0.962041  0  0  0.12556  0  1.025449  0  0  0.12664  0  1.026948  0  0  0.099166  0.124731  0  1.02448  0
H  H22  1  0.04667698  0.24169524  0.23024144  1  0  0.114397  0  0.96209  0  0  0.125524  0  1.025511  0  0  0.126608  0  1.027012  0  0  0.099178  0.124691  0  1.024543  0
H  H23  1  0.54667606  0.25830820  0.76975970  1  0  0.11435  0  0.962125  0  0  0.125472  0  1.025552  0  0  0.126556  0  1.027054  0  0  0.099147  0.124641  0  1.024581  0
C  C24  1  0.26354926  0.87957749  0.63056484  1  0  0.654214  0  3.945185  0  0  0.598145  0  4.242768  0  0  0.632343  0  4.237189  0  0  0.199831  0.574829  0  4.245655  0
C  C25  1  0.76351377  0.62042704  0.36942777  1  0  0.654018  0  3.945508  0  0  0.597946  0  4.24308  0  0  0.632146  0  4.237509  0  0  0.199723  0.574638  0  4.24596  0
C  C26  1  0.73647511  0.12042720  0.36943071  1  0  0.654142  0  3.945624  0  0  0.598165  0  4.243076  0  0  0.632355  0  4.237503  0  0  0.19988  0.574854  0  4.245956  0
C  C27  1  0.23649051  0.37956954  0.63057108  1  0  0.653988  0  3.945971  0  0  0.59805  0  4.243354  0  0  0.632246  0  4.237782  0  0  0.199875  0.574742  0  4.24623  0
C  C28  1  0.42335975  0.81215027  0.69779557  1  0  -0.086572  0  3.671896  0  0  -0.075927  0  3.931924  0  0  -0.072366  0  3.944843  0  0  -0.012551  -0.078798  0  3.923754  0
C  C29  1  0.92335972  0.68784762  0.30220632  1  0  -0.086707  0  3.671888  0  0  -0.076008  0  3.931884  0  0  -0.072489  0  3.94484  0  0  -0.01255  -0.078881  0  3.923713  0
C  C30  1  0.57662991  0.18784794  0.30220420  1  0  -0.086585  0  3.671831  0  0  -0.075946  0  3.931884  0  0  -0.072381  0  3.944788  0  0  -0.01252  -0.078822  0  3.923718  0
C  C31  1  0.07663177  0.31215059  0.69779503  1  0  -0.086577  0  3.671774  0  0  -0.075897  0  3.931742  0  0  -0.072365  0  3.94469  0  0  -0.012547  -0.07877  0  3.923569  0
C  C32  1  0.71686657  0.62597458  0.71013874  1  0  -0.126896  0  3.580096  0  0  -0.160133  0  3.830621  0  0  -0.160338  0  3.841168  0  0  -0.145592  -0.159938  0  3.823586  0
C  C33  1  0.21686923  0.87402108  0.28985860  1  0  -0.126836  0  3.580072  0  0  -0.160104  0  3.830678  0  0  -0.160309  0  3.841221  0  0  -0.145596  -0.159881  0  3.823602  0
C  C34  1  0.28313222  0.37402524  0.28985562  1  0  -0.126853  0  3.580215  0  0  -0.160107  0  3.830782  0  0  -0.160308  0  3.84133  0  0  -0.145593  -0.159897  0  3.823714  0
C  C35  1  0.78313139  0.12597876  0.71014209  1  0  -0.126827  0  3.580184  0  0  -0.160038  0  3.830583  0  0  -0.160235  0  3.841133  0  0  -0.145551  -0.159843  0  3.823542  0
C  C36  1  0.83703494  0.69534435  0.79973773  1  0  -0.141928  0  3.617015  0  0  -0.173518  0  3.864768  0  0  -0.174883  0  3.877871  0  0  -0.153227  -0.172589  0  3.855989  0
C  C37  1  0.33704067  0.80465607  0.20026655  1  0  -0.141856  0  3.616988  0  0  -0.173508  0  3.864916  0  0  -0.174859  0  3.878002  0  0  -0.153185  -0.172593  0  3.856138  0
C  C38  1  0.16294924  0.30465221  0.20025479  1  0  -0.141979  0  3.617047  0  0  -0.1735  0  3.864646  0  0  -0.174866  0  3.877749  0  0  -0.153271  -0.172563  0  3.855846  0
C  C39  1  0.66295264  0.19534947  0.79974328  1  0  -0.141935  0  3.61704  0  0  -0.173437  0  3.864621  0  0  -0.174817  0  3.877747  0  0  -0.153201  -0.172501  0  3.855834  0
C  C40  1  0.44364711  0.83630796  0.80396864  1  0  -0.132582  0  3.685819  0  0  -0.120352  0  3.946286  0  0  -0.125338  0  3.962957  0  0  -0.030435  -0.117507  0  3.935617  0
C  C41  1  0.94364060  0.66369315  0.19603037  1  0  -0.132597  0  3.685917  0  0  -0.120435  0  3.946454  0  0  -0.125388  0  3.963101  0  0  -0.030476  -0.117591  0  3.935782  0
C  C42  1  0.55634803  0.16368943  0.19602869  1  0  -0.132623  0  3.686007  0  0  -0.120473  0  3.946629  0  0  -0.125451  0  3.96328  0  0  -0.030462  -0.117626  0  3.935953  0
C  C43  1  0.05635637  0.33630992  0.80396583  1  0  -0.132499  0  3.685954  0  0  -0.120384  0  3.946561  0  0  -0.125347  0  3.963214  0  0  -0.030488  -0.11754  0  3.935888  0
C  C44  1  0.31784781  0.93085723  0.86267316  1  0  0.643175  0  3.943153  0  0  0.592751  0  4.230809  0  0  0.627509  0  4.224332  0  0  0.184307  0.569066  0  4.234458  0
C  C45  1  0.81783753  0.56913429  0.13733828  1  0  0.643152  0  3.943603  0  0  0.592797  0  4.231189  0  0  0.627548  0  4.224713  0  0  0.184415  0.569112  0  4.234837  0
C  C46  1  0.68216743  0.06912234  0.13734568  1  0  0.643047  0  3.943964  0  0  0.592684  0  4.231561  0  0  0.627437  0  4.225083  0  0  0.184328  0.569001  0  4.235207  0
C  C47  1  0.18216857  0.43086391  0.86265990  1  0  0.642504  0  3.943904  0  0  0.592148  0  4.231509  0  0  0.626897  0  4.225043  0  0  0.184122  0.568465  0  4.235148  0
S  S48  1  0.56615878  0.70878041  0.61744564  1  0  0.066835  0  2.841698  0  0  0.082174  0  3.282888  0  0  0.07743  0  3.269546  0  0  0.025915  0.085404  0  3.292313  0
S  S49  1  0.06615556  0.79122274  0.38255911  1  0  0.06684  0  2.841557  0  0  0.082193  0  3.282766  0  0  0.077459  0  3.26943  0  0  0.025905  0.08541  0  3.292178  0
S  S50  1  0.43383088  0.29122266  0.38254977  1  0  0.066853  0  2.841677  0  0  0.082195  0  3.282874  0  0  0.077443  0  3.26952  0  0  0.025883  0.085417  0  3.292292  0
S  S51  1  0.93383593  0.20877791  0.61744401  1  0  0.066821  0  2.841577  0  0  0.082128  0  3.282758  0  0  0.077387  0  3.269413  0  0  0.025885  0.085355  0  3.292181  0
S  S52  1  0.61761997  0.76180672  0.89008574  1  0  0.071352  0  3.071355  0  0  0.094691  0  3.55199  0  0  0.091974  0  3.535581  0  0  -0.000735  0.096555  0  3.563438  0
S  S53  1  0.11761596  0.73819068  0.10991629  1  0  0.071357  0  3.071317  0  0  0.094737  0  3.552003  0  0  0.092009  0  3.535576  0  0  -0.000713  0.096597  0  3.563456  0
S  S54  1  0.38239162  0.23818742  0.10991134  1  0  0.07145  0  3.071317  0  0  0.094787  0  3.551981  0  0  0.092067  0  3.535569  0  0  -0.000701  0.096643  0  3.563422  0
S  S55  1  0.88239197  0.26181240  0.89008229  1  0  0.071376  0  3.071293  0  0  0.094711  0  3.551953  0  0  0.091992  0  3.535545  0  0  -0.000717  0.09657  0  3.563394  0
O  O56  1  0.37437095  0.92719885  0.55795691  1  0  -0.637296  0  2.180345  0  0  -0.550234  0  2.467968  0  0  -0.582981  0  2.454041  0  0  -0.333542  -0.527134  0  2.476692  0
O  O57  1  0.87437668  0.57280154  0.44204902  1  0  -0.637304  0  2.179587  0  0  -0.550302  0  2.467281  0  0  -0.58304  0  2.453302  0  0  -0.33353  -0.527196  0  2.476001  0
O  O58  1  0.62561689  0.07280667  0.44204264  1  0  -0.637354  0  2.180007  0  0  -0.550401  0  2.467694  0  0  -0.583138  0  2.453728  0  0  -0.333633  -0.527297  0  2.476411  0
O  O59  1  0.12562211  0.42719262  0.55795754  1  0  -0.637329  0  2.179942  0  0  -0.550412  0  2.467615  0  0  -0.583156  0  2.453655  0  0  -0.333654  -0.527305  0  2.476332  0
O  O60  1  0.03732063  0.87887478  0.64633445  1  0  -0.594659  0  2.061297  0  0  -0.532068  0  2.319077  0  0  -0.56266  0  2.313036  0  0  -0.305237  -0.510482  0  2.322388  0
O  O61  1  0.53735805  0.62112432  0.35366359  1  0  -0.594387  0  2.062275  0  0  -0.531738  0  2.319938  0  0  -0.562309  0  2.313893  0  0  -0.305135  -0.510164  0  2.323248  0
O  O62  1  0.96265441  0.12112749  0.35366564  1  0  -0.594506  0  2.062037  0  0  -0.53188  0  2.319659  0  0  -0.562459  0  2.313622  0  0  -0.305179  -0.510302  0  2.322966  0
O  O63  1  0.46264075  0.37887144  0.64633282  1  0  -0.594291  0  2.062431  0  0  -0.531702  0  2.32004  0  0  -0.562275  0  2.313995  0  0  -0.305106  -0.51013  0  2.323348  0
O  O64  1  0.26976490  0.01468734  0.81565050  1  0  -0.586341  0  1.986193  0  0  -0.517283  0  2.219761  0  0  -0.545695  0  2.212163  0  0  -0.313318  -0.497218  0  2.224255  0
O  O65  1  0.76976201  0.48532157  0.18435548  1  0  -0.586001  0  1.986673  0  0  -0.517059  0  2.220296  0  0  -0.545461  0  2.212693  0  0  -0.313269  -0.497001  0  2.224794  0
O  O66  1  0.73024486  0.98532307  0.18435419  1  0  -0.585888  0  1.987338  0  0  -0.516947  0  2.221005  0  0  -0.545344  0  2.213398  0  0  -0.313181  -0.496891  0  2.225488  0
O  O67  1  0.23024410  0.51468962  0.81563742  1  0  -0.585822  0  1.986302  0  0  -0.516815  0  2.219843  0  0  -0.545224  0  2.212255  0  0  -0.313112  -0.496753  0  2.224331  0
O  O68  1  0.27458873  0.92115561  0.96111069  1  0  -0.649443  0  2.056597  0  0  -0.580906  0  2.33254  0  0  -0.609326  0  2.318064  0  0  -0.341994  -0.560776  0  2.341769  0
O  O69  1  0.77457370  0.57883431  0.03889106  1  0  -0.649621  0  2.056621  0  0  -0.581071  0  2.332534  0  0  -0.609478  0  2.318006  0  0  -0.342079  -0.560936  0  2.34176  0
O  O70  1  0.72543930  0.07883447  0.03888844  1  0  -0.649675  0  2.056311  0  0  -0.581143  0  2.3323  0  0  -0.609553  0  2.317758  0  0  -0.342132  -0.561005  0  2.341524  0
O  O71  1  0.22543424  0.42116630  0.96109784  1  0  -0.649252  0  2.056917  0  0  -0.580756  0  2.332898  0  0  -0.609176  0  2.318427  0  0  -0.341992  -0.560624  0  2.342121  0
