# generated using pymatgen
data_ZnH12C24(N2O3)4
_symmetry_space_group_name_H-M   'P 1'
_cell_length_a   8.93490040
_cell_length_b   12.46190168
_cell_length_c   13.18207121
_cell_angle_alpha   101.43910840
_cell_angle_beta   92.68480704
_cell_angle_gamma   102.05463874
_symmetry_Int_Tables_number   1
_chemical_formula_structural   ZnH12C24(N2O3)4
_chemical_formula_sum   'Zn2 H24 C48 N16 O24'
_cell_volume   1400.91315314
_cell_formula_units_Z   2
loop_
 _symmetry_equiv_pos_site_id
 _symmetry_equiv_pos_as_xyz
  1  'x, y, z'
loop_
 _atom_site_type_symbol
 _atom_site_label
 _atom_site_symmetry_multiplicity
 _atom_site_fract_x
 _atom_site_fract_y
 _atom_site_fract_z
 _atom_site_occupancy
 _atom_site_hle17_bader_spin_density
 _atom_site_hle17_ddec_charge
 _atom_site_hle17_ddec_spin_density
 _atom_site_hle17_ddec_sum_bond_order
 _atom_site_hle17_magmom
 _atom_site_hse06_10hf_bader_spin_density
 _atom_site_hse06_10hf_ddec_charge
 _atom_site_hse06_10hf_ddec_spin_density
 _atom_site_hse06_10hf_ddec_sum_bond_order
 _atom_site_hse06_10hf_magmom
 _atom_site_hse06_bader_spin_density
 _atom_site_hse06_ddec_charge
 _atom_site_hse06_ddec_spin_density
 _atom_site_hse06_ddec_sum_bond_order
 _atom_site_hse06_magmom
 _atom_site_pbe_bader_spin_density
 _atom_site_pbe_cm5_charge
 _atom_site_pbe_ddec_charge
 _atom_site_pbe_ddec_spin_density
 _atom_site_pbe_ddec_sum_bond_order
 _atom_site_pbe_magmom
Zn  Zn0  1  0.39887411  0.65167735  0.55747320  1  0  0.967791  0  1.840573  0  0  0.772383  0  2.306251  0  0  0.820607  0  2.252569  0  0  0.704815  0.738749  0  2.343057  0
Zn  Zn1  1  0.60112518  0.34832309  0.44252913  1  0  0.967827  0  1.840605  0  0  0.772405  0  2.306279  0  0  0.820636  0  2.252594  0  0  0.704826  0.738776  0  2.343083  0
H  H2  1  0.14202912  0.76628399  0.52392362  1  0  0.133792  0  0.927797  0  0  0.136256  0  0.995501  0  0  0.140525  0  0.99232  0  0  0.129185  0.133125  0  0.998006  0
H  H3  1  0.85796356  0.23371306  0.47608014  1  0  0.133754  0  0.927794  0  0  0.136228  0  0.995507  0  0  0.140498  0  0.992324  0  0  0.129184  0.133096  0  0.998015  0
H  H4  1  0.53954351  0.84411847  0.72942303  1  0  0.132278  0  0.948022  0  0  0.13731  0  1.012538  0  0  0.141793  0  1.008944  0  0  0.126369  0.134026  0  1.015336  0
H  H5  1  0.46046204  0.15588033  0.27057847  1  0  0.132265  0  0.94807  0  0  0.137325  0  1.012537  0  0  0.141809  0  1.008938  0  0  0.126371  0.13404  0  1.015337  0
H  H6  1  0.11591865  0.50510866  0.59015661  1  0  0.128609  0  0.916303  0  0  0.136169  0  0.976706  0  0  0.140138  0  0.973292  0  0  0.130161  0.133249  0  0.979364  0
H  H7  1  0.88408490  0.49489095  0.40984345  1  0  0.12859  0  0.916328  0  0  0.136139  0  0.976729  0  0  0.140113  0  0.973313  0  0  0.130147  0.133218  0  0.979387  0
H  H8  1  0.56092788  0.57940936  0.73973322  1  0  0.130196  0  0.953389  0  0  0.129439  0  1.028556  0  0  0.133801  0  1.025476  0  0  0.123067  0.126235  0  1.031042  0
H  H9  1  0.43908060  0.42058773  0.26026049  1  0  0.130084  0  0.953374  0  0  0.129314  0  1.028585  0  0  0.133674  0  1.025503  0  0  0.12303  0.126108  0  1.031078  0
H  H10  1  0.09258546  0.30068021  0.26581757  1  0  0.117465  0  0.962613  0  0  0.113791  0  1.041376  0  0  0.118951  0  1.036463  0  0  0.113579  0.110004  0  1.045134  0
H  H11  1  0.90741724  0.69931270  0.73418353  1  0  0.117487  0  0.962641  0  0  0.1138  0  1.04139  0  0  0.118963  0  1.03648  0  0  0.113583  0.110011  0  1.045151  0
H  H12  1  0.67612809  0.17485648  0.08037027  1  0  0.100609  0  0.949159  0  0  0.10387  0  1.020174  0  0  0.107686  0  1.018406  0  0  0.109224  0.101104  0  1.021674  0
H  H13  1  0.32386961  0.82513474  0.91963185  1  0  0.100497  0  0.949231  0  0  0.1038  0  1.020203  0  0  0.107614  0  1.018437  0  0  0.109173  0.101039  0  1.021677  0
H  H14  1  0.09167019  0.14364736  0.57377083  1  0  0.153403  0  0.930405  0  0  0.159562  0  0.994014  0  0  0.163848  0  0.990979  0  0  0.117295  0.156443  0  0.996385  0
H  H15  1  0.90832527  0.85635135  0.42622726  1  0  0.153457  0  0.930276  0  0  0.159579  0  0.993919  0  0  0.163862  0  0.990888  0  0  0.11732  0.156458  0  0.996291  0
H  H16  1  0.87857986  0.29440516  0.83527257  1  0  0.149222  0  0.912903  0  0  0.160045  0  0.968514  0  0  0.164036  0  0.966108  0  0  0.121227  0.157176  0  0.970371  0
H  H17  1  0.12141499  0.70559521  0.16472428  1  0  0.149234  0  0.912814  0  0  0.160013  0  0.968492  0  0  0.164005  0  0.966085  0  0  0.121209  0.157141  0  0.970347  0
H  H18  1  0.89207869  0.94253731  0.78625248  1  0  0.140718  0  0.940562  0  0  0.148095  0  1.005914  0  0  0.1514  0  1.004325  0  0  0.11287  0.145696  0  1.007179  0
H  H19  1  0.10792087  0.05746395  0.21374697  1  0  0.140644  0  0.940558  0  0  0.148041  0  1.005896  0  0  0.151345  0  1.004309  0  0  0.112856  0.14564  0  1.007164  0
H  H20  1  0.33668344  0.06293314  0.01029484  1  0  0.146717  0  0.935664  0  0  0.151683  0  1.003954  0  0  0.156214  0  1.000628  0  0  0.114155  0.148465  0  1.006369  0
H  H21  1  0.66330834  0.93707227  0.98970888  1  0  0.146676  0  0.935657  0  0  0.151666  0  1.003962  0  0  0.156196  0  1.000635  0  0  0.114155  0.148447  0  1.006379  0
H  H22  1  0.35550972  0.41319753  0.01611355  1  0  0.151289  0  0.924164  0  0  0.160682  0  0.981998  0  0  0.165045  0  0.979112  0  0  0.118901  0.157545  0  0.984145  0
H  H23  1  0.64449171  0.58680624  0.98388491  1  0  0.151251  0  0.924244  0  0  0.16065  0  0.982076  0  0  0.165015  0  0.979191  0  0  0.118896  0.157508  0  0.984222  0
H  H24  1  0.54621269  0.21692205  0.76848349  1  0  0.15651  0  0.927322  0  0  0.165383  0  0.987727  0  0  0.169513  0  0.984853  0  0  0.118248  0.162405  0  0.989924  0
H  H25  1  0.45378812  0.78307588  0.23151769  1  0  0.156501  0  0.927326  0  0  0.165373  0  0.98774  0  0  0.169502  0  0.984869  0  0  0.11825  0.162394  0  0.989936  0
C  C26  1  0.17135454  0.91878207  0.64571604  1  0  0.441092  0  3.790478  0  0  0.415727  0  4.065937  0  0  0.433954  0  4.072788  0  0  0.235763  0.403005  0  4.061507  0
C  C27  1  0.82864350  0.08122170  0.35428609  1  0  0.440889  0  3.790632  0  0  0.415609  0  4.066009  0  0  0.433819  0  4.072875  0  0  0.235729  0.402899  0  4.061563  0
C  C28  1  0.21294527  0.82251511  0.59049882  1  0  -0.031528  0  3.610351  0  0  -0.079486  0  3.879102  0  0  -0.078949  0  3.891593  0  0  0.04165  -0.080142  0  3.871224  0
C  C29  1  0.78705328  0.17748281  0.40950379  1  0  -0.031419  0  3.610263  0  0  -0.079431  0  3.879067  0  0  -0.078889  0  3.891562  0  0  0.04165  -0.080088  0  3.871192  0
C  C30  1  0.43398871  0.86614904  0.70521424  1  0  -0.055177  0  3.639867  0  0  -0.104031  0  3.906516  0  0  -0.104358  0  3.920031  0  0  0.029677  -0.10405  0  3.897814  0
C  C31  1  0.56601507  0.13385142  0.29478902  1  0  -0.055209  0  3.639857  0  0  -0.104009  0  3.906522  0  0  -0.104336  0  3.920041  0  0  0.029715  -0.104027  0  3.897819  0
C  C32  1  0.38742155  0.96178775  0.75607520  1  0  0.435777  0  3.824064  0  0  0.411052  0  4.100212  0  0  0.42879  0  4.107604  0  0  0.231187  0.398761  0  4.095337  0
C  C33  1  0.61257613  0.03821099  0.24392677  1  0  0.436004  0  3.823926  0  0  0.411168  0  4.100186  0  0  0.428896  0  4.107584  0  0  0.231202  0.398881  0  4.095304  0
C  C34  1  0.15966884  0.39565104  0.69277959  1  0  0.450944  0  3.795184  0  0  0.42182  0  4.074758  0  0  0.440513  0  4.080366  0  0  0.236021  0.408778  0  4.071243  0
C  C35  1  0.84033409  0.60435024  0.30721999  1  0  0.45105  0  3.795384  0  0  0.421866  0  4.074994  0  0  0.440561  0  4.0806  0  0  0.23602  0.408829  0  4.07147  0
C  C36  1  0.19754390  0.48696028  0.64448623  1  0  -0.026697  0  3.627788  0  0  -0.076197  0  3.899126  0  0  -0.074985  0  3.910738  0  0  0.037622  -0.077359  0  3.891883  0
C  C37  1  0.80246178  0.51304269  0.35551300  1  0  -0.026749  0  3.627871  0  0  -0.076209  0  3.899156  0  0  -0.075  0  3.910781  0  0  0.037622  -0.077374  0  3.891911  0
C  C38  1  0.44459314  0.52801797  0.72799932  1  0  -0.04764  0  3.621581  0  0  -0.096761  0  3.892256  0  0  -0.097367  0  3.906974  0  0  0.027962  -0.096658  0  3.882799  0
C  C39  1  0.55541645  0.47197915  0.27199671  1  0  -0.047549  0  3.621713  0  0  -0.096607  0  3.892378  0  0  -0.097209  0  3.907113  0  0  0.027956  -0.096495  0  3.882934  0
C  C40  1  0.39796471  0.43820872  0.77715120  1  0  0.436547  0  3.790646  0  0  0.410925  0  4.066638  0  0  0.428581  0  4.074393  0  0  0.228483  0.398635  0  4.061628  0
C  C41  1  0.60203686  0.56179170  0.22284666  1  0  0.436669  0  3.790653  0  0  0.410852  0  4.066861  0  0  0.428508  0  4.074613  0  0  0.228466  0.398533  0  4.061862  0
C  C42  1  0.88318514  0.16215242  0.00259560  1  0  0.408893  0  3.82985  0  0  0.385419  0  4.104235  0  0  0.402496  0  4.112797  0  0  0.214663  0.373523  0  4.098581  0
C  C43  1  0.11681218  0.83784881  0.99740302  1  0  0.408825  0  3.829929  0  0  0.385361  0  4.104318  0  0  0.402436  0  4.11288  0  0  0.214635  0.373472  0  4.098667  0
C  C44  1  0.10855501  0.23035676  0.10245477  1  0  0.41765  0  3.790813  0  0  0.395332  0  4.060968  0  0  0.412891  0  4.069  0  0  0.223617  0.38309  0  4.055693  0
C  C45  1  0.89144505  0.76964617  0.89754425  1  0  0.41753  0  3.791101  0  0  0.39531  0  4.06109  0  0  0.41287  0  4.069122  0  0  0.223656  0.383066  0  4.055812  0
C  C46  1  0.03064887  0.26024828  0.19038528  1  0  -0.054942  0  3.686942  0  0  -0.090799  0  3.963201  0  0  -0.092864  0  3.976162  0  0  0.025607  -0.089711  0  3.954901  0
C  C47  1  0.96934895  0.73974711  0.80961609  1  0  -0.054979  0  3.68705  0  0  -0.090793  0  3.963166  0  0  -0.092863  0  3.976131  0  0  0.025601  -0.089709  0  3.954861  0
C  C48  1  0.80136435  0.19069594  0.08810477  1  0  -0.077859  0  3.730629  0  0  -0.114446  0  4.006309  0  0  -0.117009  0  4.021403  0  0  0.013414  -0.113017  0  3.99644  0
C  C49  1  0.19863297  0.80929778  0.91189780  1  0  -0.077722  0  3.730632  0  0  -0.114341  0  4.006286  0  0  -0.116903  0  4.021383  0  0  0.013499  -0.112907  0  3.99642  0
C  C50  1  0.99457653  0.03463413  0.67447799  1  0  0.313648  0  3.780937  0  0  0.308208  0  4.044642  0  0  0.318766  0  4.060647  0  0  0.087538  0.300955  0  4.03374  0
C  C51  1  0.00542030  0.96536542  0.32552030  1  0  0.313733  0  3.780824  0  0  0.308192  0  4.044636  0  0  0.31875  0  4.060641  0  0  0.087563  0.300937  0  4.033736  0
C  C52  1  0.03096441  0.13577828  0.64246370  1  0  -0.263983  0  3.687943  0  0  -0.306508  0  3.95123  0  0  -0.312967  0  3.967436  0  0  -0.101124  -0.302133  0  3.940394  0
C  C53  1  0.96903339  0.86422464  0.35753676  1  0  -0.264121  0  3.687747  0  0  -0.306558  0  3.951076  0  0  -0.31302  0  3.967277  0  0  -0.101202  -0.302187  0  3.940243  0
C  C54  1  0.98765227  0.22761750  0.70215567  1  0  0.320926  0  3.779881  0  0  0.312884  0  4.047398  0  0  0.323131  0  4.064382  0  0  0.090485  0.305851  0  4.035868  0
C  C55  1  0.01234840  0.77238377  0.29784611  1  0  0.321051  0  3.779699  0  0  0.312995  0  4.047205  0  0  0.32325  0  4.064179  0  0  0.090572  0.305971  0  4.035669  0
C  C56  1  0.91143054  0.22092919  0.79075992  1  0  -0.255885  0  3.686268  0  0  -0.298639  0  3.949605  0  0  -0.304812  0  3.965537  0  0  -0.09554  -0.294495  0  3.938997  0
C  C57  1  0.08856429  0.77907119  0.20923921  1  0  -0.255962  0  3.686178  0  0  -0.298697  0  3.94955  0  0  -0.304876  0  3.965485  0  0  -0.095579  -0.294549  0  3.93893  0
C  C58  1  0.87916615  0.11762356  0.82009257  1  0  0.317127  0  3.779552  0  0  0.309279  0  4.047615  0  0  0.320002  0  4.063049  0  0  0.08763  0.301876  0  4.037139  0
C  C59  1  0.12083478  0.88237854  0.17990709  1  0  0.317113  0  3.779491  0  0  0.309301  0  4.047512  0  0  0.320024  0  4.062949  0  0  0.087692  0.301899  0  4.037034  0
C  C60  1  0.91752086  0.02261508  0.76234750  1  0  -0.257823  0  3.678861  0  0  -0.297871  0  3.937575  0  0  -0.303989  0  3.954035  0  0  -0.09925  -0.293712  0  3.926587  0
C  C61  1  0.08248318  0.97738621  0.23765364  1  0  -0.257758  0  3.678784  0  0  -0.297803  0  3.937533  0  0  -0.303923  0  3.953998  0  0  -0.09926  -0.293646  0  3.926548  0
C  C62  1  0.44395088  0.12996932  0.88516444  1  0  0.317144  0  3.772977  0  0  0.30855  0  4.044283  0  0  0.319297  0  4.059795  0  0  0.089853  0.301224  0  4.03375  0
C  C63  1  0.55605226  0.87003283  0.11484061  1  0  0.317199  0  3.772964  0  0  0.308601  0  4.044243  0  0  0.319339  0  4.059764  0  0  0.089915  0.301281  0  4.03371  0
C  C64  1  0.37098694  0.13625230  0.97648540  1  0  -0.267723  0  3.685484  0  0  -0.308735  0  3.949651  0  0  -0.314917  0  3.964937  0  0  -0.100711  -0.304556  0  3.939469  0
C  C65  1  0.62901037  0.86374894  0.02351549  1  0  -0.267622  0  3.685496  0  0  -0.308699  0  3.949632  0  0  -0.31488  0  3.964922  0  0  -0.100734  -0.304524  0  3.939449  0
C  C66  1  0.33946041  0.23917231  0.02159454  1  0  0.313867  0  3.793663  0  0  0.309068  0  4.057487  0  0  0.319003  0  4.074566  0  0  0.087591  0.302195  0  4.045879  0
C  C67  1  0.66054101  0.76083147  0.97840544  1  0  0.313542  0  3.793913  0  0  0.308823  0  4.057687  0  0  0.318758  0  4.074768  0  0  0.087527  0.301957  0  4.046068  0
C  C68  1  0.38155129  0.33378876  0.97948962  1  0  -0.266116  0  3.696669  0  0  -0.30992  0  3.959364  0  0  -0.316501  0  3.976004  0  0  -0.100889  -0.305427  0  3.948187  0
C  C69  1  0.61844877  0.66621417  0.02050940  1  0  -0.265804  0  3.696625  0  0  -0.309657  0  3.959319  0  0  -0.316236  0  3.975959  0  0  -0.100807  -0.305155  0  3.948121  0
C  C70  1  0.45517415  0.32301007  0.88853868  1  0  0.317687  0  3.779228  0  0  0.311211  0  4.045598  0  0  0.321618  0  4.061838  0  0  0.089996  0.3041  0  4.034587  0
C  C71  1  0.54483127  0.67699206  0.11146114  1  0  0.317647  0  3.779368  0  0  0.31115  0  4.045777  0  0  0.321556  0  4.062017  0  0  0.089989  0.304016  0  4.034769  0
C  C72  1  0.48847352  0.22215028  0.83975215  1  0  -0.255614  0  3.661274  0  0  -0.298174  0  3.921882  0  0  -0.304509  0  3.938152  0  0  -0.097011  -0.293857  0  3.910951  0
C  C73  1  0.51152915  0.77785016  0.16024879  1  0  -0.255572  0  3.661406  0  0  -0.298147  0  3.922046  0  0  -0.304476  0  3.93831  0  0  -0.097012  -0.293835  0  3.911122  0
N  N74  1  0.25842223  0.98822457  0.72646740  1  0  -0.442264  0  3.071647  0  0  -0.413488  0  3.326398  0  0  -0.426934  0  3.337414  0  0  -0.310904  -0.404232  0  3.319089  0
N  N75  1  0.74157729  0.01177671  0.27353661  1  0  -0.442235  0  3.071676  0  0  -0.413478  0  3.326454  0  0  -0.426918  0  3.337478  0  0  -0.310859  -0.40422  0  3.319131  0
N  N76  1  0.34488839  0.79903749  0.62237521  1  0  -0.241474  0  3.412233  0  0  -0.157149  0  3.697779  0  0  -0.170197  0  3.712902  0  0  -0.315098  -0.148118  0  3.687569  0
N  N77  1  0.65511204  0.20096294  0.37762565  1  0  -0.24145  0  3.412128  0  0  -0.157167  0  3.697754  0  0  -0.170214  0  3.712875  0  0  -0.31509  -0.148137  0  3.687551  0
N  N78  1  0.34139468  0.54942324  0.66146605  1  0  -0.242124  0  3.37807  0  0  -0.158547  0  3.659374  0  0  -0.171808  0  3.675532  0  0  -0.315571  -0.14929  0  3.648443  0
N  N79  1  0.65861066  0.45057469  0.33853074  1  0  -0.242118  0  3.378166  0  0  -0.158512  0  3.6594  0  0  -0.171794  0  3.675579  0  0  -0.315516  -0.149263  0  3.64848  0
N  N80  1  0.25814882  0.37188866  0.75865601  1  0  -0.441767  0  3.060697  0  0  -0.411663  0  3.315099  0  0  -0.424615  0  3.324703  0  0  -0.311555  -0.402728  0  3.308759  0
N  N81  1  0.74185360  0.62811095  0.24134629  1  0  -0.441826  0  3.060761  0  0  -0.411634  0  3.315225  0  0  -0.424587  0  3.324829  0  0  -0.311519  -0.402699  0  3.308888  0
N  N82  1  0.87712099  0.23957395  0.18140125  1  0  -0.219764  0  3.143444  0  0  -0.185737  0  3.417645  0  0  -0.191301  0  3.436829  0  0  -0.308709  -0.181342  0  3.40443  0
N  N83  1  0.12287871  0.76041644  0.81860156  1  0  -0.219758  0  3.143363  0  0  -0.185772  0  3.417576  0  0  -0.191336  0  3.43676  0  0  -0.308748  -0.181379  0  3.40436  0
N  N84  1  0.03566644  0.18212193  0.00937961  1  0  -0.451893  0  3.089864  0  0  -0.420258  0  3.342389  0  0  -0.43449  0  3.354125  0  0  -0.31925  -0.410446  0  3.334535  0
N  N85  1  0.96433274  0.81788183  0.99061953  1  0  -0.451824  0  3.089907  0  0  -0.420227  0  3.342384  0  0  -0.434458  0  3.354119  0  0  -0.31926  -0.410415  0  3.334533  0
N  N86  1  0.70774792  0.69644016  0.56412356  1  0  0.685441  0  4.131802  0  0  0.718455  0  4.42045  0  0  0.745269  0  4.426582  0  0  0.100746  0.698858  0  4.416324  0
N  N87  1  0.29224894  0.30355937  0.43587169  1  0  0.685304  0  4.132154  0  0  0.718278  0  4.420849  0  0  0.745124  0  4.426934  0  0  0.100743  0.698653  0  4.416758  0
N  N88  1  0.26253628  0.59444442  0.35477283  1  0  0.717931  0  4.093695  0  0  0.730638  0  4.41525  0  0  0.759765  0  4.419807  0  0  0.097541  0.710908  0  4.411771  0
N  N89  1  0.73746457  0.40555347  0.64522227  1  0  0.718048  0  4.093206  0  0  0.730757  0  4.414742  0  0  0.759886  0  4.419291  0  0  0.097661  0.711025  0  4.411263  0
O  O90  1  0.03629618  0.94073683  0.61444616  1  0  -0.301233  0  2.327102  0  0  -0.233876  0  2.548951  0  0  -0.253819  0  2.550395  0  0  -0.132999  -0.219729  0  2.547576  0
O  O91  1  0.96370449  0.05926444  0.38555486  1  0  -0.301264  0  2.327033  0  0  -0.233872  0  2.548863  0  0  -0.253807  0  2.550307  0  0  -0.133039  -0.219729  0  2.547483  0
O  O92  1  0.47933405  0.02732185  0.84002469  1  0  -0.30911  0  2.331104  0  0  -0.243072  0  2.55782  0  0  -0.261965  0  2.558465  0  0  -0.137828  -0.229792  0  2.557031  0
O  O93  1  0.52066159  0.97267775  0.15998267  1  0  -0.309294  0  2.331168  0  0  -0.243171  0  2.557875  0  0  -0.26205  0  2.558516  0  0  -0.137917  -0.229912  0  2.557101  0
O  O94  1  0.26595008  0.25033354  0.11363083  1  0  -0.311611  0  2.294431  0  0  -0.24362  0  2.515134  0  0  -0.262173  0  2.515001  0  0  -0.144045  -0.230227  0  2.514662  0
O  O95  1  0.73404896  0.74967357  0.88636891  1  0  -0.311466  0  2.294554  0  0  -0.243553  0  2.515221  0  0  -0.262107  0  2.515093  0  0  -0.144025  -0.230162  0  2.514743  0
O  O96  1  0.80209455  0.10861960  0.90905240  1  0  -0.31787  0  2.331899  0  0  -0.252519  0  2.56043  0  0  -0.270509  0  2.560551  0  0  -0.147565  -0.239601  0  2.559864  0
O  O97  1  0.19790302  0.89138248  0.09094713  1  0  -0.317778  0  2.331833  0  0  -0.252456  0  2.560373  0  0  -0.270439  0  2.560487  0  0  -0.147564  -0.239551  0  2.55982  0
O  O98  1  0.50156878  0.41830659  0.84615700  1  0  -0.309081  0  2.318992  0  0  -0.240563  0  2.539505  0  0  -0.259703  0  2.540069  0  0  -0.136178  -0.227146  0  2.538916  0
O  O99  1  0.49843977  0.58169472  0.15384203  1  0  -0.309217  0  2.319074  0  0  -0.240618  0  2.539632  0  0  -0.259762  0  2.540199  0  0  -0.136196  -0.227143  0  2.539006  0
O  O100  1  0.01676354  0.32923804  0.66856898  1  0  -0.311017  0  2.357998  0  0  -0.240595  0  2.582457  0  0  -0.261683  0  2.585537  0  0  -0.133539  -0.225663  0  2.579926  0
O  O101  1  0.98323890  0.67076156  0.33143028  1  0  -0.311119  0  2.357915  0  0  -0.24068  0  2.5824  0  0  -0.261766  0  2.585469  0  0  -0.133608  -0.225769  0  2.579879  0
O  O102  1  0.84224992  0.70891862  0.54253787  1  0  -0.377437  0  1.791559  0  0  -0.378299  0  2.006757  0  0  -0.388264  0  2.000819  0  0  -0.140978  -0.370556  0  2.010721  0
O  O103  1  0.15774926  0.29108513  0.45746127  1  0  -0.377346  0  1.791626  0  0  -0.378169  0  2.006807  0  0  -0.388144  0  2.000849  0  0  -0.140946  -0.370423  0  2.010788  0
O  O104  1  0.59594553  0.65391733  0.48958841  1  0  -0.498088  0  1.851324  0  0  -0.464071  0  2.106123  0  0  -0.485883  0  2.096916  0  0  -0.213343  -0.448243  0  2.112102  0
O  O105  1  0.40404971  0.34608051  0.51040572  1  0  -0.498091  0  1.85156  0  0  -0.464037  0  2.106345  0  0  -0.485855  0  2.097115  0  0  -0.213332  -0.448202  0  2.112339  0
O  O106  1  0.66953953  0.72276754  0.65537415  1  0  -0.465165  0  1.802236  0  0  -0.450231  0  2.02613  0  0  -0.46559  0  2.018781  0  0  -0.173497  -0.439038  0  2.03119  0
O  O107  1  0.33045371  0.27723113  0.34462081  1  0  -0.465119  0  1.802318  0  0  -0.450229  0  2.026306  0  0  -0.465587  0  2.018911  0  0  -0.173543  -0.439  0  2.031321  0
O  O108  1  0.20478143  0.53259372  0.27079602  1  0  -0.39862  0  1.722067  0  0  -0.400319  0  1.935335  0  0  -0.410886  0  1.929  0  0  -0.162576  -0.392872  0  1.939559  0
O  O109  1  0.79522516  0.46740087  0.72920172  1  0  -0.398745  0  1.721885  0  0  -0.400468  0  1.935166  0  0  -0.411036  0  1.928824  0  0  -0.162672  -0.393019  0  1.939391  0
O  O110  1  0.33117080  0.69537072  0.36589683  1  0  -0.457021  0  1.725531  0  0  -0.443238  0  1.940606  0  0  -0.457005  0  1.933699  0  0  -0.179053  -0.433803  0  1.945388  0
O  O111  1  0.66882894  0.30462716  0.63409747  1  0  -0.456999  0  1.725357  0  0  -0.443243  0  1.940453  0  0  -0.457023  0  1.933557  0  0  -0.179081  -0.433803  0  1.945235  0
O  O112  1  0.25146016  0.55156164  0.43938717  1  0  -0.546741  0  1.807249  0  0  -0.504409  0  2.071537  0  0  -0.527565  0  2.059722  0  0  -0.238923  -0.488021  0  2.079134  0
O  O113  1  0.74853580  0.44843874  0.56061048  1  0  -0.546766  0  1.807187  0  0  -0.504379  0  2.071432  0  0  -0.527531  0  2.059612  0  0  -0.238913  -0.487988  0  2.079024  0
