# generated using pymatgen
data_AlH27(C5O)9
_symmetry_space_group_name_H-M   'P 1'
_cell_length_a   3.97869510
_cell_length_b   23.55569687
_cell_length_c   23.55085359
_cell_angle_alpha   60.04324614
_cell_angle_beta   87.54553880
_cell_angle_gamma   87.66940982
_symmetry_Int_Tables_number   1
_chemical_formula_structural   AlH27(C5O)9
_chemical_formula_sum   'Al1 H27 C45 O9'
_cell_volume   1910.10224071
_cell_formula_units_Z   1
loop_
 _symmetry_equiv_pos_site_id
 _symmetry_equiv_pos_as_xyz
  1  'x, y, z'
loop_
 _atom_site_type_symbol
 _atom_site_label
 _atom_site_symmetry_multiplicity
 _atom_site_fract_x
 _atom_site_fract_y
 _atom_site_fract_z
 _atom_site_occupancy
 _atom_site_pbe_bader_charge
 _atom_site_pbe_bader_spin_density
 _atom_site_pbe_cm5_charge
 _atom_site_pbe_ddec_charge
 _atom_site_pbe_ddec_spin_density
 _atom_site_pbe_ddec_sum_bond_order
 _atom_site_pbe_magmom
Al  Al0  1  0.05040193  0.50003008  0.49963701  1  2.503157  0  0.426706  1.594156  0  2.564143  0
H  H1  1  0.85533829  0.33543185  0.67972736  1  0.113277  0  0.107939  0.111587  0  0.985868  0
H  H2  1  0.84782326  0.27301389  0.79990581  1  0.04652  0  0.098118  0.100967  0  1.024184  0
H  H3  1  0.81735266  0.22311755  0.89401053  1  0.06901  0  0.100344  0.098764  0  1.016901  0
H  H4  1  0.82698279  0.16458946  0.01321135  1  0.048565  0  0.098753  0.09807  0  1.006016  0
H  H5  1  0.22018995  0.80260260  0.27474693  1  0.052262  0  0.108105  0.125925  0  1.002903  0
H  H6  1  0.29145866  0.89660213  0.22077431  1  0.048723  0  0.101351  0.0992  0  1.012404  0
H  H7  1  0.28488977  0.01567624  0.16198880  1  0.054576  0  0.099112  0.097679  0  1.009162  0
H  H8  1  0.52815157  0.10572130  0.10544949  1  0.023874  0  0.097164  0.092722  0  1.036003  0
H  H9  1  0.82387109  0.68040434  0.48362118  1  0.097158  0  0.107758  0.111844  0  0.986207  0
H  H10  1  0.81711190  0.80072327  0.42545722  1  0.04962  0  0.098163  0.100749  0  1.023893  0
H  H11  1  0.74982125  0.89488195  0.38448733  1  0.029377  0  0.099987  0.097215  0  1.016689  0
H  H12  1  0.76598355  0.01370642  0.32341198  1  0.056282  0  0.098837  0.097543  0  1.009666  0
H  H13  1  0.25048044  0.27572999  0.42543441  1  0.096747  0  0.107359  0.124861  0  1.004398  0
H  H14  1  0.28881846  0.22402561  0.38271704  1  0.053204  0  0.101678  0.099545  0  1.013289  0
H  H15  1  0.26813497  0.16583882  0.32205106  1  0.07978  0  0.099047  0.097728  0  1.008052  0
H  H16  1  0.53355412  0.10650562  0.28763185  1  0.088386  0  0.097269  0.093067  0  1.03752  0
H  H17  1  0.88848549  0.48080817  0.33359534  1  0.082936  0  0.107656  0.111576  0  0.985738  0
H  H18  1  0.88135918  0.42245995  0.27155957  1  0.064374  0  0.098067  0.1008  0  1.022828  0
H  H19  1  0.82432608  0.38019495  0.21973028  1  0.047277  0  0.09977  0.097313  0  1.016941  0
H  H20  1  0.82001509  0.31963024  0.16101602  1  0.042435  0  0.098378  0.097444  0  1.00852  0
H  H21  1  0.19119435  0.42302472  0.80301190  1  0.064666  0  0.107633  0.124728  0  1.003741  0
H  H22  1  0.22561844  0.37917281  0.89751607  1  0.055476  0  0.101362  0.099521  0  1.014082  0
H  H23  1  0.22502443  0.31883301  0.01685386  1  0.048596  0  0.098507  0.097302  0  1.007366  0
H  H24  1  0.53384024  0.28827787  0.10481391  1  0.013787  0  0.097297  0.092759  0  1.033934  0
H  H25  1  0.21476573  0.36126282  0.51024549  1  0.638917  0  0.316184  0.362001  0  0.943205  0
H  H26  1  0.15638432  0.50791104  0.63270141  1  0.617409  0  0.31557  0.360938  0  0.940719  0
H  H27  1  0.19178213  0.63221257  0.35946090  1  0.656368  0  0.316351  0.362047  0  0.939525  0
C  C28  1  0.54095565  0.44932981  0.60145187  1  1.443355  0  0.264641  0.651988  0  4.059219  0
C  C29  1  0.57627712  0.44889241  0.44880789  1  1.479855  0  0.264902  0.652781  0  4.057548  0
C  C30  1  0.54211896  0.60166302  0.44874249  1  1.439498  0  0.264996  0.651741  0  4.062664  0
C  C31  1  0.70632240  0.35328799  0.70772708  1  -0.100652  0  -0.081671  -0.053604  0  4.018062  0
C  C32  1  0.70033390  0.31840360  0.77541654  1  0.037865  0  -0.10542  -0.172328  0  4.016176  0
C  C33  1  0.68388951  0.24494132  0.91999008  1  0.029618  0  -0.089085  -0.119843  0  3.987662  0
C  C34  1  0.68705945  0.21104280  0.98805750  1  -0.116241  0  -0.092068  -0.128382  0  4.000489  0
C  C35  1  0.35312770  0.70911353  0.35389906  1  0.455026  0  0.099006  0.336283  0  4.044437  0
C  C36  1  0.35808707  0.77758217  0.32006430  1  0.095849  0  -0.100991  -0.252383  0  3.920076  0
C  C37  1  0.39477492  0.92145340  0.24440079  1  -0.11096  0  -0.08811  -0.118091  0  3.98593  0
C  C38  1  0.39512581  0.98948937  0.21032596  1  0.032092  0  -0.091148  -0.12698  0  3.99519  0
C  C39  1  0.52341645  0.41269172  0.67302906  1  0.034105  0  -0.038365  -0.21054  0  4.006137  0
C  C40  1  0.51964502  0.34279974  0.81218614  1  -0.079132  0  0.002188  0.100425  0  3.999166  0
C  C41  1  0.52087091  0.30659279  0.88478943  1  0.069316  0  -0.008043  0.059432  0  3.977063  0
C  C42  1  0.52605011  0.23684196  0.02474960  1  -0.077176  0  -0.007067  0.066571  0  4.003232  0
C  C43  1  0.52944743  0.20095644  0.09703217  1  0.013315  0  -0.007331  0.082593  0  4.022493  0
C  C44  1  0.52936974  0.13228186  0.13230731  1  0.076663  0  -0.08795  -0.175715  0  3.929546  0
C  C45  1  0.68816736  0.70817912  0.43816600  1  -0.065741  0  -0.081482  -0.055384  0  4.018906  0
C  C46  1  0.68198589  0.77585015  0.40530400  1  0.029965  0  -0.104951  -0.169919  0  4.014518  0
C  C47  1  0.64779199  0.92047071  0.33549476  1  -0.039402  0  -0.088653  -0.118121  0  3.989229  0
C  C48  1  0.65294286  0.98848528  0.30102913  1  -0.077152  0  -0.091663  -0.128112  0  3.998208  0
C  C49  1  0.38997006  0.35419149  0.43832768  1  0.581914  0  0.0981  0.333703  0  4.046689  0
C  C50  1  0.39632265  0.32012856  0.40385055  1  -0.050992  0  -0.100915  -0.251784  0  3.923623  0
C  C51  1  0.40708584  0.24601740  0.33403009  1  -0.043559  0  -0.088319  -0.117905  0  3.98528  0
C  C52  1  0.39878384  0.21219162  0.29988316  1  -0.065074  0  -0.090985  -0.126385  0  3.999198  0
C  C53  1  0.52377388  0.67316723  0.41387546  1  0.033125  0  -0.038121  -0.210358  0  4.006694  0
C  C54  1  0.51890503  0.81223960  0.34464872  1  -0.02155  0  0.002486  0.100183  0  4.000583  0
C  C55  1  0.51990407  0.88477384  0.30818063  1  0.03403  0  -0.007935  0.059374  0  3.980555  0
C  C56  1  0.52573658  0.02490505  0.23757698  1  -0.048638  0  -0.006529  0.070395  0  3.992113  0
C  C57  1  0.52932289  0.09726502  0.20105730  1  0.016918  0  -0.006884  0.079293  0  4.019025  0
C  C58  1  0.53289356  0.13281272  0.23424444  1  -0.041076  0  -0.088029  -0.173794  0  3.926876  0
C  C59  1  0.74538138  0.43615261  0.35247936  1  -0.034215  0  -0.081157  -0.054891  0  4.015526  0
C  C60  1  0.73951283  0.40314255  0.31776048  1  -0.013116  0  -0.104842  -0.170442  0  4.011731  0
C  C61  1  0.70064025  0.33315818  0.24311303  1  0.008611  0  -0.088793  -0.118727  0  3.988455  0
C  C62  1  0.69539452  0.29904330  0.20915686  1  -0.11839  0  -0.091964  -0.128026  0  3.9986  0
C  C63  1  0.33407110  0.43673663  0.70933343  1  0.535856  0  0.099446  0.334677  0  4.046301  0
C  C64  1  0.34093274  0.40224955  0.77781523  1  0.033838  0  -0.100902  -0.250228  0  3.918768  0
C  C65  1  0.36040158  0.33220313  0.92192438  1  -0.107395  0  -0.088033  -0.118371  0  3.986937  0
C  C66  1  0.36219898  0.29824220  0.98997640  1  0.00325  0  -0.091252  -0.12675  0  3.998067  0
C  C67  1  0.56918260  0.41332021  0.41282287  1  -0.000151  0  -0.036645  -0.20771  0  4.00038  0
C  C68  1  0.56492090  0.34373100  0.34315520  1  -0.011197  0  0.001731  0.099917  0  4.001079  0
C  C69  1  0.55774488  0.30762459  0.30670735  1  -0.058428  0  -0.008394  0.058799  0  3.977525  0
C  C70  1  0.54368311  0.23772731  0.23660673  1  0.044597  0  -0.006747  0.067516  0  4.000044  0
C  C71  1  0.53645417  0.20149728  0.20053148  1  0.005051  0  -0.006779  0.080212  0  4.022792  0
C  C72  1  0.53304426  0.23486296  0.13182947  1  -0.076253  0  -0.088614  -0.176888  0  3.930276  0
O  O73  1  0.32219663  0.57090057  0.43532373  1  -1.250887  0  -0.24487  -0.620626  0  2.382698  0
O  O74  1  0.30676303  0.49335462  0.57096550  1  -1.26141  0  -0.244678  -0.618459  0  2.378471  0
O  O75  1  0.34140708  0.43630809  0.49356672  1  -1.25809  0  -0.245987  -0.625583  0  2.40508  0
O  O76  1  0.77372563  0.57188964  0.49013984  1  -1.268372  0  -0.2416  -0.597687  0  2.374954  0
O  O77  1  0.80840489  0.48961947  0.43661454  1  -1.264985  0  -0.240167  -0.591219  0  2.355038  0
O  O78  1  0.78585818  0.43766158  0.57153595  1  -1.262332  0  -0.242274  -0.597176  0  2.373052  0
O  O79  1  0.21416354  0.32808791  0.49584492  1  -1.154179  0  -0.353298  -0.441749  0  2.250699  0
O  O80  1  0.15030473  0.49317783  0.68033170  1  -1.132061  0  -0.351751  -0.439601  0  2.252048  0
O  O81  1  0.18887071  0.67983075  0.32674494  1  -1.167666  0  -0.351498  -0.440175  0  2.251919  0
