# generated using pymatgen
data_Zn4H8C24S4O15
_symmetry_space_group_name_H-M   'P 1'
_cell_length_a   19.66792184
_cell_length_b   19.66731252
_cell_length_c   33.37658514
_cell_angle_alpha   79.20001311
_cell_angle_beta   79.19552602
_cell_angle_gamma   63.95897522
_symmetry_Int_Tables_number   1
_chemical_formula_structural   Zn4H8C24S4O15
_chemical_formula_sum   'Zn16 H32 C96 S16 O60'
_cell_volume   11313.19339187
_cell_formula_units_Z   4
loop_
 _symmetry_equiv_pos_site_id
 _symmetry_equiv_pos_as_xyz
  1  'x, y, z'
loop_
 _atom_site_type_symbol
 _atom_site_label
 _atom_site_symmetry_multiplicity
 _atom_site_fract_x
 _atom_site_fract_y
 _atom_site_fract_z
 _atom_site_occupancy
 _atom_site_pbe_bader_charge
 _atom_site_pbe_bader_spin_density
 _atom_site_pbe_cm5_charge
 _atom_site_pbe_ddec_charge
 _atom_site_pbe_ddec_spin_density
 _atom_site_pbe_ddec_sum_bond_order
 _atom_site_pbe_magmom
Zn  Zn0  1  0.05579217  0.40005832  0.47843801  1  1.322916  0  0.677188  0.973712  0  2.360628  0
Zn  Zn1  1  0.98336603  0.48244493  0.56068743  1  1.312433  0  0.676121  0.966172  0  2.369351  0
Zn  Zn2  1  0.05978794  0.55944560  0.48266752  1  1.314503  0  0.671829  0.960099  0  2.377955  0
Zn  Zn3  1  0.90185790  0.55557333  0.47895065  1  1.311738  0  0.671886  0.959253  0  2.380161  0
Zn  Zn4  1  0.69366696  0.34975785  0.27185126  1  1.322074  0  0.677094  0.974305  0  2.354039  0
Zn  Zn5  1  0.68908709  0.18942083  0.26720086  1  1.319421  0  0.676735  0.971103  0  2.358113  0
Zn  Zn6  1  0.76694480  0.26790323  0.19037826  1  1.312086  0  0.67136  0.959537  0  2.374009  0
Zn  Zn7  1  0.84790795  0.19388141  0.27133447  1  1.309957  0  0.671383  0.957322  0  2.37541  0
Zn  Zn8  1  0.26752552  0.76666750  0.68929583  1  1.311911  0  0.676257  0.966553  0  2.367462  0
Zn  Zn9  1  0.34988974  0.69424919  0.77158752  1  1.321357  0  0.676728  0.970578  0  2.362047  0
Zn  Zn10  1  0.19429873  0.84815159  0.77109883  1  1.311592  0  0.672021  0.962707  0  2.374564  0
Zn  Zn11  1  0.19058757  0.69015742  0.76734566  1  1.314037  0  0.671769  0.960259  0  2.376523  0
Zn  Zn12  1  0.56054135  0.06096669  0.98282582  1  1.318628  0  0.676637  0.970392  0  2.358992  0
Zn  Zn13  1  0.40041720  0.05613518  0.97817238  1  1.319073  0  0.67613  0.966769  0  2.364871  0
Zn  Zn14  1  0.55611528  0.90203278  0.97870135  1  1.310847  0  0.671882  0.962767  0  2.372737  0
Zn  Zn15  1  0.48218016  0.98302555  0.05965184  1  1.312822  0  0.671551  0.959797  0  2.37478  0
H  H16  1  0.74822192  0.45293252  0.35047029  1  0.115649  0  0.116547  0.141436  0  0.976709  0
H  H17  1  0.00187312  0.29704999  0.39949333  1  0.134977  0  0.116255  0.141258  0  0.9765  0
H  H18  1  0.20074525  0.70065154  0.59829186  1  0.103265  0  0.115632  0.140475  0  0.977112  0
H  H19  1  0.04922248  0.54940713  0.65167119  1  0.104112  0  0.115603  0.140313  0  0.976936  0
H  H20  1  0.28590605  0.51096639  0.40936918  1  0.125061  0  0.122449  0.148865  0  0.966984  0
H  H21  1  0.46343935  0.23934114  0.34091366  1  0.13451  0  0.12234  0.148722  0  0.968209  0
H  H22  1  0.77194382  0.54692248  0.64827172  1  0.11219  0  0.122316  0.148917  0  0.967239  0
H  H23  1  0.47873319  0.70285838  0.60138887  1  0.111817  0  0.122524  0.148979  0  0.967154  0
H  H24  1  0.04715035  0.27129511  0.64858091  1  0.112963  0  0.12241  0.148888  0  0.967497  0
H  H25  1  0.20315885  0.97808187  0.60171619  1  0.11185  0  0.122326  0.148829  0  0.967295  0
H  H26  1  0.80084019  0.77881589  0.40229445  1  0.134931  0  0.122609  0.149033  0  0.96646  0
H  H27  1  0.94935820  0.97058555  0.34799781  1  0.134416  0  0.122097  0.14815  0  0.967526  0
H  H28  1  0.65160187  0.15179728  0.04935116  1  0.102107  0  0.115795  0.140412  0  0.978091  0
H  H29  1  0.59847724  0.09811256  0.20068687  1  0.10026  0  0.115753  0.140336  0  0.978327  0
H  H30  1  0.70278036  0.47879904  0.10129284  1  0.111981  0  0.122668  0.149338  0  0.966591  0
H  H31  1  0.54697429  0.77189931  0.14833779  1  0.111358  0  0.122717  0.14938  0  0.96672  0
H  H32  1  0.08642129  0.10884566  0.21015969  1  0.128613  0  0.122481  0.14907  0  0.967216  0
H  H33  1  0.16292306  0.14141665  0.04011766  1  0.135554  0  0.122615  0.148896  0  0.96704  0
H  H34  1  0.29714887  0.00183820  0.89957541  1  0.135698  0  0.11532  0.139972  0  0.978287  0
H  H35  1  0.45283506  0.74827415  0.85048081  1  0.136043  0  0.116199  0.141162  0  0.977176  0
H  H36  1  0.44901439  0.47123061  0.84757264  1  0.138394  0  0.122579  0.148593  0  0.966872  0
H  H37  1  0.30065223  0.27934667  0.90219495  1  0.135515  0  0.122123  0.148175  0  0.967477  0
H  H38  1  0.96418226  0.73910117  0.84054103  1  0.126187  0  0.122668  0.148847  0  0.966891  0
H  H39  1  0.78631687  0.01057275  0.90915135  1  0.135802  0  0.122539  0.149079  0  0.967445  0
H  H40  1  0.80868136  0.52765482  0.41819113  1  0.641143  0  0.305559  0.354677  0  0.967424  0
H  H41  1  0.94116139  0.22243856  0.33179362  1  0.64111  0  0.305344  0.354726  0  0.968448  0
H  H42  1  0.13644911  0.63673682  0.52706727  1  0.638528  0  0.306565  0.356789  0  0.965911  0
H  H43  1  0.11347353  0.61339919  0.72288810  1  0.637846  0  0.306623  0.356544  0  0.966247  0
H  H44  1  0.72306580  0.22283799  0.11342371  1  0.637078  0  0.306468  0.356705  0  0.964503  0
H  H45  1  0.52693345  0.02715799  0.13661064  1  0.637884  0  0.306485  0.356553  0  0.965008  0
H  H46  1  0.22222496  0.94149861  0.83191198  1  0.638509  0  0.30608  0.355287  0  0.966607  0
H  H47  1  0.52781362  0.80849479  0.91815536  1  0.638513  0  0.306111  0.355367  0  0.965583  0
C  C48  1  0.06144783  0.31542646  0.56178742  1  1.569125  0  0.21792  0.611583  0  4.215656  0
C  C49  1  0.06958813  0.56976792  0.56965753  1  1.494261  0  0.228594  0.617222  0  4.138603  0
C  C50  1  0.18414982  0.43898579  0.43869132  1  1.546172  0  0.218302  0.611942  0  4.214211  0
C  C51  1  0.93819806  0.68402458  0.43860130  1  1.538294  0  0.218782  0.61175  0  4.212491  0
C  C52  1  0.93033610  0.43032105  0.43032819  1  1.514659  0  0.229254  0.618142  0  4.138692  0
C  C53  1  0.81604627  0.56121406  0.56154389  1  1.565356  0  0.217141  0.610172  0  4.21757  0
C  C54  1  0.56531739  0.31119728  0.31153069  1  1.570656  0  0.218742  0.612295  0  4.214591  0
C  C55  1  0.68052038  0.18022787  0.18034274  1  1.514771  0  0.229497  0.618429  0  4.137735  0
C  C56  1  0.68860511  0.43444922  0.18821958  1  1.565637  0  0.218848  0.612113  0  4.215188  0
C  C57  1  0.93417466  0.18854733  0.18879718  1  1.523235  0  0.217575  0.611645  0  4.214982  0
C  C58  1  0.81966410  0.31967259  0.31963143  1  1.51619  0  0.229027  0.618398  0  4.138354  0
C  C59  1  0.81190012  0.06539531  0.31160517  1  1.544536  0  0.218776  0.61177  0  4.213469  0
C  C60  1  0.43459987  0.68864103  0.68823275  1  1.569778  0  0.218178  0.611787  0  4.215609  0
C  C61  1  0.31959741  0.81975719  0.81968961  1  1.51328  0  0.229704  0.619483  0  4.136419  0
C  C62  1  0.18891467  0.93391937  0.68844405  1  1.565219  0  0.217538  0.610828  0  4.216766  0
C  C63  1  0.06584137  0.81107954  0.81136705  1  1.539899  0  0.218833  0.612655  0  4.21272  0
C  C64  1  0.18039387  0.68031647  0.68028771  1  1.493149  0  0.229149  0.617828  0  4.137268  0
C  C65  1  0.31172031  0.56578564  0.81136595  1  1.536847  0  0.218647  0.611527  0  4.214304  0
C  C66  1  0.43809110  0.18459325  0.93845149  1  1.543543  0  0.218124  0.610242  0  4.217028  0
C  C67  1  0.43041942  0.93028148  0.93038207  1  1.516417  0  0.228912  0.618613  0  4.137943  0
C  C68  1  0.68449516  0.93879456  0.93846342  1  1.570243  0  0.218877  0.612844  0  4.213512  0
C  C69  1  0.56123729  0.81620858  0.06153477  1  1.563552  0  0.217594  0.609797  0  4.215638  0
C  C70  1  0.56959067  0.06968786  0.06967891  1  1.513434  0  0.229222  0.617499  0  4.136936  0
C  C71  1  0.31521169  0.06178271  0.06140310  1  1.568955  0  0.218813  0.612419  0  4.214521  0
C  C72  1  0.90108306  0.40294212  0.40188736  1  -0.02257  0  -0.030678  -0.160158  0  4.000314  0
C  C73  1  0.84906027  0.34713092  0.34798555  1  -0.031295  0  -0.030828  -0.160454  0  4.001353  0
C  C74  1  0.82833529  0.44784897  0.38790218  1  0.520159  0  0.082006  0.290055  0  4.079526  0
C  C75  1  0.92183022  0.30223291  0.36197036  1  0.516585  0  0.081541  0.289269  0  4.080618  0
C  C76  1  0.80381445  0.41892196  0.36119618  1  0.054443  0  -0.093677  -0.188548  0  3.944399  0
C  C77  1  0.94634879  0.33112924  0.38869012  1  0.028659  0  -0.093999  -0.189176  0  3.944144  0
C  C78  1  0.09846770  0.59861707  0.59755720  1  0.078972  0  -0.030105  -0.159367  0  4.001729  0
C  C79  1  0.15146407  0.65149492  0.65240218  1  0.078789  0  -0.030407  -0.159347  0  4.000147  0
C  C80  1  0.14190122  0.64195018  0.58208639  1  0.48886  0  0.081903  0.289659  0  4.08152  0
C  C81  1  0.10803232  0.60814041  0.66787032  1  0.491113  0  0.081728  0.289338  0  4.080833  0
C  C82  1  0.16752663  0.66751343  0.60992138  1  -0.000535  0  -0.094615  -0.189847  0  3.946827  0
C  C83  1  0.08241429  0.58257559  0.64004069  1  -0.00224  0  -0.09471  -0.18977  0  3.947852  0
C  C84  1  0.30330963  0.45411278  0.40131753  1  0.034411  0  -0.087106  -0.134057  0  3.966532  0
C  C85  1  0.44604555  0.29619546  0.34894531  1  0.034686  0  -0.087346  -0.134278  0  3.968199  0
C  C86  1  0.25884198  0.41372513  0.41380104  1  -0.183703  0  -0.025231  -0.120913  0  3.99217  0
C  C87  1  0.49058445  0.33650877  0.33647411  1  -0.168599  0  -0.024852  -0.120207  0  3.988949  0
C  C88  1  0.37785837  0.33891237  0.37254318  1  -0.135207  0  -0.020966  -0.00826  0  4.067225  0
C  C89  1  0.37146954  0.41142813  0.37769095  1  -0.137092  0  -0.020615  -0.006844  0  4.066761  0
C  C90  1  0.72668868  0.57593440  0.62860184  1  0.029232  0  -0.086866  -0.133404  0  3.966873  0
C  C91  1  0.52395703  0.67379838  0.62107873  1  -0.002453  0  -0.087467  -0.134418  0  3.966784  0
C  C92  1  0.74113824  0.58624469  0.58619541  1  -0.084473  0  -0.025418  -0.120557  0  3.992818  0
C  C93  1  0.50949486  0.66349792  0.66349864  1  -0.087543  0  -0.024958  -0.120016  0  3.989729  0
C  C94  1  0.60299818  0.64193374  0.60832173  1  -0.166831  0  -0.020877  -0.007349  0  4.067692  0
C  C95  1  0.64765215  0.60776919  0.64135587  1  -0.210282  0  -0.020548  -0.00884  0  4.068561  0
C  C96  1  0.07622690  0.22604947  0.62891224  1  -0.003683  0  -0.087513  -0.134456  0  3.967371  0
C  C97  1  0.17414278  0.02333721  0.62139107  1  0.03051  0  -0.087197  -0.133883  0  3.967513  0
C  C98  1  0.08655519  0.24051644  0.58650179  1  -0.087619  0  -0.024663  -0.120108  0  3.990062  0
C  C99  1  0.16383958  0.00884371  0.66380528  1  -0.084985  0  -0.025333  -0.120707  0  3.992164  0
C  C100  1  0.14229680  0.10236722  0.60864289  1  -0.20643  0  -0.020676  -0.008528  0  4.068436  0
C  C101  1  0.10809442  0.14700201  0.64168934  1  -0.170498  0  -0.020776  -0.007686  0  4.066548  0
C  C102  1  0.84497699  0.79961038  0.39764388  1  0.087347  0  -0.086229  -0.133116  0  3.965095  0
C  C103  1  0.90522831  0.94979087  0.35263177  1  0.051769  0  -0.087074  -0.134094  0  3.965483  0
C  C104  1  0.91373878  0.75870861  0.41369412  1  -0.181577  0  -0.025151  -0.120151  0  3.991612  0
C  C105  1  0.83642780  0.99070107  0.33657972  1  -0.172289  0  -0.024849  -0.119469  0  3.988298  0
C  C106  1  0.90846246  0.88020420  0.37485879  1  -0.176201  0  -0.020279  -0.006878  0  4.065588  0
C  C107  1  0.84181019  0.86915610  0.37539932  1  -0.177734  0  -0.020488  -0.007121  0  4.064899  0
C  C108  1  0.65256948  0.15232378  0.15148549  1  -0.026269  0  -0.030532  -0.15988  0  4.00117  0
C  C109  1  0.59755813  0.09754773  0.09854664  1  -0.021016  0  -0.030389  -0.159363  0  3.999852  0
C  C110  1  0.66793187  0.16786826  0.10810803  1  0.589416  0  0.082587  0.2908  0  4.081266  0
C  C111  1  0.58214896  0.08204088  0.14192749  1  0.587103  0  0.082438  0.290382  0  4.080937  0
C  C112  1  0.64004183  0.14007594  0.08251737  1  -0.015332  0  -0.094463  -0.189701  0  3.945533  0
C  C113  1  0.61006693  0.10980857  0.16752169  1  -0.008619  0  -0.094081  -0.189066  0  3.945143  0
C  C114  1  0.67371618  0.52395058  0.12103567  1  -8.7e-05  0  -0.087048  -0.134298  0  3.965744  0
C  C115  1  0.57599288  0.72671181  0.12862117  1  0.029759  0  -0.087056  -0.133976  0  3.965298  0
C  C116  1  0.66341593  0.50936728  0.16346647  1  -0.085203  0  -0.024639  -0.119639  0  3.987494  0
C  C117  1  0.58630677  0.74127173  0.08620491  1  -0.080752  0  -0.024698  -0.119458  0  3.989118  0
C  C118  1  0.60776899  0.64764435  0.14135580  1  -0.209108  0  -0.020191  -0.008031  0  4.06585  0
C  C119  1  0.64191443  0.60302045  0.10830445  1  -0.163453  0  -0.020498  -0.007427  0  4.065981  0
C  C120  1  0.07954048  0.12500670  0.17768980  1  0.014375  0  -0.087051  -0.134054  0  3.965821  0
C  C121  1  0.16982232  0.12517039  0.07257800  1  0.066949  0  -0.087212  -0.133525  0  3.965669  0
C  C122  1  0.00869810  0.16374808  0.16369443  1  -0.117534  0  -0.025042  -0.120359  0  3.989516  0
C  C123  1  0.24069028  0.08648984  0.08655323  1  -0.164134  0  -0.024882  -0.12069  0  3.98883  0
C  C124  1  0.11111810  0.13921274  0.10570481  1  -0.227166  0  -0.020493  -0.007801  0  4.066904  0
C  C125  1  0.13826930  0.11090181  0.14456590  1  -0.157213  0  -0.020381  -0.007484  0  4.065448  0
C  C126  1  0.34704654  0.84909885  0.84806386  1  -0.030596  0  -0.030834  -0.160312  0  4.000072  0
C  C127  1  0.40298341  0.90100854  0.90197050  1  -0.027053  0  -0.030846  -0.160176  0  4.001558  0
C  C128  1  0.30220260  0.92186942  0.86206034  1  0.519708  0  0.081651  0.289528  0  4.081087  0
C  C129  1  0.44782847  0.82826965  0.88796388  1  0.520729  0  0.082175  0.289956  0  4.080639  0
C  C130  1  0.33118411  0.94630242  0.88877883  1  0.027384  0  -0.094242  -0.189517  0  3.94683  0
C  C131  1  0.41882417  0.80382542  0.86125446  1  0.034351  0  -0.094265  -0.189511  0  3.945508  0
C  C132  1  0.40498463  0.45028080  0.85229076  1  0.088355  0  -0.086318  -0.13222  0  3.965134  0
C  C133  1  0.34475605  0.30019289  0.89751389  1  0.092309  0  -0.087391  -0.134089  0  3.967398  0
C  C134  1  0.33620190  0.49108516  0.83625872  1  -0.196825  0  -0.025207  -0.12072  0  3.992706  0
C  C135  1  0.41353262  0.25934871  0.91354282  1  -0.212758  0  -0.024782  -0.118909  0  3.989726  0
C  C136  1  0.34157729  0.36967024  0.87517676  1  -0.178994  0  -0.020574  -0.007877  0  4.068023  0
C  C137  1  0.40823834  0.38073782  0.87457564  1  -0.179616  0  -0.02088  -0.007605  0  4.06542  0
C  C138  1  0.94664408  0.79593197  0.84865707  1  0.037612  0  -0.08678  -0.132978  0  3.964269  0
C  C139  1  0.80374477  0.95373459  0.90108336  1  0.038394  0  -0.086622  -0.13307  0  3.966093  0
C  C140  1  0.99115676  0.83630937  0.83628783  1  -0.181904  0  -0.0255  -0.121722  0  3.991042  0
C  C141  1  0.75922316  0.91339772  0.91351989  1  -0.170566  0  -0.024719  -0.121337  0  3.989578  0
C  C142  1  0.87195581  0.91105690  0.87747806  1  -0.135558  0  -0.020319  -0.007421  0  4.066358  0
C  C143  1  0.87839106  0.83856363  0.87225332  1  -0.138968  0  -0.020306  -0.007064  0  4.064383  0
S  S144  1  0.29937787  0.32409004  0.39701542  1  0.276501  0  0.086614  0.126307  0  2.727702  0
S  S145  1  0.45000755  0.42618125  0.35324725  1  0.262589  0  0.086894  0.126363  0  2.726352  0
S  S146  1  0.65924039  0.63441812  0.56167054  1  0.271519  0  0.085673  0.12515  0  2.729124  0
S  S147  1  0.59140884  0.61528635  0.68800043  1  0.268824  0  0.085981  0.125852  0  2.729779  0
S  S148  1  0.13480621  0.15859812  0.56199358  1  0.26892  0  0.08663  0.12667  0  2.728029  0
S  S149  1  0.11561867  0.09073948  0.68833634  1  0.27226  0  0.086497  0.126339  0  2.728201  0
S  S150  1  0.97466329  0.80427076  0.40190133  1  0.256165  0  0.085944  0.125337  0  2.726877  0
S  S151  1  0.77559284  0.94505599  0.34837269  1  0.285111  0  0.086667  0.125904  0  2.727235  0
S  S152  1  0.61524337  0.59130239  0.18798953  1  0.269721  0  0.087198  0.127163  0  2.725853  0
S  S153  1  0.63446514  0.65935559  0.06166515  1  0.265393  0  0.086874  0.126676  0  2.725525  0
S  S154  1  0.01300739  0.18315454  0.11046356  1  0.299397  0  0.086139  0.126202  0  2.726245  0
S  S155  1  0.23639014  0.06705470  0.13978651  1  0.270016  0  0.086377  0.12629  0  2.726003  0
S  S156  1  0.27534385  0.44546799  0.84810690  1  0.271779  0  0.08517  0.124911  0  2.72957  0
S  S157  1  0.47445596  0.30489810  0.90163948  1  0.282553  0  0.085666  0.124522  0  2.727713  0
S  S158  1  0.95050842  0.92589310  0.85316281  1  0.275276  0  0.087082  0.127031  0  2.727075  0
S  S159  1  0.79983105  0.82376813  0.89667194  1  0.261547  0  0.086956  0.126926  0  2.724176  0
O  O160  1  0.00033922  0.49898734  0.50033651  1  -1.226238  0  -0.570966  -1.027801  0  2.534899  0
O  O161  1  0.07798647  0.31534308  0.52280475  1  -1.177801  0  -0.31919  -0.547877  0  2.336978  0
O  O162  1  0.03132812  0.53126994  0.58528070  1  -1.157895  0  -0.308491  -0.532768  0  2.339091  0
O  O163  1  0.15668049  0.50559854  0.44995143  1  -1.170513  0  -0.318392  -0.540335  0  2.316239  0
O  O164  1  0.02549298  0.37371837  0.58132279  1  -1.171021  0  -0.317068  -0.540357  0  2.314576  0
O  O165  1  0.15325121  0.39187645  0.44684391  1  -1.16825  0  -0.319604  -0.548999  0  2.335983  0
O  O166  1  0.08545322  0.58591606  0.53052807  1  -1.184753  0  -0.309488  -0.556608  0  2.366801  0
O  O167  1  0.00469600  0.65654530  0.45016759  1  -1.175245  0  -0.321778  -0.550626  0  2.336223  0
O  O168  1  0.88669863  0.49700958  0.44191620  1  -1.171393  0  -0.310209  -0.557464  0  2.368005  0
O  O169  1  0.89126424  0.65306448  0.44656218  1  -1.156092  0  -0.31792  -0.539687  0  2.313509  0
O  O170  1  0.99564862  0.38773919  0.44175584  1  -1.179445  0  -0.307772  -0.53172  0  2.337592  0
O  O171  1  0.87433697  0.52551969  0.58104227  1  -1.174619  0  -0.316015  -0.539499  0  2.316224  0
O  O172  1  0.81596413  0.57763108  0.52252643  1  -1.182077  0  -0.321536  -0.548777  0  2.339014  0
O  O173  1  0.74900578  0.25036810  0.25034427  1  -1.226249  0  -0.570575  -1.02792  0  2.530241  0
O  O174  1  0.59591340  0.35859665  0.30319041  1  -1.183861  0  -0.319502  -0.548819  0  2.335717  0
O  O175  1  0.66499368  0.16456506  0.21871009  1  -1.177  0  -0.308603  -0.533088  0  2.337879  0
O  O176  1  0.72438470  0.37607780  0.16870251  1  -1.171403  0  -0.318419  -0.540469  0  2.314288  0
O  O177  1  0.59298255  0.24447161  0.30044466  1  -1.171978  0  -0.316675  -0.539706  0  2.312985  0
O  O178  1  0.67244583  0.43439524  0.22721919  1  -1.174742  0  -0.319185  -0.548724  0  2.33446  0
O  O179  1  0.71960505  0.21944074  0.16432039  1  -1.165285  0  -0.310369  -0.557761  0  2.364446  0
O  O180  1  0.87562364  0.22427893  0.16931696  1  -1.173435  0  -0.320941  -0.54973  0  2.33622  0
O  O181  1  0.86323141  0.25291366  0.30810418  1  -1.17243  0  -0.310285  -0.558208  0  2.367161  0
O  O182  1  0.93421684  0.17238086  0.22772594  1  -1.142067  0  -0.317945  -0.541212  0  2.314973  0
O  O183  1  0.75433384  0.36223685  0.30823188  1  -1.180501  0  -0.307486  -0.531654  0  2.33648  0
O  O184  1  0.74533056  0.09298967  0.30015809  1  -1.17395  0  -0.31959  -0.549534  0  2.332952  0
O  O185  1  0.85906513  0.09612067  0.30349486  1  -1.154103  0  -0.318661  -0.54066  0  2.314123  0
O  O186  1  0.25102443  0.74963925  0.74965949  1  -1.225801  0  -0.570994  -1.028122  0  2.533552  0
O  O187  1  0.37633529  0.72467115  0.66871856  1  -1.170277  0  -0.316775  -0.539902  0  2.315018  0
O  O188  1  0.36220759  0.75440844  0.80829311  1  -1.178401  0  -0.308296  -0.533389  0  2.337956  0
O  O189  1  0.17252798  0.93394783  0.72746355  1  -1.182285  0  -0.321187  -0.548519  0  2.337715  0
O  O190  1  0.43471274  0.67202152  0.72722207  1  -1.179281  0  -0.319645  -0.548865  0  2.336029  0
O  O191  1  0.22462177  0.87564808  0.66892309  1  -1.17428  0  -0.316435  -0.540011  0  2.316321  0
O  O192  1  0.25288581  0.86330800  0.80814287  1  -1.17232  0  -0.309802  -0.556877  0  2.364429  0
O  O193  1  0.09696535  0.85803860  0.80341815  1  -1.162779  0  -0.321088  -0.549324  0  2.335168  0
O  O194  1  0.16436779  0.66437159  0.71941979  1  -1.1826  0  -0.30956  -0.556944  0  2.365901  0
O  O195  1  0.09322958  0.74473283  0.79980079  1  -1.17023  0  -0.318549  -0.541546  0  2.31467  0
O  O196  1  0.21885595  0.71860501  0.66464257  1  -1.15784  0  -0.30882  -0.533071  0  2.337481  0
O  O197  1  0.35873996  0.59657526  0.80326833  1  -1.154353  0  -0.315874  -0.539092  0  2.314491  0
O  O198  1  0.24500185  0.59331691  0.80001674  1  -1.173784  0  -0.32251  -0.550363  0  2.336495  0
O  O199  1  0.49965274  0.00099394  0.99970021  1  -1.225932  0  -0.570496  -1.027414  0  2.531765  0
O  O200  1  0.50500117  0.15678430  0.94949003  1  -1.173076  0  -0.319661  -0.548103  0  2.336242  0
O  O201  1  0.38776187  0.99561669  0.94181183  1  -1.180763  0  -0.308831  -0.534187  0  2.339343  0
O  O202  1  0.65363826  0.89156316  0.94664029  1  -1.182326  0  -0.32146  -0.549277  0  2.335204  0
O  O203  1  0.39068619  0.15419031  0.94683210  1  -1.155007  0  -0.316757  -0.539579  0  2.314953  0
O  O204  1  0.65696461  0.00529592  0.94976143  1  -1.174263  0  -0.316173  -0.539929  0  2.313167  0
O  O205  1  0.49712535  0.88673151  0.94192484  1  -1.172361  0  -0.309746  -0.556801  0  2.363817  0
O  O206  1  0.57731525  0.81628636  0.02250664  1  -1.182583  0  -0.320949  -0.548328  0  2.336086  0
O  O207  1  0.53027840  0.03070303  0.08569582  1  -1.164847  0  -0.310241  -0.5573  0  2.364594  0
O  O208  1  0.52569801  0.87458838  0.08103121  1  -1.17453  0  -0.317576  -0.539951  0  2.315108  0
O  O209  1  0.58531132  0.08517296  0.03130890  1  -1.176256  0  -0.308456  -0.532573  0  2.336713  0
O  O210  1  0.31514793  0.07812454  0.02250683  1  -1.181899  0  -0.315726  -0.539363  0  2.313798  0
O  O211  1  0.37375266  0.02588076  0.08091932  1  -1.170569  0  -0.32244  -0.550752  0  2.33569  0
O  O212  1  0.78130419  0.51765159  0.39932848  1  -1.14881  0  -0.365963  -0.451838  0  2.244573  0
O  O213  1  0.96876572  0.23236976  0.35056307  1  -1.151836  0  -0.367012  -0.453176  0  2.244077  0
O  O214  1  0.15974914  0.65971699  0.54148062  1  -1.14845  0  -0.367082  -0.453636  0  2.24444  0
O  O215  1  0.09024020  0.59034817  0.70848359  1  -1.148207  0  -0.367104  -0.453277  0  2.244381  0
O  O216  1  0.70852640  0.20853107  0.09029774  1  -1.151155  0  -0.367282  -0.454036  0  2.244288  0
O  O217  1  0.54150423  0.04143319  0.15973425  1  -1.151343  0  -0.367178  -0.453709  0  2.245286  0
O  O218  1  0.23237911  0.96890174  0.85068610  1  -1.146608  0  -0.365679  -0.451367  0  2.245937  0
O  O219  1  0.51762358  0.78118136  0.89934575  1  -1.146056  0  -0.365065  -0.450791  0  2.245316  0
