# generated using pymatgen
data_CdH28C32(NO)4
_symmetry_space_group_name_H-M   'P 1'
_cell_length_a   10.29214435
_cell_length_b   12.47703625
_cell_length_c   12.55310000
_cell_angle_alpha   118.34888133
_cell_angle_beta   95.26700136
_cell_angle_gamma   94.36377012
_symmetry_Int_Tables_number   1
_chemical_formula_structural   CdH28C32(NO)4
_chemical_formula_sum   'Cd2 H56 C64 N8 O8'
_cell_volume   1399.46263582
_cell_formula_units_Z   2
loop_
 _symmetry_equiv_pos_site_id
 _symmetry_equiv_pos_as_xyz
  1  'x, y, z'
loop_
 _atom_site_type_symbol
 _atom_site_label
 _atom_site_symmetry_multiplicity
 _atom_site_fract_x
 _atom_site_fract_y
 _atom_site_fract_z
 _atom_site_occupancy
 _atom_site_hle17_bader_spin_density
 _atom_site_hle17_ddec_charge
 _atom_site_hle17_ddec_spin_density
 _atom_site_hle17_ddec_sum_bond_order
 _atom_site_hle17_magmom
 _atom_site_hse06_10hf_bader_spin_density
 _atom_site_hse06_10hf_ddec_charge
 _atom_site_hse06_10hf_ddec_spin_density
 _atom_site_hse06_10hf_ddec_sum_bond_order
 _atom_site_hse06_10hf_magmom
 _atom_site_hse06_bader_spin_density
 _atom_site_hse06_ddec_charge
 _atom_site_hse06_ddec_spin_density
 _atom_site_hse06_ddec_sum_bond_order
 _atom_site_hse06_magmom
 _atom_site_pbe_bader_charge
 _atom_site_pbe_bader_spin_density
 _atom_site_pbe_cm5_charge
 _atom_site_pbe_ddec_charge
 _atom_site_pbe_ddec_spin_density
 _atom_site_pbe_ddec_sum_bond_order
 _atom_site_pbe_magmom
Cd  Cd0  1  0.23669164  0.67112685  0.79534716  1  0  1.081214  0  1.708343  0  0  0.890355  0  2.159397  0  0  0.948738  0  2.107488  0  1.231861  0  0.764528  0.849129  0  2.194778  0
Cd  Cd1  1  0.76330967  0.32887367  0.20465359  1  0  1.081216  0  1.708325  0  0  0.890366  0  2.159358  0  0  0.948749  0  2.107449  0  1.231821  0  0.764526  0.849139  0  2.194739  0
H  H2  1  0.55158592  0.95261329  0.61168888  1  0  0.083538  0  0.961161  0  0  0.096969  0  1.019564  0  0  0.099191  0  1.019186  0  0.056967  0  0.096817  0.095371  0  1.019982  0
H  H3  1  0.44841331  0.04738631  0.38830968  1  0  0.083526  0  0.961139  0  0  0.096974  0  1.019532  0  0  0.099197  0  1.019152  0  0.057084  0  0.096819  0.095376  0  1.019948  0
H  H4  1  0.26252940  0.97253915  0.00228842  1  0  0.112254  0  0.931135  0  0  0.123306  0  0.990794  0  0  0.126481  0  0.986034  0  0.160819  0  0.143342  0.120909  0  0.994244  0
H  H5  1  0.73747081  0.02746045  0.99771181  1  0  0.112248  0  0.931151  0  0  0.123298  0  0.990817  0  0  0.126471  0  0.986058  0  0.160808  0  0.143336  0.120901  0  0.994266  0
H  H6  1  0.00659455  0.68418185  0.58947230  1  0  0.116284  0  0.941293  0  0  0.125262  0  1.003632  0  0  0.128768  0  1.001072  0  0.112916  0  0.108457  0.122637  0  1.005675  0
H  H7  1  0.99340481  0.31581867  0.41052910  1  0  0.11631  0  0.941267  0  0  0.125277  0  1.003617  0  0  0.12878  0  1.001055  0  0.112912  0  0.108466  0.122651  0  1.00566  0
H  H8  1  0.83873142  0.76119909  0.49704087  1  0  0.090224  0  0.965427  0  0  0.099182  0  1.032651  0  0  0.101871  0  1.031468  0  0.072998  0  0.098017  0.097129  0  1.033769  0
H  H9  1  0.16126781  0.23880051  0.50295929  1  0  0.09024  0  0.965422  0  0  0.099203  0  1.032638  0  0  0.101891  0  1.031456  0  0.073008  0  0.098026  0.097149  0  1.033756  0
H  H10  1  0.79432716  0.97693341  0.60702038  1  0  0.081238  0  0.976331  0  0  0.093405  0  1.037344  0  0  0.095483  0  1.037115  0  0.046575  0  0.095719  0.091884  0  1.037585  0
H  H11  1  0.20567221  0.02306711  0.39297942  1  0  0.08126  0  0.976325  0  0  0.093425  0  1.037341  0  0  0.095502  0  1.037114  0  0.046646  0  0.095731  0.091905  0  1.037582  0
H  H12  1  0.91583077  0.12518680  0.81291926  1  0  0.115767  0  0.953878  0  0  0.125948  0  1.012735  0  0  0.128579  0  1.012589  0  0.130342  0  0.108227  0.124112  0  1.012842  0
H  H13  1  0.08416748  0.87481281  0.18708002  1  0  0.115751  0  0.953866  0  0  0.125928  0  1.012733  0  0  0.128557  0  1.012584  0  0.130301  0  0.108216  0.124092  0  1.012839  0
H  H14  1  0.15117187  0.22578320  0.97132481  1  0  0.074632  0  0.938014  0  0  0.091379  0  1.000708  0  0  0.090631  0  1.003027  0  0.082209  0  0.109591  0.091804  0  0.999236  0
H  H15  1  0.84882749  0.77421732  0.02867578  1  0  0.074638  0  0.938011  0  0  0.091386  0  1.000699  0  0  0.090638  0  1.003021  0  0.082199  0  0.10959  0.091809  0  0.999226  0
H  H16  1  0.03080241  0.19266720  0.04725966  1  0  0.082649  0  0.926645  0  0  0.0977  0  0.989645  0  0  0.098121  0  0.989677  0  0.079596  0  0.110191  0.097307  0  0.989694  0
H  H17  1  0.96919793  0.80733332  0.95274181  1  0  0.08268  0  0.926603  0  0  0.097711  0  0.989642  0  0  0.09813  0  0.989674  0  0.079614  0  0.110196  0.097315  0  0.989689  0
H  H18  1  0.32820996  0.18773056  0.09381069  1  0  0.070795  0  0.941783  0  0  0.090064  0  0.999966  0  0  0.089919  0  1.001424  0  0.023114  0  0.094115  0.090081  0  0.998968  0
H  H19  1  0.67179038  0.81226997  0.90618918  1  0  0.070768  0  0.941789  0  0  0.090032  0  0.999979  0  0  0.089885  0  1.001438  0  0.02314  0  0.094117  0.090048  0  0.99898  0
H  H20  1  0.20984110  0.15026902  0.16927431  1  0  0.064913  0  0.954301  0  0  0.08141  0  1.01942  0  0  0.081195  0  1.022046  0  0.026217  0  0.090422  0.08147  0  1.017727  0
H  H21  1  0.79016035  0.84973242  0.83072608  1  0  0.064918  0  0.954253  0  0  0.081426  0  1.019353  0  0  0.081209  0  1.021979  0  0.026179  0  0.090433  0.081485  0  1.01766  0
H  H22  1  0.25221127  0.40023629  0.17674923  1  0  0.080232  0  0.937153  0  0  0.099012  0  0.995649  0  0  0.099195  0  0.997485  0  0.024084  0  0.094984  0.098786  0  0.9945  0
H  H23  1  0.74778920  0.59976516  0.82325029  1  0  0.080274  0  0.937129  0  0  0.099047  0  0.995624  0  0  0.099229  0  0.997459  0  0.024115  0  0.095006  0.098821  0  0.994477  0
H  H24  1  0.14674652  0.35810010  0.25813937  1  0  0.073777  0  0.941013  0  0  0.091351  0  1.003046  0  0  0.091462  0  1.004442  0  0.057242  0  0.092494  0.091255  0  1.002058  0
H  H25  1  0.85325382  0.64190042  0.74185971  1  0  0.073774  0  0.941003  0  0  0.091338  0  1.003046  0  0  0.091448  0  1.004441  0  0.057234  0  0.092491  0.091243  0  1.002059  0
H  H26  1  0.44810539  0.37996201  0.28791634  1  0  0.084941  0  0.937444  0  0  0.098266  0  1.003019  0  0  0.099003  0  1.003183  0  0.096207  0  0.111528  0.09765  0  1.003031  0
H  H27  1  0.55189495  0.62003851  0.71208433  1  0  0.084973  0  0.937456  0  0  0.098291  0  1.003017  0  0  0.099026  0  1.003181  0  0.096209  0  0.111543  0.097674  0  1.003028  0
H  H28  1  0.35156617  0.30712667  0.35169992  1  0  0.069757  0  0.942004  0  0  0.084801  0  1.00807  0  0  0.08422  0  1.010757  0  0.076821  0  0.108045  0.085138  0  1.006296  0
H  H29  1  0.64843319  0.69287385  0.64830068  1  0  0.069787  0  0.941982  0  0  0.0848  0  1.00807  0  0  0.084218  0  1.010756  0  0.076809  0  0.108038  0.085136  0  1.006295  0
H  H30  1  0.22657625  0.43495646  0.52531596  1  0  0.107255  0  0.952694  0  0  0.117601  0  1.016229  0  0  0.120169  0  1.012415  0  0.17627  0  0.139997  0.115642  0  1.019036  0
H  H31  1  0.77342506  0.56504406  0.47468558  1  0  0.107186  0  0.952719  0  0  0.117547  0  1.016242  0  0  0.120115  0  1.012428  0  0.176261  0  0.13999  0.115588  0  1.019048  0
H  H32  1  0.40194220  0.88030379  0.71815855  1  0  0.10413  0  0.961246  0  0  0.115784  0  1.020275  0  0  0.11822  0  1.019381  0  0.066509  0  0.103478  0.113958  0  1.021017  0
H  H33  1  0.59805827  0.11969765  0.28184177  1  0  0.104107  0  0.961272  0  0  0.115762  0  1.020304  0  0  0.118197  0  1.019407  0  0.066502  0  0.103468  0.113932  0  1.021049  0
H  H34  1  0.61095004  0.80598562  0.41093834  1  0  0.081275  0  0.979184  0  0  0.092988  0  1.039491  0  0  0.094614  0  1.040603  0  0.071137  0  0.094334  0.091815  0  1.038768  0
H  H35  1  0.38904932  0.19401490  0.58906147  1  0  0.081251  0  0.97922  0  0  0.092934  0  1.039559  0  0  0.094555  0  1.040669  0  0.071152  0  0.094324  0.09176  0  1.038839  0
H  H36  1  0.52368194  0.58319659  0.30771580  1  0  0.127521  0  0.944738  0  0  0.137144  0  1.003928  0  0  0.140774  0  1.001845  0  0.137317  0  0.110193  0.134492  0  1.005573  0
H  H37  1  0.47631937  0.41680394  0.69228574  1  0  0.12753  0  0.944716  0  0  0.137169  0  1.003887  0  0  0.140788  0  1.001818  0  0.137439  0  0.110201  0.134515  0  1.005535  0
H  H38  1  0.91162095  0.51242600  0.94918716  1  0  0.096309  0  0.963705  0  0  0.103932  0  1.031926  0  0  0.107089  0  1.029856  0  0.078635  0  0.101637  0.101565  0  1.033565  0
H  H39  1  0.08837939  0.48757452  0.05081431  1  0  0.096333  0  0.963685  0  0  0.103934  0  1.031922  0  0  0.107108  0  1.029833  0  0.078677  0  0.101655  0.101567  0  1.033561  0
H  H40  1  0.73225246  0.36478067  0.94589691  1  0  0.0923  0  0.969057  0  0  0.102427  0  1.030977  0  0  0.10469  0  1.030836  0  0.072712  0  0.098732  0.10082  0  1.031153  0
H  H41  1  0.26774606  0.63522078  0.05410326  1  0  0.092292  0  0.969102  0  0  0.102425  0  1.031019  0  0  0.104686  0  1.030878  0  0.072722  0  0.09873  0.100821  0  1.031186  0
H  H42  1  0.64155869  0.17622274  0.75082763  1  0  0.081046  0  0.960755  0  0  0.091177  0  1.024301  0  0  0.093592  0  1.023487  0  0.043893  0  0.095312  0.089393  0  1.025024  0
H  H43  1  0.35843912  0.82378054  0.24917176  1  0  0.08101  0  0.960864  0  0  0.091172  0  1.024368  0  0  0.093585  0  1.023555  0  0.043867  0  0.095324  0.089388  0  1.025089  0
H  H44  1  0.73483368  0.13334744  0.55942127  1  0  0.074855  0  0.965337  0  0  0.08736  0  1.024819  0  0  0.090004  0  1.024151  0  0.045132  0  0.092825  0.085459  0  1.02542  0
H  H45  1  0.26516595  0.86665492  0.44057942  1  0  0.074849  0  0.965347  0  0  0.087364  0  1.024819  0  0  0.090008  0  1.024151  0  0.045136  0  0.092826  0.085463  0  1.025418  0
H  H46  1  0.91894189  0.27880943  0.56608620  1  0  0.08977  0  0.986134  0  0  0.097265  0  1.055108  0  0  0.099895  0  1.054136  0  0.086296  0  0.095122  0.095411  0  1.055776  0
H  H47  1  0.08105871  0.72119293  0.43391457  1  0  0.08977  0  0.98617  0  0  0.097276  0  1.05513  0  0  0.099908  0  1.054155  0  0.086294  0  0.095128  0.095423  0  1.055798  0
H  H48  1  0.59301204  0.54608714  0.97529148  1  0  0.099156  0  0.95768  0  0  0.106139  0  1.026056  0  0  0.109321  0  1.024216  0  0.111721  0  0.103514  0.103828  0  1.027428  0
H  H49  1  0.40698861  0.45390878  0.02470784  1  0  0.099126  0  0.95774  0  0  0.10616  0  1.026065  0  0  0.10934  0  1.024225  0  0.111779  0  0.103513  0.10384  0  1.027439  0
H  H50  1  0.77609488  0.57818272  0.13633199  1  0  0.096714  0  0.966167  0  0  0.10648  0  1.027664  0  0  0.108773  0  1.02759  0  0.090138  0  0.10166  0.104813  0  1.027846  0
H  H51  1  0.22390452  0.42181137  0.86366716  1  0  0.096632  0  0.966231  0  0  0.106427  0  1.027704  0  0  0.10872  0  1.02763  0  0.090238  0  0.101646  0.104761  0  1.027885  0
H  H52  1  0.85397611  0.78853268  0.30958544  1  0  0.089483  0  0.951719  0  0  0.101311  0  1.010811  0  0  0.103657  0  1.010346  0  0.067084  0  0.100661  0.099566  0  1.011293  0
H  H53  1  0.14602356  0.21146324  0.69041381  1  0  0.089459  0  0.951744  0  0  0.101276  0  1.010852  0  0  0.103626  0  1.010377  0  0.067082  0  0.100668  0.09953  0  1.011338  0
H  H54  1  0.74264274  0.96570506  0.32557164  1  0  0.085673  0  0.950608  0  0  0.098834  0  1.007269  0  0  0.101442  0  1.006943  0  0.036693  0  0.098324  0.097005  0  1.007537  0
H  H55  1  0.25735985  0.03429086  0.67442623  1  0  0.085694  0  0.950678  0  0  0.098857  0  1.007343  0  0  0.101465  0  1.007016  0  0.036808  0  0.098342  0.097028  0  1.007611  0
H  H56  1  0.55437395  0.92931543  0.16467212  1  0  0.090706  0  0.969408  0  0  0.100601  0  1.033788  0  0  0.104272  0  1.030607  0  0.087743  0  0.098577  0.097886  0  1.036197  0
H  H57  1  0.44562807  0.07068325  0.83532621  1  0  0.090671  0  0.969382  0  0  0.100592  0  1.033734  0  0  0.104262  0  1.030554  0  0.087699  0  0.098583  0.097875  0  1.036147  0
C  C58  1  0.51145842  0.85567479  0.56933659  1  0  -0.090431  0  3.809104  0  0  -0.107188  0  4.065632  0  0  -0.109627  0  4.088536  0  -0.05322  0  -0.102069  -0.105615  0  4.050129  0
C  C59  1  0.48854192  0.14432574  0.43066249  1  0  -0.090473  0  3.809066  0  0  -0.107246  0  4.065606  0  0  -0.109687  0  4.088509  0  -0.053304  0  -0.102085  -0.105672  0  4.050101  0
C  C60  1  0.18695785  0.95554127  0.92785385  1  0  0.207369  0  3.650807  0  0  0.139842  0  3.92557  0  0  0.158058  0  3.935064  0  1.014233  0  0.161255  0.128048  0  3.918691  0
C  C61  1  0.81304054  0.04445926  0.07214668  1  0  0.207353  0  3.650878  0  0  0.139816  0  3.925648  0  0  0.158033  0  3.935143  0  1.014224  0  0.161259  0.128021  0  3.918768  0
C  C62  1  0.02950924  0.98554910  0.81629003  1  0  0.094336  0  3.787662  0  0  0.081933  0  4.034938  0  0  0.085525  0  4.057213  0  0.277639  0  0.089808  0.079524  0  4.019972  0
C  C63  1  0.97048901  0.01445050  0.18370925  1  0  0.094218  0  3.787655  0  0  0.081826  0  4.034909  0  0  0.085415  0  4.057185  0  0.277228  0  0.089759  0.079416  0  4.019943  0
C  C64  1  0.05551473  0.86216689  0.75445600  1  0  0.145647  0  3.839761  0  0  0.143102  0  4.085675  0  0  0.146869  0  4.109632  0  0.444692  0  0.083756  0.140482  0  4.069349  0
C  C65  1  0.94448548  0.13783271  0.24554423  1  0  0.14566  0  3.83982  0  0  0.14312  0  4.085708  0  0  0.146888  0  4.109664  0  0.444702  0  0.083756  0.140501  0  4.069382  0
C  C66  1  0.98655500  0.77900964  0.63866582  1  0  -0.143955  0  3.73737  0  0  -0.160654  0  3.987203  0  0  -0.163017  0  4.006054  0  -0.090926  0  -0.092468  -0.158858  0  3.97432  0
C  C67  1  0.01344423  0.22098996  0.36133354  1  0  -0.143979  0  3.737387  0  0  -0.160674  0  3.987235  0  0  -0.163031  0  4.006077  0  -0.090924  0  -0.092465  -0.158877  0  3.974351  0
C  C68  1  0.89271280  0.82314990  0.58799082  1  0  -0.085781  0  3.789609  0  0  -0.102556  0  4.045003  0  0  -0.104848  0  4.067583  0  -0.029605  0  -0.100954  -0.101018  0  4.029802  0
C  C69  1  0.10728545  0.17684970  0.41201005  1  0  -0.085776  0  3.789639  0  0  -0.102549  0  4.045029  0  0  -0.104842  0  4.067611  0  -0.029473  0  -0.100963  -0.101012  0  4.029828  0
C  C70  1  0.86782635  0.94616439  0.65048276  1  0  -0.077041  0  3.795045  0  0  -0.091568  0  4.04473  0  0  -0.09401  0  4.068412  0  -0.030326  0  -0.098632  -0.089787  0  4.028671  0
C  C71  1  0.13217191  0.05383521  0.34951653  1  0  -0.077089  0  3.795115  0  0  -0.091621  0  4.044799  0  0  -0.094061  0  4.068483  0  -0.030504  0  -0.098647  -0.089837  0  4.028736  0
C  C72  1  0.93548698  0.03018526  0.76590189  1  0  -0.148555  0  3.758808  0  0  -0.166335  0  4.01022  0  0  -0.168997  0  4.030213  0  -0.054523  0  -0.094848  -0.164523  0  3.996731  0
C  C73  1  0.06451225  0.96981434  0.23409826  1  0  -0.148497  0  3.758791  0  0  -0.166269  0  4.010196  0  0  -0.168928  0  4.030186  0  -0.054485  0  -0.094835  -0.164459  0  3.996708  0
C  C74  1  0.12714703  0.17189835  0.01703831  1  0  0.015553  0  3.617868  0  0  -0.047025  0  3.877395  0  0  -0.042104  0  3.888639  0  0.264954  0  -0.051571  -0.050336  0  3.869909  0
C  C75  1  0.87285219  0.82810126  0.98296184  1  0  0.015491  0  3.617855  0  0  -0.047102  0  3.877406  0  0  -0.04218  0  3.88865  0  0.264954  0  -0.051589  -0.050399  0  3.869903  0
C  C76  1  0.23191902  0.20652567  0.12536693  1  0  -0.131262  0  3.709381  0  0  -0.171065  0  3.96933  0  0  -0.172633  0  3.984072  0  0.003771  0  -0.163027  -0.16982  0  3.959212  0
C  C77  1  0.76808118  0.79347393  0.87463250  1  0  -0.131181  0  3.709245  0  0  -0.170968  0  3.969169  0  0  -0.172532  0  3.983903  0  0.003792  0  -0.163007  -0.169721  0  3.959046  0
C  C78  1  0.23952245  0.34179629  0.21954176  1  0  -0.121948  0  3.67003  0  0  -0.162034  0  3.927563  0  0  -0.163451  0  3.941564  0  0.013903  0  -0.163698  -0.16091  0  3.917907  0
C  C79  1  0.76047802  0.65820515  0.78045856  1  0  -0.12197  0  3.670055  0  0  -0.162056  0  3.927568  0  0  -0.163469  0  3.941558  0  0.013869  0  -0.163725  -0.160939  0  3.917917  0
C  C80  1  0.35370571  0.37631238  0.32107307  1  0  0.006347  0  3.630749  0  0  -0.055216  0  3.888209  0  0  -0.05084  0  3.899644  0  0.274012  0  -0.053122  -0.058065  0  3.880404  0
C  C81  1  0.64629476  0.62368906  0.67892725  1  0  0.006222  0  3.630901  0  0  -0.055288  0  3.888286  0  0  -0.050912  0  3.899718  0  0.274006  0  -0.053139  -0.058131  0  3.880476  0
C  C82  1  0.28370978  0.50990803  0.52222717  1  0  0.211017  0  3.655515  0  0  0.144915  0  3.926657  0  0  0.16348  0  3.936153  0  0.987507  0  0.162207  0.132927  0  3.919782  0
C  C83  1  0.71629154  0.49009249  0.47777358  1  0  0.211115  0  3.655429  0  0  0.144993  0  3.926591  0  0  0.163558  0  3.936086  0  0.987509  0  0.162213  0.133006  0  3.919717  0
C  C84  1  0.41245982  0.60933049  0.45631823  1  0  0.105806  0  3.758963  0  0  0.09374  0  4.005207  0  0  0.097738  0  4.027159  0  0.332275  0  0.094904  0.091014  0  3.990479  0
C  C85  1  0.58753968  0.39067095  0.54368281  1  0  0.105926  0  3.758867  0  0  0.093816  0  4.005149  0  0  0.097815  0  4.027101  0  0.332241  0  0.094921  0.091089  0  3.990423  0
C  C86  1  0.37805149  0.69220184  0.57152323  1  0  0.146717  0  3.84177  0  0  0.143165  0  4.090407  0  0  0.147123  0  4.113894  0  0.390191  0  0.085384  0.140437  0  4.074412  0
C  C87  1  0.62194619  0.30780052  0.42847652  1  0  0.146572  0  3.841821  0  0  0.143076  0  4.090408  0  0  0.147027  0  4.113902  0  0.39034  0  0.085353  0.140348  0  4.074412  0
C  C88  1  0.42762403  0.81713491  0.62924063  1  0  -0.148664  0  3.757774  0  0  -0.166655  0  4.007419  0  0  -0.169178  0  4.027503  0  -0.049382  0  -0.094843  -0.164609  0  3.993504  0
C  C89  1  0.57237631  0.18286561  0.37075845  1  0  -0.148568  0  3.757706  0  0  -0.166574  0  4.007342  0  0  -0.169098  0  4.027434  0  -0.049427  0  -0.094808  -0.164525  0  3.993428  0
C  C90  1  0.54571455  0.77214338  0.45525129  1  0  -0.073772  0  3.790256  0  0  -0.088294  0  4.044151  0  0  -0.090764  0  4.068033  0  -0.053583  0  -0.097472  -0.086454  0  4.02796  0
C  C91  1  0.45428663  0.22785623  0.54474742  1  0  -0.073711  0  3.790283  0  0  -0.088211  0  4.044197  0  0  -0.090671  0  4.068068  0  -0.053548  0  -0.097458  -0.086372  0  4.028006  0
C  C92  1  0.49712188  0.64721858  0.39612585  1  0  -0.142197  0  3.730058  0  0  -0.160563  0  3.982924  0  0  -0.163304  0  4.002289  0  -0.007525  0  -0.090091  -0.1587  0  3.969999  0
C  C93  1  0.50287845  0.35278194  0.60387482  1  0  -0.142259  0  3.730014  0  0  -0.160629  0  3.982882  0  0  -0.163362  0  4.002249  0  -0.007763  0  -0.090111  -0.158764  0  3.969957  0
C  C94  1  0.03605848  0.49212874  0.76093927  1  0  0.616029  0  3.961742  0  0  0.569492  0  4.250369  0  0  0.604091  0  4.244257  0  1.523976  0  0.185291  0.546041  0  4.253722  0
C  C95  1  0.96394200  0.50787270  0.23906264  1  0  0.616062  0  3.9618  0  0  0.569544  0  4.250401  0  0  0.604143  0  4.244289  0  1.523927  0  0.185326  0.546094  0  4.253754  0
C  C96  1  0.92665602  0.40420675  0.75814835  1  0  -0.075438  0  3.774333  0  0  -0.049905  0  4.003798  0  0  -0.059186  0  4.027844  0  -0.030813  0  -0.024237  -0.043854  0  3.987615  0
C  C97  1  0.07334361  0.59579561  0.24185234  1  0  -0.075417  0  3.774367  0  0  -0.049917  0  4.003864  0  0  -0.059198  0  4.027912  0  -0.030814  0  -0.024232  -0.043867  0  3.987681  0
C  C98  1  0.87287669  0.42844229  0.86471290  1  0  -0.069316  0  3.733955  0  0  -0.094277  0  3.981854  0  0  -0.092846  0  4.000911  0  -0.014322  0  -0.084771  -0.09493  0  3.968915  0
C  C99  1  0.12712378  0.57155915  0.13528901  1  0  -0.06927  0  3.734009  0  0  -0.094198  0  3.981905  0  0  -0.092778  0  4.000951  0  -0.014306  0  -0.084762  -0.094851  0  3.968967  0
C  C100  1  0.77162614  0.34598739  0.86206801  1  0  -0.07422  0  3.757838  0  0  -0.08559  0  4.005048  0  0  -0.088953  0  4.026446  0  -0.004519  0  -0.092695  -0.083388  0  3.990524  0
C  C101  1  0.22837238  0.65401406  0.13793216  1  0  -0.074214  0  3.757936  0  0  -0.085595  0  4.005146  0  0  -0.088958  0  4.026548  0  -0.004525  0  -0.092672  -0.083394  0  3.990625  0
C  C102  1  0.72202653  0.23940817  0.75245453  1  0  -0.062355  0  3.767777  0  0  -0.075716  0  4.01383  0  0  -0.075939  0  4.035095  0  -0.053133  0  -0.088769  -0.075232  0  3.999233  0
C  C103  1  0.27797129  0.76059511  0.24754406  1  0  -0.062426  0  3.767931  0  0  -0.075813  0  4.013993  0  0  -0.076036  0  4.035257  0  -0.05317  0  -0.08885  -0.075332  0  3.999401  0
C  C104  1  0.77490008  0.21507058  0.64576170  1  0  -0.084022  0  3.804984  0  0  -0.09422  0  4.05162  0  0  -0.098345  0  4.074737  0  -0.086628  0  -0.097436  -0.091492  0  4.035887  0
C  C105  1  0.22510137  0.78493086  0.35423869  1  0  -0.083977  0  3.804941  0  0  -0.094181  0  4.051581  0  0  -0.098306  0  4.074697  0  -0.086639  0  -0.097422  -0.091452  0  4.035847  0
C  C106  1  0.87705063  0.29669444  0.64854654  1  0  -0.075063  0  3.738882  0  0  -0.097562  0  3.981829  0  0  -0.096831  0  4.002736  0  -0.054642  0  -0.090392  -0.09781  0  3.967612  0
C  C107  1  0.12295082  0.70330700  0.35145465  1  0  -0.075062  0  3.738877  0  0  -0.097565  0  3.981826  0  0  -0.096834  0  4.002732  0  -0.054638  0  -0.090393  -0.097813  0  3.96761  0
C  C108  1  0.45215102  0.71753135  0.96534510  1  0  0.615296  0  3.958153  0  0  0.568696  0  4.246902  0  0  0.602935  0  4.241253  0  1.54623  0  0.184028  0.545505  0  4.249931  0
C  C109  1  0.54785003  0.28246733  0.03465476  1  0  0.615223  0  3.958139  0  0  0.568614  0  4.246898  0  0  0.602855  0  4.24125  0  1.54626  0  0.184018  0.545424  0  4.249925  0
C  C110  1  0.56352760  0.73633291  0.06094370  1  0  -0.068548  0  3.764735  0  0  -0.04069  0  3.990474  0  0  -0.049387  0  4.014659  0  -0.05583  0  -0.019676  -0.035081  0  3.974288  0
C  C111  1  0.43647499  0.26366302  0.93905418  1  0  -0.068553  0  3.764721  0  0  -0.04071  0  3.990489  0  0  -0.049409  0  4.014676  0  -0.055899  0  -0.019682  -0.035101  0  3.9743  0
C  C112  1  0.62609698  0.63732598  0.05273853  1  0  -0.065755  0  3.714805  0  0  -0.089613  0  3.960283  0  0  -0.088533  0  3.979445  0  -0.055132  0  -0.080489  -0.090138  0  3.947309  0
C  C113  1  0.37390282  0.36267087  0.94726036  1  0  -0.065596  0  3.714685  0  0  -0.089479  0  3.96014  0  0  -0.088403  0  3.979316  0  -0.055043  0  -0.080423  -0.089995  0  3.947158  0
C  C114  1  0.72913791  0.65598780  0.14277888  1  0  -0.070947  0  3.743006  0  0  -0.081114  0  3.988947  0  0  -0.084149  0  4.009862  0  -0.013326  0  -0.087958  -0.079138  0  3.974829  0
C  C115  1  0.27086162  0.34400721  0.85721833  1  0  -0.071032  0  3.74314  0  0  -0.081238  0  3.989124  0  0  -0.084275  0  4.010042  0  -0.013995  0  -0.088014  -0.079261  0  3.975004  0
C  C116  1  0.77177952  0.77407023  0.24066203  1  0  -0.06543  0  3.754699  0  0  -0.079432  0  4.001567  0  0  -0.079211  0  4.021005  0  -0.095982  0  -0.08675  -0.079332  0  3.988285  0
C  C117  1  0.22822112  0.22592569  0.75933570  1  0  -0.065242  0  3.754716  0  0  -0.079223  0  4.001567  0  0  -0.078998  0  4.021007  0  -0.094783  0  -0.086668  -0.079126  0  3.988287  0
C  C118  1  0.70945382  0.87338881  0.24946995  1  0  -0.087809  0  3.793091  0  0  -0.100238  0  4.046765  0  0  -0.103356  0  4.068163  0  -0.039409  0  -0.09752  -0.098145  0  4.03211  0
C  C119  1  0.29054585  0.12660712  0.75052770  1  0  -0.087955  0  3.793212  0  0  -0.100406  0  4.046913  0  0  -0.103526  0  4.068312  0  -0.040214  0  -0.097609  -0.098313  0  4.032259  0
C  C120  1  0.60529999  0.85422965  0.16037455  1  0  -0.085104  0  3.754945  0  0  -0.11068  0  4.005877  0  0  -0.110592  0  4.026421  0  -0.060005  0  -0.090668  -0.110441  0  3.992005  0
C  C121  1  0.39469884  0.14576720  0.83962427  1  0  -0.085066  0  3.754925  0  0  -0.110644  0  4.00585  0  0  -0.110553  0  4.026395  0  -0.059952  0  -0.090682  -0.110403  0  3.991976  0
N  N122  1  0.15417791  0.84700118  0.82729261  1  0  -0.44465  0  3.222571  0  0  -0.375998  0  3.51337  0  0  -0.399199  0  3.527574  0  -1.227335  0  -0.363089  -0.360138  0  3.503168  0
N  N123  1  0.84582243  0.15299935  0.17270885  1  0  -0.444658  0  3.222557  0  0  -0.376013  0  3.513373  0  0  -0.399213  0  3.527575  0  -1.227376  0  -0.363123  -0.360152  0  3.50317  0
N  N124  1  0.11472625  0.04177490  0.92612590  1  0  -0.122073  0  3.519677  0  0  -0.033745  0  3.74755  0  0  -0.05041  0  3.772047  0  -1.215131  0  -0.240632  -0.022654  0  3.730823  0
N  N125  1  0.88527200  0.95822471  0.07387338  1  0  -0.121971  0  3.519628  0  0  -0.033626  0  3.747469  0  0  -0.050294  0  3.771968  0  -1.214691  0  -0.240561  -0.022539  0  3.730738  0
N  N126  1  0.35033696  0.49442424  0.42856692  1  0  -0.114598  0  3.517379  0  0  -0.026632  0  3.742864  0  0  -0.043104  0  3.766292  0  -1.226242  0  -0.239628  -0.01569  0  3.726781  0
N  N127  1  0.64966435  0.50557628  0.57143382  1  0  -0.114618  0  3.51745  0  0  -0.026651  0  3.742927  0  0  -0.043124  0  3.766356  0  -1.226241  0  -0.239618  -0.01571  0  3.726843  0
N  N128  1  0.29785435  0.62639180  0.60987657  1  0  -0.445419  0  3.211306  0  0  -0.375496  0  3.498894  0  0  -0.398912  0  3.512837  0  -1.212355  0  -0.360802  -0.359563  0  3.488995  0
N  N129  1  0.70214612  0.37360964  0.39012534  1  0  -0.445387  0  3.21131  0  0  -0.375478  0  3.498888  0  0  -0.39889  0  3.512832  0  -1.21237  0  -0.360804  -0.359545  0  3.488988  0
O  O130  1  0.07386698  0.59244384  0.86217055  1  0  -0.64414  0  1.959609  0  0  -0.578147  0  2.206012  0  0  -0.607098  0  2.19591  0  -1.16279  0  -0.338979  -0.55793  0  2.212116  0
O  O131  1  0.92613447  0.40755760  0.13783143  1  0  -0.644177  0  1.959691  0  0  -0.578191  0  2.206082  0  0  -0.607143  0  2.195982  0  -1.162715  0  -0.338993  -0.557974  0  2.212188  0
O  O132  1  0.08846006  0.46587257  0.66513038  1  0  -0.650434  0  1.921004  0  0  -0.592582  0  2.153337  0  0  -0.61958  0  2.144087  0  -1.188328  0  -0.33951  -0.573686  0  2.159048  0
O  O133  1  0.91154138  0.53412887  0.33487160  1  0  -0.650446  0  1.921023  0  0  -0.592591  0  2.153338  0  0  -0.619589  0  2.14409  0  -1.18828  0  -0.339527  -0.573695  0  2.159049  0
O  O134  1  0.42276470  0.61121873  0.87020189  1  0  -0.644751  0  1.935969  0  0  -0.582257  0  2.177092  0  0  -0.610304  0  2.167139  0  -1.179476  0  -0.335745  -0.562664  0  2.183246  0
O  O135  1  0.57723426  0.38877903  0.12979658  1  0  -0.64471  0  1.935996  0  0  -0.582221  0  2.177134  0  0  -0.610269  0  2.167182  0  -1.179496  0  -0.335727  -0.562626  0  2.183284  0
O  O136  1  0.38953797  0.80735722  0.98217958  1  0  -0.648848  0  1.914716  0  0  -0.589291  0  2.142509  0  0  -0.616483  0  2.131893  0  -1.178164  0  -0.344934  -0.570292  0  2.149046  0
O  O137  1  0.61046711  0.19264238  0.01781942  1  0  -0.648834  0  1.914619  0  0  -0.589276  0  2.142407  0  0  -0.616468  0  2.131794  0  -1.178192  0  -0.344947  -0.570278  0  2.148946  0
