# generated using pymatgen
data_CuH12C22(NO4)2
_symmetry_space_group_name_H-M   'P 1'
_cell_length_a   8.90613791
_cell_length_b   8.90612759
_cell_length_c   12.20278538
_cell_angle_alpha   96.21275878
_cell_angle_beta   96.21273136
_cell_angle_gamma   107.18402967
_symmetry_Int_Tables_number   1
_chemical_formula_structural   CuH12C22(NO4)2
_chemical_formula_sum   'Cu2 H24 C44 N4 O16'
_cell_volume   909.20708010
_cell_formula_units_Z   2
loop_
 _symmetry_equiv_pos_site_id
 _symmetry_equiv_pos_as_xyz
  1  'x, y, z'
loop_
 _atom_site_type_symbol
 _atom_site_label
 _atom_site_symmetry_multiplicity
 _atom_site_fract_x
 _atom_site_fract_y
 _atom_site_fract_z
 _atom_site_occupancy
 _atom_site_hle17_ddec_charge
 _atom_site_hle17_ddec_spin_density
 _atom_site_hle17_ddec_sum_bond_order
 _atom_site_hle17_magmom
 _atom_site_hse06_10hf_ddec_charge
 _atom_site_hse06_10hf_ddec_spin_density
 _atom_site_hse06_10hf_ddec_sum_bond_order
 _atom_site_hse06_10hf_magmom
 _atom_site_hse06_ddec_charge
 _atom_site_hse06_ddec_spin_density
 _atom_site_hse06_ddec_sum_bond_order
 _atom_site_hse06_magmom
 _atom_site_pbe_cm5_charge
 _atom_site_pbe_ddec_charge
 _atom_site_pbe_ddec_spin_density
 _atom_site_pbe_ddec_sum_bond_order
 _atom_site_pbe_magmom
Cu  Cu0  1  0.54210466  0.45789507  0.74999942  1  0.872414  -0.724326  1.772205  -0.504  0.84611  -0.806857  2.161791  -0.619  0.935729  -0.885419  2.095805  -0.706  0.749056  0.790212  -0.748195  2.207942  -0.56
Cu  Cu1  1  0.45789439  0.54210466  0.25000053  1  0.872433  0.72431  1.772095  0.504  0.846165  0.806852  2.161651  0.619  0.935754  0.885405  2.095667  0.706  0.749055  0.79024  0.748192  2.207834  0.56
H  H2  1  0.46288101  0.91457107  0.79694082  1  0.11037  0.000285  0.947295  0.0  0.120011  0.000125  1.0082  0.0  0.123677  8.4e-05  1.005663  0.0  0.11034  0.117523  8.7e-05  1.010195  0.0
H  H3  1  0.91456932  0.46288039  0.29694582  1  0.110373  -0.000281  0.947282  0.0  0.120049  -0.000125  1.008133  0.0  0.123716  -8.4e-05  1.005605  0.0  0.110353  0.117558  -8.7e-05  1.010129  0.0
H  H4  1  0.53711845  0.08542990  0.20305353  1  0.110396  -0.000285  0.947255  0.0  0.120074  -0.000125  1.0081  0.0  0.123741  -8.4e-05  1.005576  0.0  0.110368  0.117584  -8.7e-05  1.010096  0.0
H  H5  1  0.08542892  0.53712048  0.70305907  1  0.110391  0.000283  0.947282  0.0  0.120036  0.000125  1.008179  0.0  0.1237  8.4e-05  1.005643  0.0  0.110347  0.117545  8.7e-05  1.010173  0.0
H  H6  1  0.48058865  0.33108122  0.49251954  1  0.11125  -0.001591  0.960907  -0.003  0.117709  -0.001263  1.023328  -0.002  0.119854  -0.000894  1.020305  -0.002  0.125619  0.115847  -0.00154  1.025819  -0.002
H  H7  1  0.33108423  0.48058854  0.99252110  1  0.111241  0.001591  0.96093  0.003  0.117731  0.001263  1.023331  0.002  0.119879  0.000894  1.020301  0.002  0.125616  0.115869  0.00154  1.025823  0.002
H  H8  1  0.51941188  0.66891970  0.50748227  1  0.111247  0.001594  0.960936  0.003  0.117678  0.001263  1.023403  0.002  0.119825  0.000894  1.020375  0.002  0.12561  0.115816  0.001539  1.025894  0.002
H  H9  1  0.66891971  0.51941241  0.00747936  1  0.11127  -0.001596  0.960892  -0.003  0.117728  -0.001264  1.023327  -0.002  0.119873  -0.000894  1.020301  -0.002  0.125629  0.115867  -0.00154  1.025817  -0.002
H  H10  1  0.59792105  0.16256616  0.37522863  1  0.113663  -0.000653  0.942563  -0.001  0.12584  -0.000598  0.997085  -0.001  0.128991  -0.000437  0.995899  0.0  0.112527  0.123316  -0.000698  0.998729  -0.001
H  H11  1  0.16256633  0.59791695  0.87522803  1  0.113648  0.000656  0.942574  0.001  0.125805  0.000598  0.997127  0.001  0.128956  0.000437  0.995941  0.0  0.112512  0.123281  0.000698  0.998767  0.001
H  H12  1  0.40208132  0.83743714  0.62477434  1  0.113677  0.000654  0.942568  0.001  0.125838  0.000598  0.997108  0.001  0.12899  0.000437  0.995922  0.0  0.112535  0.123317  0.000698  0.998748  0.001
H  H13  1  0.83743427  0.40208044  0.12477022  1  0.113678  -0.000653  0.942536  -0.001  0.125844  -0.000598  0.997079  -0.001  0.128995  -0.000437  0.995893  0.0  0.11253  0.12332  -0.000698  0.998722  -0.001
H  H14  1  0.78549955  0.03463283  0.46630461  1  0.118942  -0.000339  0.94373  -0.001  0.132056  -3.8e-05  0.999584  0.0  0.13504  -4e-06  0.996962  0.0  0.115879  0.129628  -8.4e-05  1.001827  0.0
H  H15  1  0.03463053  0.78549485  0.96630462  1  0.118827  0.000342  0.943793  0.001  0.131961  3.9e-05  0.999644  0.0  0.134945  4e-06  0.997023  0.0  0.115834  0.129533  8.4e-05  1.001889  0.0
H  H16  1  0.21450320  0.96537167  0.53369603  1  0.118855  0.000341  0.943797  0.001  0.131996  3.9e-05  0.999625  0.0  0.13498  4e-06  0.997003  0.0  0.11585  0.129572  8.4e-05  1.001868  0.0
H  H17  1  0.96536708  0.21450014  0.03369401  1  0.118928  -0.000338  0.943769  -0.001  0.132058  -3.8e-05  0.999603  0.0  0.135043  -4e-06  0.996979  0.0  0.115885  0.129631  -8.4e-05  1.001845  0.0
H  H18  1  0.93524566  0.99908659  0.64685371  1  0.113177  -0.000454  0.930355  -0.001  0.126583  -0.000298  0.984078  0.0  0.129197  -0.000186  0.982947  0.0  0.110777  0.124793  -0.000393  0.984425  0.0
H  H19  1  0.99908614  0.93524581  0.14685401  1  0.113158  0.000453  0.930311  0.001  0.126565  0.000299  0.984045  0.0  0.129181  0.000186  0.982911  0.0  0.110762  0.124773  0.000393  0.984394  0.0
H  H20  1  0.06475489  0.00091435  0.35314565  1  0.113187  0.000456  0.930353  0.001  0.126592  0.000298  0.984079  0.0  0.129207  0.000186  0.982945  0.0  0.110778  0.1248  0.000393  0.984428  0.0
H  H21  1  0.00091292  0.06475393  0.85314512  1  0.113154  -0.000457  0.930319  -0.001  0.126564  -0.000299  0.984052  0.0  0.129178  -0.000186  0.982922  0.0  0.110753  0.124775  -0.000393  0.9844  0.0
H  H22  1  0.73136860  0.85261557  0.31005986  1  0.396961  -5.6e-05  0.900943  0.0  0.361657  -4.5e-05  0.989963  0.0  0.37494  -6.5e-05  0.975003  0.0  0.296358  0.352307  -1.1e-05  0.999971  0.0
H  H23  1  0.85261354  0.73136919  0.81006513  1  0.39688  5.6e-05  0.901034  0.0  0.3616  4.5e-05  0.990031  0.0  0.374882  6.6e-05  0.975086  0.0  0.296332  0.352247  1.1e-05  1.000042  0.0
H  H24  1  0.26863121  0.14738659  0.68993462  1  0.396922  5.6e-05  0.900971  0.0  0.361669  4.5e-05  0.989917  0.0  0.374951  6.6e-05  0.974982  0.0  0.296358  0.35232  1.1e-05  0.999929  0.0
H  H25  1  0.14738434  0.26863050  0.18993964  1  0.39697  -5.6e-05  0.900926  0.0  0.361654  -4.5e-05  0.989964  0.0  0.374937  -6.6e-05  0.975004  0.0  0.296361  0.352307  -1.1e-05  0.999971  0.0
C  C26  1  0.62665669  0.75856785  0.90101640  1  0.667224  0.002593  3.87727  0.005  0.617373  -0.001139  4.185904  0.001  0.655666  -0.000557  4.175406  0.0  0.223166  0.59127  -0.001632  4.192118  0.0
C  C27  1  0.75856603  0.62665255  0.40101951  1  0.667266  -0.002596  3.877209  -0.005  0.617372  0.001139  4.185902  -0.001  0.655671  0.000551  4.175391  0.0  0.223197  0.591261  0.001631  4.192115  0.0
C  C28  1  0.37334465  0.24143193  0.09898046  1  0.66723  -0.002591  3.877197  -0.005  0.617352  0.001139  4.1859  -0.001  0.655645  0.000551  4.175401  0.0  0.223186  0.591244  0.001631  4.192117  0.0
C  C29  1  0.24143078  0.37334359  0.59898324  1  0.667301  0.002593  3.877191  0.005  0.617415  -0.001139  4.185859  0.001  0.655713  -0.000555  4.175356  0.0  0.223188  0.591309  -0.001632  4.192075  0.0
C  C30  1  0.56170968  0.88048119  0.95713520  1  -0.034429  -0.005471  3.692769  -0.006  -0.022733  -0.003637  3.929244  -0.004  -0.02604  -0.002213  3.94769  -0.003  0.002806  -0.019983  -0.004221  3.916633  -0.005
C  C31  1  0.88047629  0.56170625  0.45714055  1  -0.034323  0.005509  3.692618  0.006  -0.022664  0.003633  3.929175  0.004  -0.025979  0.002221  3.947632  0.003  0.002855  -0.019907  0.00422  3.916558  0.005
C  C32  1  0.43829277  0.11952217  0.04285959  1  -0.034285  0.00547  3.692537  0.006  -0.022646  0.003635  3.929127  0.004  -0.025954  0.002223  3.947575  0.003  0.002856  -0.019891  0.00422  3.916511  0.005
C  C33  1  0.11951936  0.43828986  0.54286456  1  -0.034444  -0.005511  3.692758  -0.006  -0.022749  -0.003634  3.929247  -0.004  -0.026059  -0.002215  3.947692  -0.003  0.00282  -0.019996  -0.00422  3.916636  -0.005
C  C34  1  0.47882062  0.95148980  0.88648854  1  -0.071896  -0.003958  3.684918  -0.004  -0.110017  -0.001282  3.941592  -0.001  -0.110007  -0.001056  3.960366  -0.001  -0.075015  -0.11091  -0.001226  3.930126  -0.001
C  C35  1  0.95148670  0.47881615  0.38649393  1  -0.072052  0.003908  3.684853  0.003  -0.110192  0.001286  3.941566  0.001  -0.110185  0.001055  3.960341  0.001  -0.075101  -0.111086  0.001225  3.930102  0.001
C  C36  1  0.52118146  0.04851238  0.11350613  1  -0.07206  0.003954  3.684752  0.004  -0.110194  0.001284  3.941484  0.001  -0.11019  0.001054  3.960258  0.001  -0.075108  -0.111089  0.001225  3.930019  0.001
C  C37  1  0.04851008  0.52117997  0.61351128  1  -0.071911  -0.003917  3.684873  -0.003  -0.110025  -0.001285  3.941537  -0.001  -0.110009  -0.001055  3.960304  -0.001  -0.075009  -0.110918  -0.001226  3.930072  -0.001
C  C38  1  0.58258931  0.92935129  0.07288572  1  -0.066289  -0.003357  3.723323  -0.003  -0.054301  -0.001341  3.961879  -0.001  -0.060026  -0.001079  3.983239  -0.001  -0.007945  -0.050099  -0.002092  3.947634  -0.002
C  C39  1  0.92934703  0.58258550  0.57289041  1  -0.066529  0.003323  3.723512  0.003  -0.054531  0.00134  3.962087  0.001  -0.060253  0.001079  3.983443  0.001  -0.008055  -0.050329  0.002092  3.947845  0.002
C  C40  1  0.41741277  0.07065089  0.92710895  1  -0.066571  0.003358  3.723487  0.003  -0.054564  0.001339  3.962072  0.001  -0.060285  0.001082  3.983427  0.001  -0.008069  -0.050361  0.002092  3.947827  0.002
C  C41  1  0.07064713  0.41740941  0.42711448  1  -0.066277  -0.003315  3.723411  -0.003  -0.054278  -0.001345  3.961958  -0.001  -0.060004  -0.001078  3.983318  -0.001  -0.007959  -0.050073  -0.002092  3.947714  -0.002
C  C42  1  0.65593609  0.84686793  0.15303186  1  0.635735  -0.000325  3.849663  0.0  0.583367  -0.000463  4.160506  0.0  0.616767  -0.000406  4.150278  0.0  0.222649  0.560725  -0.000578  4.166048  0.0
C  C43  1  0.84686599  0.65593463  0.65303778  1  0.635781  0.000334  3.849563  0.0  0.583415  0.000465  4.160415  0.0  0.616813  0.000405  4.150194  0.0  0.22263  0.560773  0.000578  4.165958  0.0
C  C44  1  0.34406450  0.15313306  0.84696176  1  0.635837  0.00033  3.849517  0.0  0.583467  0.000464  4.160381  0.0  0.616864  0.000404  4.150162  0.0  0.222637  0.560825  0.000578  4.165926  0.0
C  C45  1  0.15313151  0.34406386  0.34696850  1  0.635719  -0.000331  3.849694  0.0  0.583335  -0.000463  4.160557  0.0  0.616737  -0.000407  4.150329  0.0  0.222613  0.560691  -0.000578  4.1661  0.0
C  C46  1  0.56493740  0.27834150  0.53068071  1  0.163654  0.007955  3.633357  0.009  0.133319  0.001154  3.891608  0.002  0.146812  0.00225  3.906499  0.004  0.064896  0.1246  0.000277  3.882442  0.001
C  C47  1  0.27834191  0.56493485  0.03068091  1  0.16363  -0.007956  3.633395  -0.009  0.133269  -0.001153  3.891658  -0.002  0.146763  -0.002248  3.906545  -0.004  0.064864  0.124548  -0.000277  3.88249  -0.001
C  C48  1  0.43506540  0.72165944  0.46932128  1  0.163658  -0.008004  3.633265  -0.009  0.133341  -0.001154  3.891505  -0.002  0.146835  -0.002249  3.906392  -0.004  0.064896  0.124619  -0.000277  3.882336  -0.001
C  C49  1  0.72165755  0.43506252  0.96931806  1  0.163663  0.007987  3.633355  0.009  0.133324  0.001152  3.891639  0.002  0.146818  0.002248  3.906529  0.004  0.064895  0.124603  0.000277  3.88247  0.001
C  C50  1  0.63093143  0.18143772  0.46523976  1  -0.10057  -0.01014  3.693498  -0.011  -0.114696  -0.004731  3.948269  -0.006  -0.122743  -0.004108  3.968065  -0.005  -0.075799  -0.110186  -0.005144  3.936951  -0.006
C  C51  1  0.18143578  0.63092737  0.96523980  1  -0.100572  0.010129  3.693436  0.011  -0.114682  0.004729  3.948213  0.006  -0.12273  0.004107  3.96801  0.005  -0.075782  -0.11017  0.005144  3.93689  0.006
C  C52  1  0.36907131  0.81856677  0.53476253  1  -0.100603  0.010182  3.693436  0.011  -0.114718  0.00473  3.94822  0.006  -0.122766  0.004108  3.968019  0.005  -0.075796  -0.110209  0.005144  3.936901  0.006
C  C53  1  0.81856332  0.36906882  0.03475904  1  -0.100595  -0.010164  3.693502  -0.011  -0.114711  -0.00473  3.948282  -0.006  -0.122759  -0.004108  3.968079  -0.005  -0.075802  -0.110202  -0.005144  3.93696  -0.006
C  C54  1  0.73533849  0.11235893  0.51508909  1  -0.031758  0.008889  3.644488  0.008  -0.058884  0.003062  3.892012  0.003  -0.054431  0.003268  3.908359  0.003  -0.054149  -0.061594  0.002871  3.882021  0.003
C  C55  1  0.11235696  0.73533461  0.01509067  1  -0.031538  -0.008888  3.644362  -0.008  -0.05868  -0.003064  3.891865  -0.003  -0.054227  -0.003269  3.908216  -0.003  -0.054086  -0.061389  -0.002871  3.881863  -0.003
C  C56  1  0.26466391  0.88764439  0.48491143  1  -0.031639  -0.008935  3.644374  -0.008  -0.05879  -0.003063  3.891884  -0.003  -0.054337  -0.003269  3.908232  -0.003  -0.054123  -0.061503  -0.002872  3.88189  -0.003
C  C57  1  0.88764100  0.26466155  0.98490972  1  -0.031713  0.008911  3.644531  0.008  -0.058863  0.003061  3.892033  0.003  -0.054412  0.003268  3.908382  0.003  -0.054156  -0.061574  0.002871  3.882036  0.003
C  C58  1  0.77746991  0.14272541  0.63215956  1  0.035329  -0.005341  3.78586  -0.006  0.052102  -0.002639  4.016555  -0.003  0.048908  -0.002147  4.041054  -0.003  0.003201  0.053267  -0.003106  3.999854  -0.004
C  C59  1  0.14272549  0.77746842  0.13216068  1  0.035248  0.005332  3.785816  0.006  0.052035  0.002644  4.016536  0.003  0.048842  0.002146  4.041035  0.003  0.003171  0.053197  0.003106  3.999836  0.004
C  C60  1  0.22253027  0.85727434  0.36784048  1  0.035287  0.005377  3.785747  0.006  0.052094  0.002645  4.016442  0.003  0.048902  0.002146  4.040941  0.003  0.00316  0.053256  0.003106  3.999741  0.004
C  C61  1  0.85727546  0.22253015  0.86783933  1  0.035205  -0.005365  3.785865  -0.006  0.052051  -0.00264  4.016514  -0.003  0.048858  -0.002146  4.041011  -0.003  0.003142  0.053213  -0.003106  3.99981  -0.004
C  C62  1  0.71025020  0.24594621  0.69127030  1  0.114194  0.000546  3.798541  0.001  0.110873  -0.001321  4.035736  -0.001  0.115527  -0.000282  4.060599  0.001  0.107344  0.108282  -0.001957  4.018703  -0.001
C  C63  1  0.24594834  0.71025182  0.19127346  1  0.114274  -0.000539  3.798545  -0.001  0.11092  0.001314  4.035789  0.001  0.115572  0.000282  4.06065  -0.001  0.107395  0.108328  0.001956  4.018755  0.001
C  C64  1  0.28974701  0.75405116  0.30872685  1  0.114231  -0.000581  3.79854  -0.001  0.11086  0.001314  4.035782  0.001  0.115513  0.000283  4.060643  -0.001  0.107394  0.108268  0.001956  4.018746  0.001
C  C65  1  0.75405219  0.28974910  0.80872835  1  0.114319  0.000569  3.798399  0.001  0.110924  -0.001318  4.035658  -0.001  0.115578  -0.000284  4.06052  0.001  0.107419  0.108329  -0.001957  4.018623  -0.001
C  C66  1  0.88432904  0.07843801  0.69330125  1  -0.076388  -0.001115  3.698634  -0.001  -0.101649  -0.000668  3.955171  -0.001  -0.104142  -0.000541  3.977332  -0.001  -0.076555  -0.098846  -0.000888  3.938773  -0.001
C  C67  1  0.07843889  0.88432935  0.19330179  1  -0.076439  0.001132  3.698638  0.001  -0.101701  0.000667  3.955184  0.001  -0.104192  0.000543  3.977346  0.001  -0.076582  -0.098894  0.000888  3.938788  0.001
C  C68  1  0.11567114  0.92156174  0.30669879  1  -0.076406  0.001062  3.698651  0.001  -0.101678  0.000669  3.955183  0.001  -0.10417  0.000542  3.977344  0.001  -0.076544  -0.098871  0.000888  3.938785  0.001
C  C69  1  0.92156129  0.11567040  0.80669744  1  -0.076432  -0.001075  3.6987  -0.001  -0.101718  -0.00067  3.955241  -0.001  -0.104211  -0.000544  3.977401  -0.001  -0.076572  -0.098913  -0.000888  3.938844  -0.001
N  N70  1  0.60406309  0.30928814  0.64106873  1  -0.348176  -0.086233  3.359891  -0.105  -0.306271  -0.061337  3.658385  -0.08  -0.339674  -0.051143  3.682016  -0.07  -0.346765  -0.28647  -0.066501  3.643995  -0.084
N  N71  1  0.30928822  0.60406022  0.14106887  1  -0.348243  0.086238  3.359829  0.105  -0.30634  0.061341  3.658383  0.08  -0.339735  0.051146  3.682005  0.07  -0.346768  -0.286535  0.066503  3.643992  0.084
N  N72  1  0.39593971  0.69071280  0.35893245  1  -0.348203  0.086281  3.359717  0.105  -0.306302  0.061341  3.658244  0.08  -0.339696  0.051147  3.681865  0.07  -0.346776  -0.286497  0.066504  3.64385  0.084
N  N73  1  0.69071274  0.39593836  0.85893032  1  -0.348266  -0.086253  3.359946  -0.105  -0.30636  -0.061336  3.658505  -0.08  -0.339764  -0.051142  3.682136  -0.07  -0.346789  -0.286559  -0.066503  3.644113  -0.084
O  O74  1  0.51814157  0.63277344  0.85189646  1  -0.56857  -0.081399  2.078948  -0.104  -0.540561  -0.049506  2.367635  -0.07  -0.581937  -0.038235  2.357914  -0.057  -0.312222  -0.512386  -0.056738  2.374127  -0.077
O  O75  1  0.63276914  0.51813594  0.35190007  1  -0.568592  0.081416  2.078938  0.104  -0.540619  0.049508  2.36764  0.07  -0.581988  0.038237  2.357907  0.057  -0.312267  -0.512439  0.056739  2.374133  0.077
O  O76  1  0.48186163  0.36722874  0.14809993  1  -0.568613  0.081405  2.078855  0.104  -0.54058  0.04951  2.367592  0.07  -0.581949  0.038237  2.357866  0.057  -0.312253  -0.5124  0.056741  2.374086  0.077
O  O77  1  0.36722730  0.48185900  0.64810337  1  -0.568549  -0.081407  2.078983  -0.104  -0.540552  -0.049506  2.367636  -0.07  -0.581929  -0.038233  2.357912  -0.057  -0.312208  -0.512377  -0.056737  2.374129  -0.077
O  O78  1  0.77442882  0.79444227  0.90043475  1  -0.607856  0.000971  2.014151  0.001  -0.565652  0.000261  2.251906  0.0  -0.592482  0.000702  2.243193  0.001  -0.306325  -0.546793  -0.000296  2.257347  -0.001
O  O79  1  0.79443813  0.77442573  0.40043367  1  -0.607821  -0.000969  2.014036  0.0  -0.565602  -0.00026  2.251848  0.0  -0.592433  -0.000702  2.243129  -0.001  -0.306311  -0.546746  0.000295  2.257286  0.001
O  O80  1  0.22557435  0.20555987  0.09956573  1  -0.607816  -0.000973  2.014055  -0.001  -0.565621  -0.00026  2.251866  0.0  -0.592449  -0.000702  2.243149  -0.001  -0.306312  -0.546763  0.000295  2.257305  0.001
O  O81  1  0.20555870  0.22557043  0.59956662  1  -0.607919  0.000971  2.014038  0.001  -0.565736  0.000262  2.251855  0.0  -0.592566  0.000702  2.24314  0.001  -0.306374  -0.546877  -0.000295  2.257298  -0.001
O  O82  1  0.69684273  0.92427543  0.25657994  1  -0.55605  -0.00018  2.097111  0.0  -0.507077  -0.000241  2.325543  0.0  -0.528961  -0.000232  2.31054  0.0  -0.331983  -0.491413  -0.000144  2.334809  0.0
O  O83  1  0.92427483  0.69684213  0.75658439  1  -0.555907  0.00018  2.096996  0.0  -0.506973  0.000242  2.325426  0.0  -0.528854  0.000225  2.310437  0.0  -0.331935  -0.49132  0.000144  2.33472  0.0
O  O84  1  0.30315898  0.07572556  0.74341542  1  -0.555937  0.000184  2.096962  0.0  -0.50702  0.000244  2.325366  0.0  -0.528902  0.000221  2.310385  0.0  -0.331946  -0.491367  0.000144  2.334665  0.0
O  O85  1  0.07572418  0.30315757  0.24341965  1  -0.556056  -0.000179  2.097027  0.0  -0.507063  -0.000243  2.325477  0.0  -0.528947  -0.000229  2.310475  0.0  -0.331979  -0.491402  -0.000144  2.334746  0.0
O  O86  1  0.66928854  0.71406811  0.12603264  1  -0.554588  -0.000748  1.980823  0.0  -0.521921  -0.000398  2.220633  0.0  -0.542619  -0.000468  2.210856  0.0  -0.28325  -0.507786  -0.000166  2.227009  0.0
O  O87  1  0.71406420  0.66928790  0.62604094  1  -0.554656  0.000739  1.980909  0.0  -0.521968  0.000396  2.220714  0.0  -0.54267  0.000477  2.210945  0.0  -0.283253  -0.507832  0.000166  2.227092  0.0
O  O88  1  0.33071278  0.28593526  0.87396042  1  -0.55469  0.000742  1.980848  0.0  -0.522006  0.000394  2.220653  0.0  -0.542706  0.000479  2.210883  0.0  -0.283264  -0.507869  0.000166  2.227033  0.0
O  O89  1  0.28593216  0.33071057  0.37396607  1  -0.554566  -0.000743  1.980936  0.0  -0.521898  -0.000397  2.220753  0.0  -0.542596  -0.000472  2.210977  0.0  -0.283213  -0.507763  -0.000166  2.22713  0.0
