# generated using pymatgen
data_CdH14C16(N4O3)2
_symmetry_space_group_name_H-M   'P 1'
_cell_length_a   7.09159893
_cell_length_b   11.86113588
_cell_length_c   11.75273704
_cell_angle_alpha   116.90663701
_cell_angle_beta   89.99992061
_cell_angle_gamma   90.00000660
_symmetry_Int_Tables_number   1
_chemical_formula_structural   CdH14C16(N4O3)2
_chemical_formula_sum   'Cd2 H28 C32 N16 O12'
_cell_volume   881.55660727
_cell_formula_units_Z   2
loop_
 _symmetry_equiv_pos_site_id
 _symmetry_equiv_pos_as_xyz
  1  'x, y, z'
loop_
 _atom_site_type_symbol
 _atom_site_label
 _atom_site_symmetry_multiplicity
 _atom_site_fract_x
 _atom_site_fract_y
 _atom_site_fract_z
 _atom_site_occupancy
 _atom_site_hle17_bader_spin_density
 _atom_site_hle17_ddec_charge
 _atom_site_hle17_ddec_spin_density
 _atom_site_hle17_ddec_sum_bond_order
 _atom_site_hle17_magmom
 _atom_site_hse06_10hf_bader_spin_density
 _atom_site_hse06_10hf_ddec_charge
 _atom_site_hse06_10hf_ddec_spin_density
 _atom_site_hse06_10hf_ddec_sum_bond_order
 _atom_site_hse06_10hf_magmom
 _atom_site_hse06_bader_spin_density
 _atom_site_hse06_ddec_charge
 _atom_site_hse06_ddec_spin_density
 _atom_site_hse06_ddec_sum_bond_order
 _atom_site_hse06_magmom
 _atom_site_pbe_bader_spin_density
 _atom_site_pbe_cm5_charge
 _atom_site_pbe_ddec_charge
 _atom_site_pbe_ddec_spin_density
 _atom_site_pbe_ddec_sum_bond_order
 _atom_site_pbe_magmom
Cd  Cd0  1  0.00000025  0.99999802  0.99999936  1  0  1.202279  0  1.701262  0  0  1.026328  0  2.15644  0  0  1.078191  0  2.102706  0  0  0.786088  0.989193  0  2.193533  0
Cd  Cd1  1  0.50000512  0.00000180  0.50000085  1  0  1.202292  0  1.701276  0  0  1.026331  0  2.156453  0  0  1.07819  0  2.102721  0  0  0.7861  0.989195  0  2.19355  0
H  H2  1  0.56286804  0.63605160  0.68226395  1  0  0.127106  0  0.935893  0  0  0.130897  0  1.008816  0  0  0.135033  0  1.004761  0  0  0.116191  0.127877  0  1.011805  0
H  H3  1  0.06286074  0.36394820  0.81773620  1  0  0.127072  0  0.935923  0  0  0.130864  0  1.00885  0  0  0.134999  0  1.004796  0  0  0.11618  0.127844  0  1.011838  0
H  H4  1  0.43713659  0.36395100  0.31773200  1  0  0.127092  0  0.935944  0  0  0.130889  0  1.008862  0  0  0.135023  0  1.004809  0  0  0.116177  0.127866  0  1.011849  0
H  H5  1  0.93714812  0.63604588  0.18226691  1  0  0.127188  0  0.935909  0  0  0.130992  0  1.008791  0  0  0.135126  0  1.004738  0  0  0.116212  0.127973  0  1.01178  0
H  H6  1  0.67084619  0.48208894  0.94697712  1  0  0.085257  0  0.968745  0  0  0.087074  0  1.046387  0  0  0.090415  0  1.043323  0  0  0.112047  0.084583  0  1.048827  0
H  H7  1  0.17083812  0.51791366  0.55302507  1  0  0.085247  0  0.968799  0  0  0.087081  0  1.046421  0  0  0.090422  0  1.043358  0  0  0.112055  0.084591  0  1.048859  0
H  H8  1  0.32915703  0.51791554  0.05302309  1  0  0.085287  0  0.968844  0  0  0.087106  0  1.046488  0  0  0.090446  0  1.043423  0  0  0.112059  0.084617  0  1.048925  0
H  H9  1  0.82915100  0.48208420  0.44697637  1  0  0.085314  0  0.968804  0  0  0.0871  0  1.046488  0  0  0.09044  0  1.043424  0  0  0.112037  0.08461  0  1.048928  0
H  H10  1  0.61450309  0.86942522  0.08806574  1  0  0.08553  0  0.956952  0  0  0.091446  0  1.025632  0  0  0.095226  0  1.021517  0  0  0.115525  0.088579  0  1.028821  0
H  H11  1  0.11450824  0.13057459  0.41193307  1  0  0.085496  0  0.956917  0  0  0.091419  0  1.025594  0  0  0.095197  0  1.021479  0  0  0.11551  0.088552  0  1.028784  0
H  H12  1  0.38549308  0.13057927  0.91193193  1  0  0.085507  0  0.956996  0  0  0.091468  0  1.025613  0  0  0.095247  0  1.021499  0  0  0.115533  0.088599  0  1.028806  0
H  H13  1  0.88549075  0.86942043  0.58806707  1  0  0.085466  0  0.956879  0  0  0.09145  0  1.025493  0  0  0.095229  0  1.02138  0  0  0.115492  0.08858  0  1.02869  0
H  H14  1  0.48996334  0.30202974  0.77706294  1  0  0.113607  0  0.955273  0  0  0.114092  0  1.032154  0  0  0.11786  0  1.02668  0  0  0.138147  0.111034  0  1.035823  0
H  H15  1  0.98996208  0.69797182  0.72293852  1  0  0.113623  0  0.955259  0  0  0.11409  0  1.032159  0  0  0.117873  0  1.026671  0  0  0.138157  0.111033  0  1.035827  0
H  H16  1  0.51003847  0.69797569  0.22293601  1  0  0.113652  0  0.955281  0  0  0.114125  0  1.032192  0  0  0.117915  0  1.026692  0  0  0.13816  0.111069  0  1.035858  0
H  H17  1  0.01004114  0.30202604  0.27706717  1  0  0.113638  0  0.95521  0  0  0.114078  0  1.03216  0  0  0.11789  0  1.026641  0  0  0.138155  0.111022  0  1.035826  0
H  H18  1  0.66986961  0.22884650  0.40810271  1  0  0.105742  0  0.95238  0  0  0.114081  0  1.014101  0  0  0.116874  0  1.010641  0  0  0.135896  0.11185  0  1.016818  0
H  H19  1  0.16987134  0.77115425  0.09189903  1  0  0.105752  0  0.952317  0  0  0.114059  0  1.014066  0  0  0.116847  0  1.010613  0  0  0.135878  0.111826  0  1.016784  0
H  H20  1  0.33013361  0.77115799  0.59189665  1  0  0.105751  0  0.95224  0  0  0.114111  0  1.013947  0  0  0.116901  0  1.010491  0  0  0.135936  0.11188  0  1.016664  0
H  H21  1  0.83012906  0.22883983  0.90810409  1  0  0.105724  0  0.952283  0  0  0.114071  0  1.01401  0  0  0.116859  0  1.010557  0  0  0.135901  0.111838  0  1.016728  0
H  H22  1  0.06366879  0.01030702  0.76357403  1  0  0.418066  0  0.893353  0  0  0.383232  0  0.963639  0  0  0.395274  0  0.946275  0  0  0.282771  0.37472  0  0.97588  0
H  H23  1  0.56366893  0.98969372  0.73642485  1  0  0.418039  0  0.893365  0  0  0.38321  0  0.963643  0  0  0.39525  0  0.946282  0  0  0.282773  0.374699  0  0.975881  0
H  H24  1  0.93632879  0.98968989  0.23642527  1  0  0.418077  0  0.893327  0  0  0.383231  0  0.963639  0  0  0.395275  0  0.946275  0  0  0.282753  0.374718  0  0.975881  0
H  H25  1  0.43632865  0.01031076  0.26357452  1  0  0.418085  0  0.893311  0  0  0.383242  0  0.963622  0  0  0.395285  0  0.946259  0  0  0.282753  0.374728  0  0.975864  0
H  H26  1  0.23378699  0.93106532  0.78731456  1  0  0.423623  0  0.877951  0  0  0.392198  0  0.943029  0  0  0.402577  0  0.927915  0  0  0.29075  0.384837  0  0.95375  0
H  H27  1  0.73378853  0.06893537  0.71268586  1  0  0.423611  0  0.877962  0  0  0.392183  0  0.943046  0  0  0.402565  0  0.927925  0  0  0.290749  0.384823  0  0.953766  0
H  H28  1  0.76621059  0.06893160  0.21268474  1  0  0.423631  0  0.87794  0  0  0.39221  0  0.943012  0  0  0.402593  0  0.927888  0  0  0.290745  0.384848  0  0.953734  0
H  H29  1  0.26621328  0.93106817  0.28731647  1  0  0.423649  0  0.877916  0  0  0.392236  0  0.942974  0  0  0.402617  0  0.927854  0  0  0.290759  0.384873  0  0.953698  0
C  C30  1  0.58275765  0.64797254  0.77897394  1  0  -0.096081  0  3.675809  0  0  -0.139156  0  3.942918  0  0  -0.13549  0  3.954938  0  0  -0.066062  -0.141178  0  3.93322  0
C  C31  1  0.08275341  0.35203009  0.72102748  1  0  -0.096059  0  3.67584  0  0  -0.139176  0  3.942941  0  0  -0.135507  0  3.954954  0  0  -0.066141  -0.141196  0  3.933243  0
C  C32  1  0.41724416  0.35203289  0.22102415  1  0  -0.096055  0  3.675896  0  0  -0.139137  0  3.942992  0  0  -0.135469  0  3.954997  0  0  -0.066085  -0.141154  0  3.933287  0
C  C33  1  0.91724699  0.64796116  0.27897008  1  0  -0.096192  0  3.675786  0  0  -0.139283  0  3.942912  0  0  -0.135613  0  3.954914  0  0  -0.066129  -0.141306  0  3.933214  0
C  C34  1  0.59068804  0.76791421  0.88254693  1  0  -0.099984  0  3.745266  0  0  -0.073106  0  3.982053  0  0  -0.083829  0  4.005238  0  0  -0.010371  -0.066572  0  3.967151  0
C  C35  1  0.09068827  0.23208369  0.61745233  1  0  -0.099935  0  3.745171  0  0  -0.073054  0  3.981954  0  0  -0.083775  0  4.005135  0  0  -0.010314  -0.066518  0  3.967051  0
C  C36  1  0.40930812  0.23208366  0.11744771  1  0  -0.099946  0  3.745314  0  0  -0.073054  0  3.982071  0  0  -0.083772  0  4.005245  0  0  -0.010328  -0.066519  0  3.967164  0
C  C37  1  0.90931354  0.76791323  0.38254953  1  0  -0.09976  0  3.745237  0  0  -0.072877  0  3.981976  0  0  -0.083595  0  4.005151  0  0  -0.010285  -0.066341  0  3.96707  0
C  C38  1  0.61009278  0.54359643  0.80198293  1  0  0.112823  0  3.783658  0  0  0.094891  0  4.041293  0  0  0.105258  0  4.063933  0  0  0.095777  0.094041  0  4.026761  0
C  C39  1  0.11008860  0.45640430  0.69801846  1  0  0.112725  0  3.783695  0  0  0.094889  0  4.041219  0  0  0.105266  0  4.063851  0  0  0.095827  0.094035  0  4.026696  0
C  C40  1  0.38990903  0.45640143  0.19801341  1  0  0.112831  0  3.783499  0  0  0.094879  0  4.041092  0  0  0.105295  0  4.063726  0  0  0.095873  0.094031  0  4.02656  0
C  C41  1  0.88990757  0.54359829  0.30199024  1  0  0.112828  0  3.783601  0  0  0.094864  0  4.041192  0  0  0.105285  0  4.063827  0  0  0.09581  0.094017  0  4.02666  0
C  C42  1  0.64070491  0.56144551  0.92653578  1  0  0.04195  0  3.708689  0  0  0.003955  0  3.984337  0  0  0.009774  0  3.996217  0  0  0.041988  0.000303  0  3.974703  0
C  C43  1  0.14070103  0.43855427  0.57346260  1  0  0.04206  0  3.708561  0  0  0.004023  0  3.984172  0  0  0.00984  0  3.996053  0  0  0.04201  0.000374  0  3.974537  0
C  C44  1  0.35929549  0.43855426  0.07345377  1  0  0.04189  0  3.708768  0  0  0.003848  0  3.984481  0  0  0.009664  0  3.996366  0  0  0.041914  0.000198  0  3.974839  0
C  C45  1  0.85929373  0.56144359  0.42654225  1  0  0.041795  0  3.708682  0  0  0.003769  0  3.984427  0  0  0.009592  0  3.996296  0  0  0.041867  0.000119  0  3.974786  0
C  C46  1  0.61505454  0.77712166  0.00499319  1  0  0.11288  0  3.688951  0  0  0.074639  0  3.951066  0  0  0.081637  0  3.966728  0  0  0.049791  0.070082  0  3.940905  0
C  C47  1  0.11505386  0.22288099  0.49500862  1  0  0.112905  0  3.688968  0  0  0.074673  0  3.951057  0  0  0.081673  0  3.966717  0  0  0.04981  0.070117  0  3.940897  0
C  C48  1  0.38494445  0.22288188  0.99500659  1  0  0.112881  0  3.689071  0  0  0.074633  0  3.951153  0  0  0.081629  0  3.966817  0  0  0.049778  0.070076  0  3.940995  0
C  C49  1  0.88494090  0.77711876  0.50498943  1  0  0.112908  0  3.688913  0  0  0.074633  0  3.951012  0  0  0.081628  0  3.96668  0  0  0.049795  0.070077  0  3.940851  0
C  C50  1  0.58389694  0.88356340  0.86110653  1  0  0.687216  0  3.88412  0  0  0.631107  0  4.178865  0  0  0.666547  0  4.17049  0  0  0.217497  0.607069  0  4.183861  0
C  C51  1  0.08389992  0.11643733  0.63889318  1  0  0.687201  0  3.884082  0  0  0.631073  0  4.178855  0  0  0.666515  0  4.170476  0  0  0.217469  0.607036  0  4.183848  0
C  C52  1  0.41609782  0.11644203  0.13889241  1  0  0.687117  0  3.884215  0  0  0.630984  0  4.17901  0  0  0.666428  0  4.170633  0  0  0.217402  0.606945  0  4.183998  0
C  C53  1  0.91610189  0.88355675  0.36110483  1  0  0.686873  0  3.884498  0  0  0.630779  0  4.179229  0  0  0.666222  0  4.170854  0  0  0.217336  0.606741  0  4.184215  0
C  C54  1  0.54830571  0.31032488  0.69524713  1  0  0.188117  0  3.598606  0  0  0.117872  0  3.859842  0  0  0.141737  0  3.874484  0  0  0.16686  0.108684  0  3.851901  0
C  C55  1  0.04830411  0.68967587  0.80475517  1  0  0.188088  0  3.598653  0  0  0.117838  0  3.859923  0  0  0.141698  0  3.87456  0  0  0.166849  0.108651  0  3.85198  0
C  C56  1  0.45169751  0.68968056  0.30474671  1  0  0.188271  0  3.598366  0  0  0.117944  0  3.859659  0  0  0.141836  0  3.874293  0  0  0.166895  0.108758  0  3.851709  0
C  C57  1  0.95169770  0.31032010  0.19525221  1  0  0.188389  0  3.598289  0  0  0.118085  0  3.859584  0  0  0.141962  0  3.874205  0  0  0.166968  0.108896  0  3.851639  0
C  C58  1  0.64008777  0.27737667  0.50950951  1  0  0.214277  0  3.690515  0  0  0.160275  0  3.982879  0  0  0.173023  0  3.992114  0  0  0.149058  0.152377  0  3.974441  0
C  C59  1  0.14008291  0.72262500  0.99049058  1  0  0.214323  0  3.690384  0  0  0.160362  0  3.982739  0  0  0.173111  0  3.991977  0  0  0.149128  0.152464  0  3.974299  0
C  C60  1  0.35991686  0.72262593  0.49048303  1  0  0.214371  0  3.690394  0  0  0.160362  0  3.982752  0  0  0.17311  0  3.991974  0  0  0.149064  0.152462  0  3.974312  0
C  C61  1  0.85991467  0.27737097  0.00951680  1  0  0.214418  0  3.690301  0  0  0.160414  0  3.982657  0  0  0.173163  0  3.991878  0  0  0.149072  0.152515  0  3.974217  0
N  N62  1  0.63745567  0.67652635  0.02705510  1  0  -0.291672  0  3.083962  0  0  -0.249379  0  3.359563  0  0  -0.26197  0  3.375654  0  0  -0.31523  -0.240885  0  3.348762  0
N  N63  1  0.13744800  0.32347251  0.47294581  1  0  -0.291725  0  3.084073  0  0  -0.249439  0  3.359688  0  0  -0.262031  0  3.375783  0  0  -0.315262  -0.240943  0  3.348887  0
N  N64  1  0.36254473  0.32347435  0.97294254  1  0  -0.291587  0  3.084111  0  0  -0.24929  0  3.359724  0  0  -0.261881  0  3.37581  0  0  -0.315199  -0.240796  0  3.348925  0
N  N65  1  0.86254112  0.67652819  0.52705948  1  0  -0.291583  0  3.083783  0  0  -0.24928  0  3.35938  0  0  -0.261872  0  3.375472  0  0  -0.315114  -0.240784  0  3.348578  0
N  N66  1  0.60873637  0.42023394  0.69850910  1  0  0.005447  0  3.599694  0  0  0.117406  0  3.782128  0  0  0.07783  0  3.843334  0  0  -0.121629  0.125061  0  3.764407  0
N  N67  1  0.10873477  0.57976773  0.80149187  1  0  0.005493  0  3.599801  0  0  0.117442  0  3.782185  0  0  0.077845  0  3.843428  0  0  -0.12163  0.125095  0  3.764468  0
N  N68  1  0.39126121  0.57977243  0.30149028  1  0  0.005287  0  3.599735  0  0  0.117415  0  3.781996  0  0  0.077696  0  3.843355  0  0  -0.121583  0.12507  0  3.764276  0
N  N69  1  0.89125717  0.42022729  0.19851167  1  0  0.005273  0  3.599706  0  0  0.117427  0  3.781926  0  0  0.077693  0  3.843314  0  0  -0.121563  0.125081  0  3.764209  0
N  N70  1  0.66736363  0.40024718  0.57974391  1  0  -0.27668  0  2.861653  0  0  -0.271371  0  3.131931  0  0  -0.272383  0  3.152705  0  0  -0.220419  -0.264743  0  3.121405  0
N  N71  1  0.16735751  0.59975259  0.92025529  1  0  -0.27672  0  2.861515  0  0  -0.271431  0  3.131803  0  0  -0.272437  0  3.15258  0  0  -0.220471  -0.264804  0  3.121276  0
N  N72  1  0.33264523  0.59975826  0.42025248  1  0  -0.276679  0  2.861682  0  0  -0.271428  0  3.131943  0  0  -0.272391  0  3.152737  0  0  -0.220472  -0.264802  0  3.121418  0
N  N73  1  0.83264430  0.40024054  0.07974824  1  0  -0.276722  0  2.861653  0  0  -0.271479  0  3.131905  0  0  -0.27244  0  3.152701  0  0  -0.22047  -0.264853  0  3.121381  0
N  N74  1  0.56621013  0.21856873  0.57621630  1  0  -0.404759  0  3.153571  0  0  -0.33468  0  3.439849  0  0  -0.356387  0  3.450614  0  0  -0.338143  -0.319788  0  3.429768  0
N  N75  1  0.06620825  0.78143296  0.92378641  1  0  -0.404772  0  3.153632  0  0  -0.3347  0  3.43993  0  0  -0.356393  0  3.450657  0  0  -0.338155  -0.319801  0  3.429826  0
N  N76  1  0.43379873  0.78143103  0.42377664  1  0  -0.404996  0  3.153687  0  0  -0.334932  0  3.440027  0  0  -0.356636  0  3.450786  0  0  -0.338329  -0.320052  0  3.429978  0
N  N77  1  0.93379497  0.21856585  0.07622397  1  0  -0.405044  0  3.153603  0  0  -0.33498  0  3.439958  0  0  -0.356675  0  3.45069  0  0  -0.338349  -0.320095  0  3.429897  0
O  O78  1  0.47340997  0.88208383  0.77461592  1  0  -0.653384  0  1.996897  0  0  -0.585634  0  2.215531  0  0  -0.61252  0  2.204745  0  0  -0.314759  -0.566791  0  2.222438  0
O  O79  1  0.97341290  0.11791679  0.72538512  1  0  -0.653411  0  1.996846  0  0  -0.585646  0  2.215486  0  0  -0.612531  0  2.204692  0  0  -0.314722  -0.566798  0  2.222387  0
O  O80  1  0.52659466  0.11792255  0.22538430  1  0  -0.653366  0  1.996808  0  0  -0.585611  0  2.215452  0  0  -0.612516  0  2.204681  0  0  -0.314712  -0.566755  0  2.222349  0
O  O81  1  0.02659737  0.88207351  0.27461201  1  0  -0.653264  0  1.996778  0  0  -0.585542  0  2.215426  0  0  -0.612433  0  2.204638  0  0  -0.314719  -0.566686  0  2.222324  0
O  O82  1  0.69198391  0.97509447  0.92648599  1  0  -0.650693  0  2.019493  0  0  -0.585738  0  2.276216  0  0  -0.614814  0  2.265763  0  0  -0.327077  -0.565233  0  2.282697  0
O  O83  1  0.19198987  0.02490813  0.57351533  1  0  -0.650667  0  2.01948  0  0  -0.585706  0  2.276235  0  0  -0.614781  0  2.265779  0  0  -0.327075  -0.565199  0  2.282716  0
O  O84  1  0.30801508  0.02491002  0.07351507  1  0  -0.650617  0  2.019505  0  0  -0.585663  0  2.276255  0  0  -0.614737  0  2.265801  0  0  -0.327029  -0.565158  0  2.282732  0
O  O85  1  0.80801617  0.97508690  0.42647971  1  0  -0.650546  0  2.019667  0  0  -0.585587  0  2.276382  0  0  -0.61466  0  2.265926  0  0  -0.32697  -0.565081  0  2.28286  0
O  O86  1  0.09642021  0.94698600  0.79532577  1  0  -0.849523  0  1.897116  0  0  -0.787261  0  2.104608  0  0  -0.810771  0  2.070341  0  0  -0.591641  -0.770509  0  2.128368  0
O  O87  1  0.59642319  0.05301474  0.70467393  1  0  -0.849478  0  1.897134  0  0  -0.787228  0  2.104649  0  0  -0.810736  0  2.070381  0  0  -0.591645  -0.770458  0  2.128367  0
O  O88  1  0.90357596  0.05300619  0.20466968  1  0  -0.849549  0  1.89718  0  0  -0.787245  0  2.104604  0  0  -0.810758  0  2.070329  0  0  -0.591614  -0.7705  0  2.128382  0
O  O89  1  0.40357862  0.94699258  0.29533013  1  0  -0.84959  0  1.897153  0  0  -0.787285  0  2.10454  0  0  -0.810792  0  2.070265  0  0  -0.59163  -0.770537  0  2.128319  0
