# generated using pymatgen
data_Ag4Mo4H8C12N10O13
_symmetry_space_group_name_H-M   'P 1'
_cell_length_a   9.61646188
_cell_length_b   11.16873093
_cell_length_c   12.21200000
_cell_angle_alpha   71.91177307
_cell_angle_beta   88.35688412
_cell_angle_gamma   88.48873394
_symmetry_Int_Tables_number   1
_chemical_formula_structural   Ag4Mo4H8C12N10O13
_chemical_formula_sum   'Ag8 Mo8 H16 C24 N20 O26'
_cell_volume   1246.06980367
_cell_formula_units_Z   2
loop_
 _symmetry_equiv_pos_site_id
 _symmetry_equiv_pos_as_xyz
  1  'x, y, z'
loop_
 _atom_site_type_symbol
 _atom_site_label
 _atom_site_symmetry_multiplicity
 _atom_site_fract_x
 _atom_site_fract_y
 _atom_site_fract_z
 _atom_site_occupancy
 _atom_site_pbe_bader_charge
 _atom_site_pbe_bader_spin_density
 _atom_site_pbe_cm5_charge
 _atom_site_pbe_ddec_charge
 _atom_site_pbe_ddec_spin_density
 _atom_site_pbe_ddec_sum_bond_order
 _atom_site_pbe_magmom
Ag  Ag0  1  0.18768027  0.01266325  0.45719430  1  0.673521  0  0.487341  0.477473  0  1.95399  0
Ag  Ag1  1  0.81231820  0.98733558  0.54280681  1  0.673537  0  0.487331  0.477437  0  1.953999  0
Ag  Ag2  1  0.57651187  0.99896538  0.37064197  1  0.641011  0  0.488286  0.421268  0  1.981675  0
Ag  Ag3  1  0.42348864  0.00103533  0.62935773  1  0.640956  0  0.488307  0.42133  0  1.981652  0
Ag  Ag4  1  0.46469003  0.39795393  0.66366107  1  0.675049  0  0.506004  0.430058  0  1.913097  0
Ag  Ag5  1  0.53531050  0.60204584  0.33633890  1  0.675103  0  0.506007  0.430053  0  1.913105  0
Ag  Ag6  1  0.14911781  0.61869591  0.42080435  1  0.66054  0  0.491926  0.436319  0  1.806745  0
Ag  Ag7  1  0.85088170  0.38130292  0.57919673  1  0.66056  0  0.491924  0.43632  0  1.806758  0
Mo  Mo8  1  0.32940744  0.92070611  0.18627127  1  2.62479  0  1.520861  2.195331  0  4.564624  0
Mo  Mo9  1  0.67059203  0.07929460  0.81372846  1  2.624771  0  1.52087  2.195335  0  4.564645  0
Mo  Mo10  1  0.30289058  0.11189101  0.90565660  1  2.640358  0  1.54117  2.209636  0  4.560558  0
Mo  Mo11  1  0.69710889  0.88810970  0.09434394  1  2.640401  0  1.541146  2.209645  0  4.560618  0
Mo  Mo12  1  0.09092859  0.85267485  0.02836094  1  2.588938  0  1.511684  2.142211  0  4.636537  0
Mo  Mo13  1  0.90907088  0.14732587  0.97163879  1  2.589034  0  1.511696  2.142178  0  4.636586  0
Mo  Mo14  1  0.94412678  0.93804954  0.25304945  1  2.597144  0  1.499763  2.155271  0  4.600421  0
Mo  Mo15  1  0.05587375  0.06195023  0.74695134  1  2.597142  0  1.499789  2.155306  0  4.600356  0
H  H16  1  0.88844400  0.62551552  0.28155928  1  0.17955  0  0.113454  0.101702  0  1.037031  0
H  H17  1  0.11155551  0.37448331  0.71844180  1  0.179536  0  0.113447  0.101682  0  1.03703  0
H  H18  1  0.78685468  0.51992598  0.15329880  1  0.103321  0  0.106393  0.113906  0  1.016727  0
H  H19  1  0.21314687  0.48007473  0.84670088  1  0.103302  0  0.106424  0.113948  0  1.01673  0
H  H20  1  0.89685659  0.31130557  0.14578134  1  0.116052  0  0.107279  0.114638  0  1.030676  0
H  H21  1  0.10314600  0.68869515  0.85421749  1  0.116046  0  0.107268  0.114655  0  1.03064  0
H  H22  1  0.09351469  0.22170948  0.27258734  1  0.115541  0  0.107838  0.128828  0  1.01093  0
H  H23  1  0.90648688  0.77829029  0.72741260  1  0.115546  0  0.107836  0.128835  0  1.01095  0
H  H24  1  0.65586358  0.35119733  0.86737812  1  0.141032  0  0.114728  0.096331  0  1.036527  0
H  H25  1  0.34413593  0.64880150  0.13262133  1  0.14105  0  0.114729  0.096337  0  1.036503  0
H  H26  1  0.75651101  0.45603887  0.99808975  1  0.099812  0  0.110535  0.114955  0  1.017293  0
H  H27  1  0.24348746  0.54395996  0.00191135  1  0.099755  0  0.110534  0.114984  0  1.017288  0
H  H28  1  0.68802073  0.68401873  0.97290996  1  0.143055  0  0.109297  0.116967  0  1.027699  0
H  H29  1  0.31197776  0.31597915  0.02709141  1  0.143036  0  0.109292  0.116972  0  1.027679  0
H  H30  1  0.52660434  0.79311464  0.81748656  1  0.112236  0  0.109659  0.132716  0  1.003449  0
H  H31  1  0.47339413  0.20688419  0.18251455  1  0.112222  0  0.109629  0.132687  0  1.003529  0
C  C32  1  0.20751916  0.32452934  0.42453771  1  0.960281  0  0.22259  0.229861  0  4.036589  0
C  C33  1  0.79248241  0.67547043  0.57546223  1  0.960289  0  0.22262  0.229894  0  4.036547  0
C  C34  1  0.09517789  0.37586626  0.34434422  1  0.497376  0  0.116292  0.147425  0  4.006046  0
C  C35  1  0.90482264  0.62413351  0.65565575  1  0.497372  0  0.116253  0.147346  0  4.006193  0
C  C36  1  0.93130239  0.53614082  0.27719923  1  0.549872  0  0.046658  0.117931  0  3.913963  0
C  C37  1  0.06869816  0.46385801  0.72280101  1  0.549885  0  0.046651  0.117965  0  3.913938  0
C  C38  1  0.87547935  0.47574028  0.20488695  1  -0.113229  0  -0.082965  -0.109733  0  3.94371  0
C  C39  1  0.12452222  0.52425949  0.79511300  1  -0.113244  0  -0.082993  -0.109822  0  3.94376  0
C  C40  1  0.93472521  0.36231559  0.20145213  1  -0.025878  0  -0.06764  -0.017524  0  3.920537  0
C  C41  1  0.06527530  0.63768512  0.79854757  1  -0.025829  0  -0.06764  -0.017547  0  3.920531  0
C  C42  1  0.04614000  0.31115107  0.27275835  1  -0.005808  0  -0.077851  -0.13047  0  3.898048  0
C  C43  1  0.95386157  0.68884870  0.72724078  1  -0.005854  0  -0.077816  -0.130399  0  3.89813  0
C  C44  1  0.41041262  0.68811766  0.66576651  1  0.967941  0  0.217818  0.214376  0  4.038568  0
C  C45  1  0.58958791  0.31188211  0.33423265  1  0.96795  0  0.217795  0.214334  0  4.0385  0
C  C46  1  0.50674983  0.63006570  0.75919195  1  0.506982  0  0.11887  0.150544  0  3.989395  0
C  C47  1  0.49324968  0.36993313  0.24080668  1  0.506765  0  0.118892  0.150582  0  3.989415  0
C  C48  1  0.62911235  0.44871619  0.85940417  1  0.496334  0  0.049776  0.109036  0  3.905961  0
C  C49  1  0.37088714  0.55128358  0.14059500  1  0.496305  0  0.04978  0.109102  0  3.905863  0
C  C50  1  0.68422940  0.50817560  0.93272679  1  -0.088722  0  -0.078948  -0.11779  0  3.953601  0
C  C51  1  0.31576906  0.49182323  0.06727350  1  -0.088636  0  -0.078919  -0.117848  0  3.95352  0
C  C52  1  0.64733245  0.63323386  0.91815112  1  -0.020599  0  -0.061929  -0.012551  0  3.928791  0
C  C53  1  0.35266604  0.36676402  0.08184861  1  -0.020606  0  -0.061927  -0.012505  0  3.928694  0
C  C54  1  0.55676420  0.69515772  0.83042604  1  0.01683  0  -0.073111  -0.130069  0  3.882096  0
C  C55  1  0.44323737  0.30484205  0.16957227  1  0.017181  0  -0.073135  -0.130129  0  3.882183  0
N  N56  1  0.25523534  0.20413336  0.45886358  1  -0.680614  0  -0.237936  -0.236646  0  3.454857  0
N  N57  1  0.74476519  0.79586641  0.54113640  1  -0.680621  0  -0.237967  -0.236697  0  3.454821  0
N  N58  1  0.35512068  0.20009378  0.53520860  1  -0.146374  0  -0.124449  -0.043479  0  3.477171  0
N  N59  1  0.64487985  0.79990599  0.46479219  1  -0.146359  0  -0.124415  -0.043405  0  3.477061  0
N  N60  1  0.36641209  0.31418358  0.54579897  1  -0.151573  0  -0.118142  -0.000663  0  3.51596  0
N  N61  1  0.63358739  0.68581619  0.45420184  1  -0.151557  0  -0.11811  -0.000629  0  3.515791  0
N  N62  1  0.27632021  0.39342730  0.47710835  1  -0.632966  0  -0.214548  -0.257149  0  3.333533  0
N  N63  1  0.72368032  0.60657246  0.52289162  1  -0.632993  0  -0.214597  -0.257199  0  3.333494  0
N  N64  1  0.03962938  0.48897913  0.34486729  1  -1.185826  0  -0.334407  -0.252677  0  3.540949  0
N  N65  1  0.96037010  0.51102064  0.65513352  1  -1.185802  0  -0.334382  -0.252625  0  3.540929  0
N  N66  1  0.34837878  0.62152587  0.60708359  1  -0.643269  0  -0.213427  -0.255732  0  3.384334  0
N  N67  1  0.65162173  0.37847484  0.39291611  1  -0.643275  0  -0.213373  -0.255618  0  3.384133  0
N  N68  1  0.26471780  0.70221850  0.53320647  1  -0.139215  0  -0.107668  0.002989  0  3.506957  0
N  N69  1  0.73528271  0.29778221  0.46679323  1  -0.139224  0  -0.107708  0.002855  0  3.506958  0
N  N70  1  0.27434533  0.81581747  0.54502029  1  -0.121496  0  -0.115623  -0.041993  0  3.447132  0
N  N71  1  0.72565518  0.18418324  0.45497941  1  -0.121476  0  -0.115614  -0.041954  0  3.447077  0
N  N72  1  0.36639662  0.80965071  0.62802570  1  -0.693567  0  -0.238947  -0.223361  0  3.468099  0
N  N73  1  0.63360285  0.19035000  0.37197403  1  -0.693572  0  -0.238916  -0.223278  0  3.468034  0
N  N74  1  0.54311418  0.50772058  0.77408521  1  -1.194432  0  -0.329777  -0.232281  0  3.512458  0
N  N75  1  0.45688741  0.49227824  0.22591418  1  -1.194542  0  -0.329799  -0.23235  0  3.512508  0
O  O76  1  0.27794884  0.89276727  0.01726473  1  -1.054736  0  -0.588848  -0.902242  0  1.948288  0
O  O77  1  0.72205165  0.10723438  0.98273553  1  -1.054741  0  -0.588876  -0.902253  0  1.948285  0
O  O78  1  0.05013870  0.86693207  0.88521386  1  -0.926032  0  -0.544029  -0.743928  0  1.888828  0
O  O79  1  0.94986181  0.13306864  0.11478584  1  -0.926119  0  -0.544025  -0.7439  0  1.888801  0
O  O80  1  0.33788683  0.76139717  0.26305593  1  -0.848796  0  -0.520509  -0.723096  0  1.954644  0
O  O81  1  0.66211370  0.23860260  0.73694404  1  -0.848802  0  -0.52052  -0.723097  0  1.95465  0
O  O82  1  0.51651188  0.93191010  0.12518920  1  -0.985903  0  -0.591212  -0.836722  0  2.133774  0
O  O83  1  0.48348863  0.06809061  0.87481051  1  -0.985847  0  -0.591227  -0.836697  0  2.133754  0
O  O84  1  0.12595996  0.92982719  0.17400954  1  -1.097279  0  -0.619557  -0.975013  0  2.268655  0
O  O85  1  0.87403953  0.07017258  0.82599127  1  -1.097275  0  -0.619594  -0.975083  0  2.268634  0
O  O86  1  0.24681146  0.04120218  0.77615280  1  -1.015868  0  -0.589297  -0.873909  0  2.075715  0
O  O87  1  0.75318905  0.95879853  0.22384772  1  -1.015873  0  -0.589269  -0.873866  0  2.075679  0
O  O88  1  0.09038172  0.69482611  0.09834453  1  -0.807789  0  -0.498236  -0.636455  0  1.713624  0
O  O89  1  0.90961879  0.30517460  0.90165517  1  -0.807811  0  -0.498223  -0.636428  0  1.713655  0
O  O90  1  0.95148573  0.78125215  0.33528201  1  -0.844018  0  -0.518828  -0.684004  0  1.842559  0
O  O91  1  0.04851374  0.21874857  0.66471853  1  -0.844018  0  -0.518803  -0.683972  0  1.842532  0
O  O92  1  0.30052714  0.27053579  0.83461929  1  -0.81789  0  -0.499543  -0.660853  0  1.818315  0
O  O93  1  0.69947127  0.72946586  0.16538265  1  -0.817913  0  -0.499559  -0.660863  0  1.818333  0
O  O94  1  0.31507211  0.10704974  0.05212721  1  -0.92834  0  -0.544727  -0.754953  0  1.891768  0
O  O95  1  0.68492842  0.89295003  0.94787440  1  -0.928379  0  -0.544709  -0.754938  0  1.891773  0
O  O96  1  0.34931948  0.99634550  0.29024574  1  -0.878324  0  -0.53678  -0.721537  0  1.987934  0
O  O97  1  0.65067999  0.00365521  0.70975481  1  -0.878315  0  -0.536769  -0.721537  0  1.988001  0
O  O98  1  0.98109156  0.01577677  0.35257485  1  -0.895038  0  -0.543824  -0.73215  0  1.958665  0
O  O99  1  0.01890895  0.98422394  0.64742568  1  -0.895012  0  -0.543813  -0.732125  0  1.958635  0
O  O100  1  0.09024568  0.08868888  0.92363339  1  -1.164038  0  -0.625494  -1.052902  0  2.282904  0
O  O101  1  0.90975381  0.91131089  0.07636661  1  -1.163991  0  -0.625489  -1.052911  0  2.282926  0
