# generated using pymatgen
data_Al2H17C27O10F
_symmetry_space_group_name_H-M   'P 1'
_cell_length_a   6.72327023
_cell_length_b   13.30811113
_cell_length_c   18.20183655
_cell_angle_alpha   111.37490048
_cell_angle_beta   96.21327467
_cell_angle_gamma   91.43294410
_symmetry_Int_Tables_number   1
_chemical_formula_structural   Al2H17C27O10F
_chemical_formula_sum   'Al4 H34 C54 O20 F2'
_cell_volume   1504.00286544
_cell_formula_units_Z   2
loop_
 _symmetry_equiv_pos_site_id
 _symmetry_equiv_pos_as_xyz
  1  'x, y, z'
loop_
 _atom_site_type_symbol
 _atom_site_label
 _atom_site_symmetry_multiplicity
 _atom_site_fract_x
 _atom_site_fract_y
 _atom_site_fract_z
 _atom_site_occupancy
 _atom_site_pbe_bader_charge
 _atom_site_pbe_bader_spin_density
 _atom_site_pbe_cm5_charge
 _atom_site_pbe_ddec_charge
 _atom_site_pbe_ddec_spin_density
 _atom_site_pbe_ddec_sum_bond_order
 _atom_site_pbe_magmom
Al  Al0  1  0.11225498  0.50130098  0.49205335  1  2.501884  0  0.4009  1.632059  0  2.559756  0
Al  Al1  1  0.60857705  0.48970803  0.49362416  1  2.499684  0  0.40455  1.633084  0  2.559377  0
Al  Al2  1  0.84331043  0.75503832  0.00358722  1  2.500922  0  0.405841  1.641331  0  2.556627  0
Al  Al3  1  0.34305547  0.76314569  0.00474253  1  2.501113  0  0.40719  1.638197  0  2.555053  0
H  H4  1  0.80834720  0.92497739  0.59581236  1  0.042181  0  0.098348  0.098571  0  1.0178  0
H  H5  1  0.96216903  0.59303221  0.76416241  1  0.046696  0  0.099945  0.098303  0  1.032666  0
H  H6  1  0.08457058  0.40792835  0.94028364  1  0.048829  0  0.096226  0.095803  0  0.997064  0
H  H7  1  0.99854503  0.72845942  0.75617473  1  0.064147  0  0.099986  0.099741  0  1.036207  0
H  H8  1  0.07640467  0.05970582  0.91899881  1  0.026378  0  0.096424  0.096707  0  1.021507  0
H  H9  1  0.79040764  0.11244209  0.61321416  1  0.070857  0  0.098316  0.097543  0  1.06232  0
H  H10  1  0.09172266  0.21883115  0.92968591  1  0.025376  0  0.095759  0.094281  0  1.017367  0
H  H11  1  0.03797864  0.54324317  0.88167981  1  0.117995  0  0.105176  0.110585  0  1.047064  0
H  H12  1  0.12590071  0.21063309  0.32016419  1  0.115443  0  0.121215  0.143326  0  0.976462  0
H  H13  1  0.83368335  0.03136005  0.18926683  1  0.076729  0  0.111867  0.110252  0  0.986638  0
H  H14  1  0.29657678  0.06407915  0.21779466  1  0.124296  0  0.106795  0.131137  0  1.010269  0
H  H15  1  0.58658647  0.05336176  0.92985195  1  0.047226  0  0.098409  0.098646  0  0.993963  0
H  H16  1  0.56914843  0.37596700  0.90656160  1  0.075025  0  0.098064  0.096997  0  1.021444  0
H  H17  1  0.43163150  0.54793700  0.74982723  1  0.07587  0  0.103652  0.10091  0  1.020533  0
H  H18  1  0.36020151  0.18199061  0.57866783  1  0.013055  0  0.099807  0.097541  0  0.998155  0
H  H19  1  0.57881209  0.85536752  0.86834589  1  0.110206  0  0.105635  0.111686  0  1.027193  0
H  H20  1  0.53881768  0.68810418  0.74833924  1  0.047078  0  0.103341  0.102109  0  1.02055  0
H  H21  1  0.34441871  0.86862827  0.60383532  1  0.042453  0  0.10106  0.097954  0  1.024034  0
H  H22  1  0.56959418  0.23074477  0.91843701  1  0.033949  0  0.096581  0.093734  0  1.01765  0
H  H23  1  0.35265202  0.00633821  0.59333652  1  0.055541  0  0.098145  0.095111  0  1.01812  0
H  H24  1  0.38456757  0.37633584  0.63423761  1  0.081731  0  0.105995  0.11303  0  1.002951  0
H  H25  1  0.32559007  0.65088663  0.18617307  1  0.116314  0  0.121979  0.145103  0  0.974797  0
H  H26  1  0.62732304  0.59810586  0.30915538  1  0.106022  0  0.111209  0.107695  0  0.986638  0
H  H27  1  0.16433734  0.59238138  0.28490169  1  0.106305  0  0.108519  0.13103  0  0.997804  0
H  H28  1  0.01966002  0.17086383  0.57912387  1  0.046381  0  0.089007  0.124706  0  1.046445  0
H  H29  1  0.77851053  0.21083536  0.55446375  1  0.01771  0  0.09052  0.128114  0  0.993969  0
H  H30  1  0.99820951  0.28178519  0.54869062  1  0.030928  0  0.090039  0.120988  0  1.032978  0
H  H31  1  0.92284259  0.68337875  0.61842001  1  0.061484  0  0.099227  0.13763  0  1.031847  0
H  H32  1  0.75512598  0.76942584  0.59417830  1  0.019012  0  0.087323  0.114708  0  1.042071  0
H  H33  1  0.01148388  0.77953012  0.58179836  1  0.041825  0  0.087254  0.120913  0  1.02705  0
H  H34  1  0.32941958  0.35304722  0.46146486  1  0.627743  0  0.344347  0.420637  0  0.869976  0
H  H35  1  0.83637488  0.59213613  0.44850948  1  0.618602  0  0.34698  0.423168  0  0.861521  0
H  H36  1  0.61809940  0.89981299  0.03148704  1  0.608956  0  0.352477  0.429544  0  0.854241  0
H  H37  1  0.10432156  0.64565993  0.03183574  1  0.624269  0  0.350766  0.426032  0  0.85907  0
C  C38  1  0.40948264  0.66672441  0.59724225  1  1.581516  0  0.280486  0.653349  0  4.048292  0
C  C39  1  0.32655224  0.55122037  0.37958615  1  1.543075  0  0.256896  0.679815  0  4.111294  0
C  C40  1  0.82083020  0.31561940  0.39092512  1  1.612046  0  0.257848  0.584302  0  4.179395  0
C  C41  1  0.90868222  0.45474144  0.60884726  1  1.545874  0  0.280386  0.671423  0  4.059962  0
C  C42  1  0.03391557  0.89126921  0.84458607  1  -0.02316  0  -0.014977  -0.032944  0  3.999349  0
C  C43  1  0.93415419  0.42672102  0.68126908  1  0.003667  0  -0.017757  -0.105174  0  3.987451  0
C  C44  1  0.95056080  0.84556372  0.70279768  1  -0.077685  0  -0.003816  0.141868  0  3.986724  0
C  C45  1  0.99499438  0.81419618  0.76643468  1  0.010848  0  -0.089056  -0.164881  0  3.973466  0
C  C46  1  0.03929756  0.00131272  0.85842847  1  0.000595  0  -0.089735  -0.160914  0  3.954897  0
C  C47  1  0.99463773  0.03749334  0.79415164  1  0.009879  0  -0.0007  0.038584  0  3.932547  0
C  C48  1  0.94179930  0.95698726  0.71666499  1  -0.004396  0  -0.008499  0.017799  0  3.989806  0
C  C49  1  0.99849766  0.15019885  0.80188216  1  -0.006637  0  -0.000494  0.033632  0  3.92922  0
C  C50  1  0.94515536  0.17694344  0.73345028  1  -0.009735  0  -0.001135  0.040986  0  3.938541  0
C  C51  1  0.86588277  0.09283959  0.66110927  1  -0.030647  0  -0.097052  -0.129111  0  4.063739  0
C  C52  1  0.87032183  0.98719179  0.65216672  1  -0.072557  0  -0.097775  -0.128926  0  4.048585  0
C  C53  1  0.05014541  0.23684135  0.87648279  1  0.013115  0  -0.096372  -0.135205  0  4.044794  0
C  C54  1  0.04781508  0.34244185  0.88242785  1  -0.094671  0  -0.091239  -0.127352  0  4.016963  0
C  C55  1  0.00365004  0.37105678  0.81439239  1  0.01643  0  -0.00839  0.07164  0  4.023487  0
C  C56  1  0.95985397  0.28734105  0.73750692  1  -0.030216  0  0.00227  -0.016139  0  3.885614  0
C  C57  1  0.00519923  0.48064091  0.82287294  1  0.003349  0  -0.085783  -0.111556  0  3.984628  0
C  C58  1  0.96512148  0.50841719  0.75729322  1  -0.03994  0  -0.09161  -0.09965  0  4.020211  0
C  C59  1  0.93667096  0.31720598  0.66913244  1  0.008754  0  -0.001464  0.102473  0  3.882268  0
C  C60  1  0.14655927  0.02868584  0.18956779  1  -0.092737  0  -0.085357  -0.235472  0  3.847176  0
C  C61  1  0.97913318  0.07196137  0.21972737  1  0.070186  0  -0.070401  0.005062  0  4.009686  0
C  C62  1  0.81780112  0.21307417  0.32062998  1  0.431903  0  0.100659  0.131648  0  3.966332  0
C  C63  1  0.98250975  0.16797131  0.28944370  1  0.029118  0  -0.087414  -0.176842  0  4.017747  0
C  C64  1  0.43483774  0.76920046  0.66885879  1  -0.124867  0  -0.011512  -0.033743  0  3.974345  0
C  C65  1  0.50710852  0.47183811  0.83534603  1  -0.036552  0  -0.010579  -0.03475  0  3.957596  0
C  C66  1  0.52997277  0.85906274  0.81042672  1  -0.012218  0  -0.079394  -0.105179  0  3.952959  0
C  C67  1  0.50486373  0.76531183  0.74372405  1  0.031608  0  -0.085283  -0.097283  0  3.973946  0
C  C68  1  0.40026163  0.86815399  0.66213208  1  0.018769  0  -0.081043  -0.144562  0  3.944995  0
C  C69  1  0.44260619  0.96661071  0.72836897  1  -0.001199  0  0.003107  0.039112  0  3.927109  0
C  C70  1  0.50322001  0.96086599  0.80424336  1  -0.024197  0  -0.002379  0.075597  0  4.000626  0
C  C71  1  0.43415357  0.07183517  0.72172863  1  0.001359  0  -0.000685  0.033076  0  3.934397  0
C  C72  1  0.48310054  0.16835494  0.79013637  1  0.001888  0  0.002173  0.035876  0  3.918957  0
C  C73  1  0.53322578  0.15805074  0.86526932  1  -0.063332  0  -0.090889  -0.125159  0  4.024282  0
C  C74  1  0.54264994  0.05899875  0.87201732  1  0.004324  0  -0.08895  -0.126098  0  4.011919  0
C  C75  1  0.38817944  0.07969975  0.64594315  1  -0.126047  0  -0.091149  -0.124407  0  4.043711  0
C  C76  1  0.39175823  0.17748715  0.63743085  1  0.007238  0  -0.091838  -0.132036  0  4.032536  0
C  C77  1  0.43345860  0.27584201  0.70431109  1  0.053342  0  -0.004373  0.073183  0  4.012028  0
C  C78  1  0.48149904  0.27327542  0.78211575  1  0.006729  0  0.002238  0.036886  0  3.901485  0
C  C79  1  0.42131702  0.37575576  0.69391864  1  0.006832  0  -0.080502  -0.10828  0  3.963216  0
C  C80  1  0.45069305  0.47168043  0.75817522  1  -0.034336  0  -0.082727  -0.091347  0  3.991923  0
C  C81  1  0.52454079  0.37434863  0.84676222  1  -0.05935  0  -0.083355  -0.145195  0  3.932581  0
C  C82  1  0.31515856  0.58593271  0.31107167  1  -0.036505  0  -0.085226  -0.235688  0  3.857249  0
C  C83  1  0.48014106  0.60717586  0.28127850  1  -0.02949  0  -0.069213  0.007066  0  4.015542  0
C  C84  1  0.63248262  0.65830375  0.18168577  1  0.383555  0  0.100778  0.133249  0  3.969087  0
C  C85  1  0.47074308  0.63960064  0.21414231  1  0.080824  0  -0.088301  -0.179952  0  4.023465  0
C  C86  1  0.62578663  0.69208583  0.11201234  1  1.631179  0  0.257546  0.586034  0  4.177772  0
C  C87  1  0.54060882  0.58200383  0.90071428  1  1.567055  0  0.280339  0.661108  0  4.032996  0
C  C88  1  0.05923233  0.84177265  0.90682848  1  1.570218  0  0.282552  0.666213  0  4.035345  0
C  C89  1  0.13455167  0.92950607  0.11737387  1  1.53575  0  0.255047  0.677968  0  4.108649  0
C  C90  1  0.93221913  0.24055604  0.58363680  1  -0.059404  0  -0.243286  -0.413423  0  3.970297  0
C  C91  1  0.90809347  0.76529143  0.62014431  1  -0.028098  0  -0.252271  -0.421593  0  4.008225  0
O  O92  1  0.49920224  0.55048440  0.41646512  1  -1.261378  0  -0.242117  -0.615009  0  2.335444  0
O  O93  1  0.24287418  0.64092985  0.55176282  1  -1.272887  0  -0.235817  -0.597735  0  2.365049  0
O  O94  1  0.06516901  0.49114348  0.59019138  1  -1.261887  0  -0.231164  -0.586337  0  2.324312  0
O  O95  1  0.15804367  0.52479414  0.39678931  1  -1.253298  0  -0.24566  -0.605497  0  2.292744  0
O  O96  1  0.99422974  0.35470786  0.42760123  1  -1.259423  0  -0.237432  -0.593262  0  2.38691  0
O  O97  1  0.56051069  0.60977762  0.58492459  1  -1.259874  0  -0.225761  -0.574223  0  2.370456  0
O  O98  1  0.35296358  0.42975466  0.49277443  1  -1.434018  0  -0.448166  -0.977615  0  2.162881  0
O  O99  1  0.65300224  0.35425749  0.40726517  1  -1.230799  0  -0.236659  -0.571626  0  2.323377  0
O  O100  1  0.73551961  0.43615346  0.56867911  1  -1.258665  0  -0.229315  -0.58737  0  2.346599  0
O  O101  1  0.85523251  0.55111361  0.48285494  1  -1.423169  0  -0.445245  -0.971242  0  2.191102  0
O  O102  1  0.38748518  0.63745627  0.91518759  1  -1.255378  0  -0.229098  -0.581162  0  2.322019  0
O  O103  1  0.79346253  0.71437084  0.09343034  1  -1.23312  0  -0.23622  -0.573591  0  2.343179  0
O  O104  1  0.96023211  0.89250320  0.07987023  1  -1.264049  0  -0.245084  -0.61944  0  2.350607  0
O  O105  1  0.71819045  0.61596286  0.93548318  1  -1.262956  0  -0.230996  -0.588726  0  2.325889  0
O  O106  1  0.90009808  0.79778167  0.91814912  1  -1.253974  0  -0.229388  -0.585757  0  2.314817  0
O  O107  1  0.45116403  0.69464414  0.07797838  1  -1.248586  0  -0.237076  -0.588985  0  2.360284  0
O  O108  1  0.59963431  0.82165434  0.00693628  1  -1.412751  0  -0.445287  -0.986155  0  2.189026  0
O  O109  1  0.23455709  0.83959872  0.94045763  1  -1.261818  0  -0.229429  -0.585438  0  2.320237  0
O  O110  1  0.30040320  0.88864602  0.09782688  1  -1.243227  0  -0.245592  -0.601842  0  2.276682  0
O  O111  1  0.09296712  0.69645450  0.00487489  1  -1.428042  0  -0.44351  -0.978335  0  2.191025  0
F  F112  1  0.63114909  0.16723757  0.28642091  1  -0.627664  0  -0.093787  -0.121605  0  1.381802  0
F  F113  1  0.82044362  0.64750593  0.21270870  1  -0.6263  0  -0.096417  -0.123044  0  1.37036  0
