# generated using pymatgen
data_SmH7C8O9
_symmetry_space_group_name_H-M   'P 1'
_cell_length_a   8.33082748
_cell_length_b   8.72857540
_cell_length_c   14.33044087
_cell_angle_alpha   90.00032399
_cell_angle_beta   89.99968070
_cell_angle_gamma   103.63585722
_symmetry_Int_Tables_number   1
_chemical_formula_structural   SmH7C8O9
_chemical_formula_sum   'Sm4 H28 C32 O36'
_cell_volume   1012.68425108
_cell_formula_units_Z   4
loop_
 _symmetry_equiv_pos_site_id
 _symmetry_equiv_pos_as_xyz
  1  'x, y, z'
loop_
 _atom_site_type_symbol
 _atom_site_label
 _atom_site_symmetry_multiplicity
 _atom_site_fract_x
 _atom_site_fract_y
 _atom_site_fract_z
 _atom_site_occupancy
 _atom_site_hle17_bader_spin_density
 _atom_site_hle17_ddec_charge
 _atom_site_hle17_ddec_spin_density
 _atom_site_hle17_ddec_sum_bond_order
 _atom_site_hle17_magmom
 _atom_site_hse06_10hf_bader_spin_density
 _atom_site_hse06_10hf_ddec_charge
 _atom_site_hse06_10hf_ddec_spin_density
 _atom_site_hse06_10hf_ddec_sum_bond_order
 _atom_site_hse06_10hf_magmom
 _atom_site_hse06_bader_spin_density
 _atom_site_hse06_ddec_charge
 _atom_site_hse06_ddec_spin_density
 _atom_site_hse06_ddec_sum_bond_order
 _atom_site_hse06_magmom
 _atom_site_pbe_bader_spin_density
 _atom_site_pbe_cm5_charge
 _atom_site_pbe_ddec_charge
 _atom_site_pbe_ddec_spin_density
 _atom_site_pbe_ddec_sum_bond_order
 _atom_site_pbe_magmom
Sm  Sm0  1  0.63400374  0.59405744  0.31271543  1  0  2.335707  0  1.578129  0  0  2.242053  0  1.923433  0  0  2.28676  0  1.880105  0  0  1.494859  2.209904  0  1.954015  0
Sm  Sm1  1  0.36599559  0.90594375  0.81271637  1  0  2.335744  0  1.578036  0  0  2.242115  0  1.923339  0  0  2.286824  0  1.880011  0  0  1.494866  2.209965  0  1.95391  0
Sm  Sm2  1  0.36599396  0.40594216  0.68728461  1  0  2.335737  0  1.578103  0  0  2.242089  0  1.923403  0  0  2.286798  0  1.880077  0  0  1.494854  2.209944  0  1.95398  0
Sm  Sm3  1  0.63400422  0.09405469  0.18728437  1  0  2.335711  0  1.578111  0  0  2.242067  0  1.923419  0  0  2.286775  0  1.880093  0  0  1.494849  2.209919  0  1.954004  0
H  H4  1  0.08040515  0.11232210  0.29345928  1  0  0.129973  0  0.946467  0  0  0.137276  0  1.006697  0  0  0.14091  0  1.005496  0  0  0.11374  0.134435  0  1.008302  0
H  H5  1  0.91959490  0.38767674  0.79345976  1  0  0.129989  0  0.946455  0  0  0.137276  0  1.006704  0  0  0.140909  0  1.005504  0  0  0.113733  0.134435  0  1.008307  0
H  H6  1  0.91959346  0.88767633  0.70653936  1  0  0.129946  0  0.946515  0  0  0.137244  0  1.006762  0  0  0.140874  0  1.005564  0  0  0.113719  0.134414  0  1.008332  0
H  H7  1  0.08040520  0.61232287  0.20653819  1  0  0.129986  0  0.946434  0  0  0.137273  0  1.006681  0  0  0.140908  0  1.00548  0  0  0.113721  0.134427  0  1.008298  0
H  H8  1  0.17829086  0.46353194  0.34739108  1  0  0.128318  0  0.9508  0  0  0.134144  0  1.013981  0  0  0.139117  0  1.010631  0  0  0.117032  0.130508  0  1.016958  0
H  H9  1  0.82171147  0.03646849  0.84739346  1  0  0.128316  0  0.950806  0  0  0.134114  0  1.014032  0  0  0.139088  0  1.010681  0  0  0.116997  0.130482  0  1.017002  0
H  H10  1  0.82171073  0.53646886  0.65260617  1  0  0.128335  0  0.950763  0  0  0.134128  0  1.014006  0  0  0.139103  0  1.010655  0  0  0.116988  0.130503  0  1.016968  0
H  H11  1  0.17828892  0.96353230  0.15260519  1  0  0.128309  0  0.950784  0  0  0.134123  0  1.014005  0  0  0.139097  0  1.010656  0  0  0.116988  0.130501  0  1.016968  0
H  H12  1  0.56245596  0.12735694  0.42494367  1  0  0.134987  0  0.948035  0  0  0.138391  0  1.014046  0  0  0.143373  0  1.010655  0  0  0.120334  0.134606  0  1.016899  0
H  H13  1  0.43754280  0.37264171  0.92494217  1  0  0.134994  0  0.948009  0  0  0.138379  0  1.01403  0  0  0.143362  0  1.010639  0  0  0.120331  0.134595  0  1.016877  0
H  H14  1  0.43754203  0.87264384  0.57505638  1  0  0.135048  0  0.947976  0  0  0.138396  0  1.014062  0  0  0.143377  0  1.010674  0  0  0.120349  0.134611  0  1.016911  0
H  H15  1  0.56245582  0.62735672  0.07505648  1  0  0.134996  0  0.948016  0  0  0.138385  0  1.01406  0  0  0.143365  0  1.010672  0  0  0.120355  0.1346  0  1.016915  0
H  H16  1  0.13641896  0.93516030  0.54868863  1  0  0.145066  0  0.942698  0  0  0.150108  0  1.003448  0  0  0.154103  0  1.002217  0  0  0.120763  0.147087  0  1.004623  0
H  H17  1  0.86358058  0.56484125  0.04868824  1  0  0.145065  0  0.942727  0  0  0.150104  0  1.003481  0  0  0.1541  0  1.002249  0  0  0.120768  0.147078  0  1.004666  0
H  H18  1  0.86358143  0.06484049  0.45131072  1  0  0.14508  0  0.942699  0  0  0.150105  0  1.003463  0  0  0.154101  0  1.00223  0  0  0.120758  0.147077  0  1.004645  0
H  H19  1  0.13642072  0.43515837  0.95131181  1  0  0.145111  0  0.942696  0  0  0.150126  0  1.003445  0  0  0.154122  0  1.002212  0  0  0.120779  0.147108  0  1.004625  0
H  H20  1  0.64326124  0.41384054  0.49790410  1  0  0.448616  0  0.833214  0  0  0.42281  0  0.892485  0  0  0.433025  0  0.877146  0  0  0.312381  0.415526  0  0.903481  0
H  H21  1  0.35673815  0.08615867  0.99790397  1  0  0.448633  0  0.833225  0  0  0.422825  0  0.892476  0  0  0.433041  0  0.877137  0  0  0.312383  0.415538  0  0.903474  0
H  H22  1  0.35674006  0.58615908  0.50209524  1  0  0.448628  0  0.833205  0  0  0.422825  0  0.892463  0  0  0.433039  0  0.877126  0  0  0.312394  0.415537  0  0.903465  0
H  H23  1  0.64325926  0.91383976  0.00209398  1  0  0.448594  0  0.833266  0  0  0.422785  0  0.892532  0  0  0.433  0  0.877193  0  0  0.312351  0.415497  0  0.903533  0
H  H24  1  0.64227269  0.58274363  0.53036606  1  0  0.427421  0  0.870965  0  0  0.400121  0  0.934237  0  0  0.409785  0  0.920125  0  0  0.30345  0.393293  0  0.944224  0
H  H25  1  0.35772550  0.91725660  0.03036643  1  0  0.427428  0  0.870949  0  0  0.400131  0  0.934217  0  0  0.409794  0  0.920107  0  0  0.303455  0.393296  0  0.944213  0
H  H26  1  0.35772501  0.41725597  0.46963328  1  0  0.427425  0  0.870941  0  0  0.40013  0  0.934214  0  0  0.409794  0  0.920103  0  0  0.303462  0.393298  0  0.944206  0
H  H27  1  0.64227489  0.08274420  0.96963291  1  0  0.427448  0  0.870923  0  0  0.400151  0  0.934191  0  0  0.409816  0  0.920078  0  0  0.303464  0.393322  0  0.944179  0
H  H28  1  0.99244662  0.59818881  0.40293259  1  0  0.403323  0  0.877159  0  0  0.371986  0  0.956546  0  0  0.384542  0  0.943777  0  0  0.3122  0.363182  0  0.965498  0
H  H29  1  0.00755265  0.90181071  0.90293538  1  0  0.40319  0  0.877281  0  0  0.371963  0  0.956507  0  0  0.384519  0  0.943738  0  0  0.312218  0.363155  0  0.965458  0
H  H30  1  0.00755377  0.40181198  0.59706605  1  0  0.403274  0  0.877187  0  0  0.371981  0  0.956511  0  0  0.384538  0  0.94374  0  0  0.312201  0.363176  0  0.965464  0
H  H31  1  0.99244683  0.09819126  0.09706257  1  0  0.403224  0  0.877264  0  0  0.371992  0  0.956495  0  0  0.384548  0  0.943727  0  0  0.312225  0.363185  0  0.965445  0
C  C32  1  0.34158538  0.23857616  0.31508577  1  0  0.752553  0  3.830351  0  0  0.711032  0  4.116597  0  0  0.746046  0  4.10471  0  0  0.233951  0.687489  0  4.123857  0
C  C33  1  0.65841422  0.26142166  0.81508596  1  0  0.752554  0  3.830276  0  0  0.710981  0  4.116621  0  0  0.745992  0  4.104728  0  0  0.23388  0.687432  0  4.123902  0
C  C34  1  0.65841140  0.76142462  0.68491288  1  0  0.752625  0  3.83025  0  0  0.711102  0  4.116503  0  0  0.746115  0  4.104607  0  0  0.233976  0.687549  0  4.123781  0
C  C35  1  0.34159069  0.73857797  0.18491548  1  0  0.752775  0  3.830123  0  0  0.711042  0  4.116723  0  0  0.746053  0  4.104835  0  0  0.233914  0.687495  0  4.123984  0
C  C36  1  0.15983487  0.22537022  0.31369599  1  0  -0.148145  0  3.593855  0  0  -0.16396  0  3.836385  0  0  -0.169033  0  3.851479  0  0  -0.070477  -0.160812  0  3.826492  0
C  C37  1  0.84016594  0.27462760  0.81369564  1  0  -0.148182  0  3.593857  0  0  -0.163969  0  3.836387  0  0  -0.16904  0  3.851475  0  0  -0.070436  -0.160831  0  3.826521  0
C  C38  1  0.84016403  0.77462939  0.68630265  1  0  -0.148183  0  3.593856  0  0  -0.163989  0  3.836385  0  0  -0.16906  0  3.851479  0  0  -0.070448  -0.160847  0  3.826515  0
C  C39  1  0.15983416  0.72537202  0.18630231  1  0  -0.148287  0  3.593654  0  0  -0.164012  0  3.83624  0  0  -0.169083  0  3.851332  0  0  -0.070443  -0.160868  0  3.826356  0
C  C40  1  0.09602231  0.35018341  0.33047109  1  0  -0.171868  0  3.625222  0  0  -0.19122  0  3.876493  0  0  -0.197928  0  3.89052  0  0  -0.078499  -0.186635  0  3.867148  0
C  C41  1  0.90397866  0.14981571  0.83047359  1  0  -0.171982  0  3.625177  0  0  -0.1912  0  3.876563  0  0  -0.197905  0  3.890585  0  0  -0.078555  -0.186629  0  3.867214  0
C  C42  1  0.90397688  0.64981738  0.66952546  1  0  -0.171744  0  3.625101  0  0  -0.191075  0  3.87641  0  0  -0.197783  0  3.890433  0  0  -0.078448  -0.186507  0  3.867064  0
C  C43  1  0.09602053  0.85018507  0.16952645  1  0  -0.171806  0  3.62519  0  0  -0.191145  0  3.876503  0  0  -0.197857  0  3.89053  0  0  -0.078497  -0.186572  0  3.867149  0
C  C44  1  0.91722779  0.34665994  0.32334576  1  0  0.756564  0  3.83195  0  0  0.711594  0  4.125751  0  0  0.747686  0  4.112109  0  0  0.240052  0.686997  0  4.134191  0
C  C45  1  0.08277410  0.15334267  0.82335163  1  0  0.75684  0  3.831485  0  0  0.711487  0  4.125912  0  0  0.747575  0  4.112277  0  0  0.240102  0.686897  0  4.134314  0
C  C46  1  0.08277140  0.65334085  0.67665219  1  0  0.756371  0  3.831916  0  0  0.71135  0  4.125803  0  0  0.747449  0  4.112153  0  0  0.239964  0.686753  0  4.134244  0
C  C47  1  0.91722807  0.84666049  0.17665260  1  0  0.756598  0  3.831964  0  0  0.711547  0  4.125907  0  0  0.747644  0  4.112256  0  0  0.240042  0.686951  0  4.134345  0
C  C48  1  0.53488583  0.87556786  0.39430812  1  0  0.725782  0  3.86638  0  0  0.683275  0  4.155663  0  0  0.71872  0  4.143602  0  0  0.217358  0.65955  0  4.162559  0
C  C49  1  0.46511681  0.62443042  0.89431196  1  0  0.725827  0  3.866277  0  0  0.683266  0  4.155607  0  0  0.718713  0  4.143542  0  0  0.217301  0.65954  0  4.162495  0
C  C50  1  0.46511341  0.12442821  0.60568983  1  0  0.725828  0  3.866127  0  0  0.683202  0  4.155601  0  0  0.718649  0  4.143539  0  0  0.217305  0.659478  0  4.162478  0
C  C51  1  0.53488209  0.37556919  0.10569227  1  0  0.72579  0  3.866241  0  0  0.68318  0  4.155692  0  0  0.718627  0  4.14363  0  0  0.217259  0.659448  0  4.162588  0
C  C52  1  0.52409584  0.00992409  0.45530407  1  0  -0.147168  0  3.599269  0  0  -0.164018  0  3.847931  0  0  -0.170003  0  3.862294  0  0  -0.06995  -0.160014  0  3.838327  0
C  C53  1  0.47590354  0.49007833  0.95530285  1  0  -0.14721  0  3.599372  0  0  -0.16399  0  3.848007  0  0  -0.169977  0  3.86237  0  0  -0.069914  -0.159977  0  3.838385  0
C  C54  1  0.47590095  0.99007669  0.54469667  1  0  -0.147155  0  3.599305  0  0  -0.163925  0  3.848012  0  0  -0.169913  0  3.862376  0  0  -0.069925  -0.159909  0  3.838391  0
C  C55  1  0.52409954  0.50992365  0.04469719  1  0  -0.147031  0  3.599196  0  0  -0.163867  0  3.847891  0  0  -0.169852  0  3.862255  0  0  -0.069905  -0.159858  0  3.838287  0
C  C56  1  0.97385557  0.80167123  0.43964922  1  0  0.718034  0  3.785036  0  0  0.67478  0  4.072834  0  0  0.709201  0  4.062677  0  0  0.247762  0.651855  0  4.078632  0
C  C57  1  0.02614730  0.69832976  0.93965055  1  0  0.718153  0  3.784872  0  0  0.674971  0  4.072591  0  0  0.709391  0  4.062436  0  0  0.247873  0.652044  0  4.078392  0
C  C58  1  0.02614693  0.19832840  0.56034942  1  0  0.718128  0  3.784919  0  0  0.674933  0  4.072639  0  0  0.709354  0  4.062483  0  0  0.247843  0.652007  0  4.078438  0
C  C59  1  0.97385727  0.30167340  0.06035019  1  0  0.718217  0  3.784835  0  0  0.674991  0  4.072574  0  0  0.709413  0  4.062416  0  0  0.24786  0.652068  0  4.078369  0
C  C60  1  0.03529616  0.93838688  0.50108454  1  0  -0.150968  0  3.604689  0  0  -0.171504  0  3.855315  0  0  -0.178258  0  3.871237  0  0  -0.06373  -0.166874  0  3.844059  0
C  C61  1  0.96470587  0.56161314  0.00108660  1  0  -0.150883  0  3.604801  0  0  -0.171441  0  3.855365  0  0  -0.178192  0  3.87128  0  0  -0.063674  -0.166809  0  3.844119  0
C  C62  1  0.96470275  0.06161273  0.49891271  1  0  -0.15096  0  3.604657  0  0  -0.171478  0  3.85526  0  0  -0.17823  0  3.871178  0  0  -0.063718  -0.166842  0  3.844008  0
C  C63  1  0.03530082  0.43838886  0.99891553  1  0  -0.151145  0  3.604877  0  0  -0.171593  0  3.855411  0  0  -0.178347  0  3.87133  0  0  -0.063788  -0.166961  0  3.844155  0
O  O64  1  0.43411540  0.35631974  0.35787794  1  0  -0.763278  0  2.049186  0  0  -0.712434  0  2.300366  0  0  -0.736482  0  2.285031  0  0  -0.387911  -0.695466  0  2.31104  0
O  O65  1  0.56588353  0.14368194  0.85788152  1  0  -0.763267  0  2.049149  0  0  -0.712396  0  2.300353  0  0  -0.736468  0  2.285074  0  0  -0.387884  -0.695439  0  2.311042  0
O  O66  1  0.56588081  0.64367868  0.64212070  1  0  -0.763321  0  2.049229  0  0  -0.712465  0  2.300398  0  0  -0.736527  0  2.285098  0  0  -0.387898  -0.695505  0  2.311085  0
O  O67  1  0.43411892  0.85632240  0.14212341  1  0  -0.763287  0  2.049124  0  0  -0.712372  0  2.300419  0  0  -0.736429  0  2.285104  0  0  -0.387859  -0.695405  0  2.311098  0
O  O68  1  0.68191626  0.52504202  0.47918883  1  0  -0.904573  0  1.909228  0  0  -0.870731  0  2.103615  0  0  -0.888489  0  2.074069  0  0  -0.634474  -0.858122  0  2.124  0
O  O69  1  0.31808213  0.97495690  0.97919086  1  0  -0.90462  0  1.909236  0  0  -0.870782  0  2.103622  0  0  -0.888534  0  2.074068  0  0  -0.634478  -0.858182  0  2.124045  0
O  O70  1  0.31808173  0.47495877  0.52080912  1  0  -0.904587  0  1.909199  0  0  -0.870752  0  2.103588  0  0  -0.888505  0  2.074034  0  0  -0.634494  -0.858161  0  2.124019  0
O  O71  1  0.68191889  0.02504154  0.02080918  1  0  -0.904579  0  1.90917  0  0  -0.870737  0  2.103564  0  0  -0.888491  0  2.07401  0  0  -0.634453  -0.858139  0  2.123969  0
O  O72  1  0.39360715  0.13196133  0.27309237  1  0  -0.715464  0  2.010481  0  0  -0.675957  0  2.259732  0  0  -0.701134  0  2.249746  0  0  -0.370165  -0.658702  0  2.266569  0
O  O73  1  0.60639221  0.36803381  0.77308822  1  0  -0.71547  0  2.010465  0  0  -0.67591  0  2.259684  0  0  -0.701085  0  2.249701  0  0  -0.370117  -0.65866  0  2.266534  0
O  O74  1  0.60639056  0.86803827  0.72690767  1  0  -0.71549  0  2.010446  0  0  -0.675966  0  2.259683  0  0  -0.701145  0  2.249706  0  0  -0.37018  -0.65871  0  2.266521  0
O  O75  1  0.39360550  0.63196579  0.22691182  1  0  -0.715585  0  2.010548  0  0  -0.675977  0  2.259854  0  0  -0.701153  0  2.249867  0  0  -0.370161  -0.658723  0  2.266696  0
O  O76  1  0.87961885  0.48007700  0.33458436  1  0  -0.721379  0  2.079571  0  0  -0.669593  0  2.327038  0  0  -0.694743  0  2.313294  0  0  -0.356964  -0.652493  0  2.337213  0
O  O77  1  0.12038444  0.01992687  0.83459594  1  0  -0.721393  0  2.079475  0  0  -0.669533  0  2.327122  0  0  -0.69468  0  2.313377  0  0  -0.356987  -0.65245  0  2.337288  0
O  O78  1  0.12038006  0.51992261  0.66541149  1  0  -0.721314  0  2.079574  0  0  -0.669514  0  2.327033  0  0  -0.694671  0  2.313291  0  0  -0.356946  -0.652422  0  2.337206  0
O  O79  1  0.87961835  0.98007393  0.16541318  1  0  -0.721359  0  2.079672  0  0  -0.669581  0  2.327147  0  0  -0.694733  0  2.3134  0  0  -0.356948  -0.652484  0  2.33732  0
O  O80  1  0.81231353  0.21914780  0.30706777  1  0  -0.729996  0  2.046916  0  0  -0.696175  0  2.317247  0  0  -0.718976  0  2.302001  0  0  -0.39355  -0.679648  0  2.327422  0
O  O81  1  0.18768551  0.28085231  0.80707095  1  0  -0.730075  0  2.046787  0  0  -0.696099  0  2.317284  0  0  -0.718899  0  2.30204  0  0  -0.393582  -0.679596  0  2.327455  0
O  O82  1  0.18768417  0.78085180  0.69293367  1  0  -0.729934  0  2.046899  0  0  -0.696096  0  2.317273  0  0  -0.718881  0  2.301988  0  0  -0.393534  -0.679585  0  2.327454  0
O  O83  1  0.81231792  0.71914614  0.19293258  1  0  -0.730025  0  2.046845  0  0  -0.696176  0  2.317232  0  0  -0.718973  0  2.30197  0  0  -0.393579  -0.679657  0  2.327414  0
O  O84  1  0.48977562  0.73402153  0.42398184  1  0  -0.712207  0  2.01462  0  0  -0.65988  0  2.247974  0  0  -0.685324  0  2.237295  0  0  -0.366988  -0.642815  0  2.255362  0
O  O85  1  0.51022348  0.76597814  0.92398393  1  0  -0.712262  0  2.014511  0  0  -0.659905  0  2.247878  0  0  -0.685348  0  2.237196  0  0  -0.366985  -0.642851  0  2.255269  0
O  O86  1  0.51022088  0.26597807  0.57601750  1  0  -0.712257  0  2.014382  0  0  -0.659881  0  2.247793  0  0  -0.685324  0  2.237111  0  0  -0.366992  -0.642828  0  2.255187  0
O  O87  1  0.48977394  0.23402028  0.07601821  1  0  -0.712222  0  2.014414  0  0  -0.659862  0  2.247839  0  0  -0.685306  0  2.237158  0  0  -0.366944  -0.642791  0  2.255222  0
O  O88  1  0.59831751  0.90374683  0.31300003  1  0  -0.782515  0  2.125474  0  0  -0.743391  0  2.391179  0  0  -0.767733  0  2.377617  0  0  -0.396148  -0.725771  0  2.398565  0
O  O89  1  0.40168811  0.59625556  0.81300049  1  0  -0.782526  0  2.125277  0  0  -0.743417  0  2.391073  0  0  -0.767765  0  2.377516  0  0  -0.396127  -0.72576  0  2.398378  0
O  O90  1  0.40168317  0.09625514  0.68700001  1  0  -0.782514  0  2.125291  0  0  -0.743374  0  2.391102  0  0  -0.767717  0  2.37754  0  0  -0.396149  -0.725754  0  2.398476  0
O  O91  1  0.59830896  0.40374640  0.18700025  1  0  -0.782508  0  2.125414  0  0  -0.74334  0  2.391164  0  0  -0.767682  0  2.3776  0  0  -0.396094  -0.725713  0  2.398547  0
O  O92  1  0.85523736  0.79665161  0.38605231  1  0  -0.648492  0  2.078112  0  0  -0.603278  0  2.314979  0  0  -0.627131  0  2.308269  0  0  -0.339477  -0.587531  0  2.319531  0
O  O93  1  0.14476535  0.70334662  0.88605257  1  0  -0.648549  0  2.078086  0  0  -0.603383  0  2.314982  0  0  -0.627236  0  2.308273  0  0  -0.339525  -0.587632  0  2.319531  0
O  O94  1  0.14476245  0.20334683  0.61394773  1  0  -0.648543  0  2.078136  0  0  -0.603341  0  2.31497  0  0  -0.627193  0  2.308261  0  0  -0.339498  -0.587587  0  2.319516  0
O  O95  1  0.85523716  0.29665301  0.11394817  1  0  -0.648542  0  2.078026  0  0  -0.60335  0  2.314909  0  0  -0.627203  0  2.308201  0  0  -0.339499  -0.587599  0  2.319459  0
O  O96  1  0.05262586  0.68767245  0.44681429  1  0  -0.510362  0  2.047664  0  0  -0.455505  0  2.251085  0  0  -0.478108  0  2.237817  0  0  -0.305554  -0.439595  0  2.259623  0
O  O97  1  0.94737397  0.81232623  0.94681721  1  0  -0.510327  0  2.047589  0  0  -0.455591  0  2.250938  0  0  -0.478195  0  2.237676  0  0  -0.305629  -0.439662  0  2.259446  0
O  O98  1  0.94737573  0.31232835  0.55318296  1  0  -0.510374  0  2.047599  0  0  -0.455589  0  2.250992  0  0  -0.478193  0  2.237727  0  0  -0.305607  -0.439682  0  2.25953  0
O  O99  1  0.05262613  0.18767339  0.05318283  1  0  -0.510346  0  2.047623  0  0  -0.455612  0  2.250995  0  0  -0.478216  0  2.237733  0  0  -0.305622  -0.439696  0  2.259521  0
