# generated using pymatgen
data_CuH10C6(NO2)2
_symmetry_space_group_name_H-M   'P 1'
_cell_length_a   5.25237544
_cell_length_b   8.70942604
_cell_length_c   17.90787574
_cell_angle_alpha   89.99865595
_cell_angle_beta   89.99897704
_cell_angle_gamma   90.00115469
_symmetry_Int_Tables_number   1
_chemical_formula_structural   CuH10C6(NO2)2
_chemical_formula_sum   'Cu4 H40 C24 N8 O16'
_cell_volume   819.19891747
_cell_formula_units_Z   4
loop_
 _symmetry_equiv_pos_site_id
 _symmetry_equiv_pos_as_xyz
  1  'x, y, z'
loop_
 _atom_site_type_symbol
 _atom_site_label
 _atom_site_symmetry_multiplicity
 _atom_site_fract_x
 _atom_site_fract_y
 _atom_site_fract_z
 _atom_site_occupancy
 _atom_site_hle17_ddec_charge
 _atom_site_hle17_ddec_spin_density
 _atom_site_hle17_ddec_sum_bond_order
 _atom_site_hle17_magmom
 _atom_site_hse06_10hf_ddec_charge
 _atom_site_hse06_10hf_ddec_spin_density
 _atom_site_hse06_10hf_ddec_sum_bond_order
 _atom_site_hse06_10hf_magmom
 _atom_site_hse06_ddec_charge
 _atom_site_hse06_ddec_spin_density
 _atom_site_hse06_ddec_sum_bond_order
 _atom_site_hse06_magmom
 _atom_site_pbe_cm5_charge
 _atom_site_pbe_ddec_charge
 _atom_site_pbe_ddec_spin_density
 _atom_site_pbe_ddec_sum_bond_order
 _atom_site_pbe_magmom
Cu  Cu0  1  0.06773324  0.27540911  0.67330484  1  0.853497  0.689468  1.823712  0.491  0.833144  0.786279  2.226577  0.612  0.922263  0.861763  2.156749  0.696  0.733235  0.774644  0.725564  2.278105  0.552
Cu  Cu1  1  0.43228208  0.72459683  0.17330671  1  0.853569  0.689478  1.823557  0.491  0.833141  0.78628  2.226513  0.612  0.922282  0.861776  2.156694  0.696  0.733264  0.774678  0.725575  2.277981  0.552
Cu  Cu2  1  0.56771834  0.22458716  0.32669459  1  0.853422  -0.689503  1.823783  -0.491  0.833004  -0.786299  2.226753  -0.612  0.922199  -0.861786  2.156892  -0.696  0.733208  0.774576  -0.725596  2.278209  -0.553
Cu  Cu3  1  0.93227133  0.77540158  0.82669504  1  0.853636  -0.689504  1.823644  -0.491  0.833201  -0.786297  2.226703  -0.612  0.922412  -0.861791  2.156856  -0.696  0.733255  0.77472  -0.725595  2.278232  -0.553
H  H4  1  0.45740595  0.14429519  0.51653922  1  0.103063  0.000666  0.965732  0.001  0.118859  0.00052  1.024783  0.001  0.12166  0.000363  1.022901  0.0  0.109786  0.116656  0.000598  1.026713  0.001
H  H5  1  0.04264366  0.85573014  0.01653877  1  0.103145  0.000665  0.965769  0.001  0.118957  0.00052  1.024775  0.001  0.121676  0.000363  1.022965  0.0  0.109814  0.116731  0.000598  1.026706  0.001
H  H6  1  0.95736348  0.35572371  0.48345944  1  0.103182  -0.000666  0.965622  -0.001  0.118978  -0.00052  1.024665  -0.001  0.121694  -0.000363  1.022861  0.0  0.109813  0.116758  -0.000598  1.026588  -0.001
H  H7  1  0.54260331  0.64427778  0.98346487  1  0.102904  -0.000665  0.96567  -0.001  0.118784  -0.00052  1.024663  -0.001  0.121542  -0.000363  1.022791  0.0  0.109722  0.116583  -0.000599  1.026588  -0.001
H  H8  1  0.60414189  0.06910756  0.59881973  1  0.099168  0.00071  0.925517  0.001  0.113048  0.000476  0.985045  0.0  0.114461  0.000307  0.984434  0.0  0.111856  0.111771  0.000612  0.985855  0.0
H  H9  1  0.89589888  0.93091909  0.09881792  1  0.099304  0.00071  0.925459  0.001  0.113211  0.000476  0.984928  0.0  0.114604  0.000307  0.984294  0.0  0.111909  0.111919  0.000612  0.985721  0.0
H  H10  1  0.10410723  0.43090977  0.40117780  1  0.099263  -0.000709  0.925513  -0.001  0.113176  -0.000476  0.984991  0.0  0.114572  -0.000308  0.984355  0.0  0.111893  0.111885  -0.000612  0.985787  0.0
H  H11  1  0.39585700  0.56908237  0.90118798  1  0.09914  -0.000709  0.925376  -0.001  0.11307  -0.000476  0.984847  0.0  0.114463  -0.000308  0.984212  0.0  0.111877  0.111795  -0.000612  0.985652  0.0
H  H12  1  0.59737760  0.53254301  0.70299932  1  0.096897  0.001348  0.916965  0.002  0.102799  0.001159  0.983248  0.001  0.104766  0.000938  0.981173  0.001  0.118016  0.100858  0.001228  0.985149  0.001
H  H13  1  0.90262572  0.46746345  0.20299637  1  0.096884  0.001349  0.916908  0.002  0.102788  0.001159  0.983199  0.001  0.104753  0.000939  0.981126  0.001  0.118021  0.100841  0.001228  0.985108  0.001
H  H14  1  0.09737031  0.96747126  0.29700230  1  0.096898  -0.001343  0.91688  -0.002  0.102804  -0.001159  0.983173  -0.001  0.104767  -0.000938  0.981103  -0.001  0.118032  0.100868  -0.001228  0.98507  -0.001
H  H15  1  0.40263137  0.03252155  0.79699705  1  0.096779  -0.001346  0.916894  -0.002  0.102676  -0.001159  0.983209  -0.001  0.104639  -0.000938  0.981142  -0.001  0.118031  0.100731  -0.001228  0.985113  -0.001
H  H16  1  0.56585600  0.64692775  0.58040135  1  0.034141  -0.000336  0.922013  0.0  0.048838  -0.000167  0.979875  0.0  0.049237  -9.8e-05  0.9795  0.0  0.103962  0.048429  -0.000189  0.980283  0.0
H  H17  1  0.93417043  0.35309408  0.08039776  1  0.034016  -0.000335  0.922108  0.0  0.048665  -0.000167  0.980053  0.0  0.049145  -9.8e-05  0.979578  0.0  0.103967  0.048261  -0.000189  0.98045  0.0
H  H18  1  0.06582330  0.85308732  0.41960159  1  0.03405  0.000334  0.922074  0.0  0.048709  0.000168  0.980011  0.0  0.049164  9.8e-05  0.97956  0.0  0.103993  0.048304  0.000189  0.980412  0.0
H  H19  1  0.43413242  0.14689585  0.91959435  1  0.034166  0.000335  0.922077  0.0  0.048732  0.000167  0.980065  0.0  0.049215  9.8e-05  0.97959  0.0  0.103967  0.048324  0.000189  0.980467  0.0
H  H20  1  0.17887842  0.77881031  0.53571927  1  0.103949  0.00029  0.960892  0.0  0.127685  0.000393  1.019049  0.0  0.129237  0.00029  1.01903  0.0  0.087525  0.126846  0.000416  1.018644  0.0
H  H21  1  0.32116074  0.22122209  0.03571392  1  0.103878  0.000291  0.960818  0.0  0.127608  0.000393  1.019005  0.0  0.129167  0.00029  1.018979  0.0  0.087487  0.126776  0.000416  1.018589  0.0
H  H22  1  0.67884527  0.72118762  0.46428073  1  0.103879  -0.000288  0.960983  0.0  0.127625  -0.000393  1.019129  0.0  0.129183  -0.000291  1.019103  0.0  0.08746  0.126793  -0.000416  1.018714  0.0
H  H23  1  0.82110723  0.27878383  0.96428504  1  0.103789  -0.000292  0.960884  0.0  0.12754  -0.000393  1.01908  0.0  0.129097  -0.00029  1.019054  0.0  0.087443  0.126687  -0.000416  1.018684  0.0
H  H24  1  0.00458091  0.72032471  0.61634835  1  0.11706  4.6e-05  0.945464  0.0  0.137097  5.9e-05  1.007224  0.0  0.138373  3.5e-05  1.007175  0.0  0.090855  0.136187  4.7e-05  1.007324  0.0
H  H25  1  0.49544290  0.27969903  0.11634685  1  0.11702  4.7e-05  0.945541  0.0  0.137063  5.9e-05  1.007253  0.0  0.138336  3.5e-05  1.007207  0.0  0.090849  0.136152  4.7e-05  1.007353  0.0
H  H26  1  0.50456145  0.77966558  0.38364884  1  0.117204  -4.5e-05  0.945349  0.0  0.137264  -5.9e-05  1.007039  0.0  0.138534  -3.5e-05  1.007  0.0  0.090977  0.136358  -4.7e-05  1.00714  0.0
H  H27  1  0.99541592  0.22030535  0.88365604  1  0.116968  -4.9e-05  0.945683  0.0  0.137098  -5.9e-05  1.007293  0.0  0.138372  -3.5e-05  1.007245  0.0  0.090877  0.136185  -4.7e-05  1.007396  0.0
H  H28  1  0.10568469  0.58106172  0.55013323  1  0.119784  -5.3e-05  0.958037  0.0  0.13973  3e-06  1.022544  0.0  0.141544  4e-06  1.022465  0.0  0.091141  0.138571  -2.5e-05  1.022459  0.0
H  H29  1  0.39434425  0.41897454  0.05013197  1  0.119682  -5.1e-05  0.957974  0.0  0.13963  4e-06  1.022494  0.0  0.14144  4e-06  1.022415  0.0  0.091095  0.138471  -2.5e-05  1.022413  0.0
H  H30  1  0.60564428  0.91893541  0.44986500  1  0.11984  5.4e-05  0.958018  0.0  0.139785  -4e-06  1.022519  0.0  0.141598  -4e-06  1.02244  0.0  0.091154  0.138627  2.5e-05  1.022432  0.0
H  H31  1  0.89429369  0.08103218  0.94987100  1  0.119654  4.9e-05  0.958058  0.0  0.139637  -3e-06  1.022532  0.0  0.14145  -4e-06  1.022455  0.0  0.091089  0.13848  2.5e-05  1.022442  0.0
H  H32  1  0.39549657  0.79928265  0.70839948  1  0.366274  0.000128  0.907624  0.0  0.344595  0.000177  0.977619  0.0  0.353868  0.000142  0.967695  0.0  0.297461  0.338197  9.9e-05  0.984332  0.0
H  H33  1  0.10450751  0.20072266  0.20839348  1  0.366294  0.000128  0.907402  0.0  0.344621  0.000176  0.977385  0.0  0.353888  0.000142  0.967471  0.0  0.297525  0.338227  9.9e-05  0.984087  0.0
H  H34  1  0.89550916  0.70072798  0.29160139  1  0.366285  -0.000128  0.907434  0.0  0.344593  -0.000177  0.977451  0.0  0.353861  -0.000142  0.967535  0.0  0.297458  0.338195  -9.9e-05  0.984163  0.0
H  H35  1  0.60450887  0.29926711  0.79160069  1  0.366295  -0.000128  0.90752  0.0  0.344613  -0.000177  0.977518  0.0  0.35388  -0.000142  0.967602  0.0  0.297486  0.338217  -9.9e-05  0.984209  0.0
H  H36  1  0.22385848  0.00224824  0.63614788  1  0.306069  0.000333  0.907767  -0.001  0.291795  0.000949  0.974669  0.0  0.299116  0.000536  0.970033  0.0  0.2947  0.286431  0.000841  0.978373  0.0
H  H37  1  0.27618531  0.99776532  0.13614832  1  0.305967  0.000334  0.907815  -0.001  0.291775  0.000948  0.974622  0.0  0.299096  0.000536  0.969988  0.0  0.294679  0.286406  0.000841  0.978334  0.0
H  H38  1  0.72382706  0.49775777  0.36384722  1  0.305972  -0.000334  0.907816  0.001  0.29173  -0.000948  0.974659  0.0  0.29905  -0.000536  0.970028  0.0  0.294664  0.286365  -0.000842  0.978372  0.0
H  H39  1  0.77613604  0.50223253  0.86385664  1  0.305923  -0.000334  0.907771  0.001  0.2917  -0.000948  0.974643  0.0  0.299019  -0.000536  0.97001  0.0  0.29466  0.286335  -0.000842  0.978345  0.0
H  H40  1  0.08108640  0.08904142  0.56517406  1  0.296247  -0.000294  0.878594  -0.001  0.295984  0.000671  0.923057  0.0  0.301546  0.00023  0.921243  -0.001  0.306912  0.291876  0.000997  0.924796  0.0
H  H41  1  0.41896465  0.91096768  0.06517511  1  0.296281  -0.000295  0.878512  -0.001  0.295978  0.000671  0.923058  0.0  0.30154  0.00023  0.921244  -0.001  0.306907  0.291872  0.000997  0.924795  0.0
H  H42  1  0.58104263  0.41096188  0.43482306  1  0.29632  0.000295  0.878501  0.001  0.295961  -0.000671  0.923109  0.0  0.301523  -0.00023  0.921298  0.001  0.306909  0.29186  -0.000997  0.924838  0.0
H  H43  1  0.91891321  0.58902484  0.93482897  1  0.296135  0.000293  0.878721  0.001  0.295975  -0.000671  0.923086  0.0  0.301536  -0.00023  0.921276  0.001  0.306884  0.291872  -0.000997  0.924827  0.0
C  C44  1  0.45987963  0.14954199  0.57788147  1  -0.076236  -0.002139  3.631246  -0.005  -0.132916  0.000591  3.893821  -0.002  -0.131633  0.000339  3.901503  -0.002  -0.080749  -0.13396  0.000821  3.889778  -0.002
C  C45  1  0.04015367  0.85047565  0.07788109  1  -0.07628  -0.002135  3.631112  -0.005  -0.132916  0.000592  3.893653  -0.002  -0.131485  0.000339  3.901222  -0.002  -0.080567  -0.13387  0.000821  3.889496  -0.002
C  C46  1  0.95984757  0.35046890  0.42211662  1  -0.076442  0.002138  3.631026  0.005  -0.133084  -0.000592  3.893596  0.002  -0.131656  -0.000339  3.901175  0.002  -0.080675  -0.134041  -0.000822  3.889451  0.002
C  C47  1  0.54012412  0.64951961  0.92212145  1  -0.075705  0.002134  3.630766  0.005  -0.132466  -0.000591  3.893416  0.002  -0.131043  -0.000338  3.900939  0.002  -0.080448  -0.133491  -0.000822  3.889352  0.002
C  C48  1  0.53646069  0.31056504  0.60189549  1  0.537333  -0.00539  3.877219  -0.005  0.505362  0.000486  4.177589  0.0  0.537334  -0.000485  4.180704  -0.001  0.209628  0.482709  0.001247  4.175266  0.001
C  C49  1  0.96356660  0.68945800  0.10189476  1  0.536872  -0.005396  3.87769  -0.005  0.504693  0.000487  4.178372  0.0  0.536637  -0.000486  4.181473  -0.001  0.209052  0.482016  0.001247  4.176047  0.001
C  C50  1  0.03642491  0.18945040  0.39810526  1  0.53699  0.005394  3.877356  0.005  0.504819  -0.000486  4.178022  0.0  0.536768  0.000486  4.181118  0.001  0.209166  0.482131  -0.001247  4.175746  -0.001
C  C51  1  0.46354898  0.81053960  0.89810457  1  0.536914  0.005394  3.87763  0.005  0.504903  -0.000486  4.178057  0.0  0.536855  0.000486  4.181148  0.001  0.209321  0.482241  -0.001247  4.175769  -0.001
C  C52  1  0.40932621  0.53193759  0.67526910  1  -0.051325  -0.001769  3.66999  -0.005  -0.066724  0.000351  3.911913  -0.003  -0.066202  0.000383  3.926671  -0.002  -0.000296  -0.066771  0.000114  3.902048  -0.003
C  C53  1  0.09067950  0.46807169  0.17526475  1  -0.051106  -0.001772  3.669383  -0.005  -0.066573  0.000351  3.911275  -0.003  -0.066058  0.000382  3.926062  -0.002  -0.000304  -0.066611  0.000113  3.901406  -0.003
C  C54  1  0.90931274  0.96806975  0.32473615  1  -0.051093  0.001742  3.66919  0.005  -0.066545  -0.000347  3.911091  0.003  -0.066025  -0.000379  3.925866  0.002  -0.00029  -0.066584  -0.000111  3.901232  0.003
C  C55  1  0.59067893  0.03192252  0.82473398  1  -0.050831  0.001766  3.669078  0.005  -0.066258  -0.000348  3.910861  0.003  -0.065742  -0.000379  3.925644  0.002  -0.000256  -0.066286  -0.00011  3.901003  0.003
C  C56  1  0.41018495  0.67013524  0.61989383  1  0.269324  0.001563  3.596014  0.002  0.249866  0.000748  3.850573  0.001  0.2566  0.000627  3.860768  0.001  -0.001934  0.245524  0.000765  3.842578  0.001
C  C57  1  0.08982536  0.32987339  0.11989266  1  0.269469  0.00156  3.596236  0.002  0.249986  0.000748  3.850801  0.001  0.256673  0.000626  3.861039  0.001  -0.001977  0.245639  0.000765  3.842818  0.001
C  C58  1  0.91017132  0.82987211  0.38010639  1  0.269513  -0.001541  3.59619  -0.002  0.249999  -0.000749  3.850834  -0.001  0.256713  -0.000627  3.861028  -0.001  -0.002028  0.245649  -0.000765  3.842861  -0.001
C  C59  1  0.58980242  0.17011163  0.88010329  1  0.269307  -0.001559  3.596558  -0.002  0.249934  -0.000746  3.851022  -0.001  0.256612  -0.000626  3.861275  -0.001  -0.001917  0.245588  -0.000765  3.843036  -0.001
C  C60  1  0.15962729  0.68840478  0.57806041  1  -0.367142  1.9e-05  3.673474  0.0  -0.448019  0.000261  3.911751  0.0  -0.451152  0.000162  3.920581  0.0  -0.25589  -0.445493  0.000438  3.904982  0.0
C  C61  1  0.34039457  0.31162318  0.07805842  1  -0.36699  1.4e-05  3.673239  0.0  -0.447806  0.000261  3.911456  0.0  -0.450948  0.000162  3.920318  0.0  -0.255783  -0.445289  0.000438  3.90468  0.0
C  C62  1  0.65960524  0.81159409  0.42193747  1  -0.367416  -3e-05  3.673526  0.0  -0.448282  -0.000261  3.91177  0.0  -0.451426  -0.000163  3.920618  0.0  -0.255975  -0.445769  -0.000438  3.905002  0.0
C  C63  1  0.84035123  0.18837951  0.92194097  1  -0.366901  -2e-06  3.673697  0.0  -0.447857  -0.000262  3.911845  0.0  -0.451004  -0.000163  3.920717  0.0  -0.255861  -0.445317  -0.000438  3.905076  0.0
C  C64  1  0.20315755  0.55611682  0.73420570  1  0.6548  0.001792  3.795063  0.003  0.609417  0.002096  4.091457  0.003  0.647144  0.00149  4.084353  0.002  0.220895  0.583476  0.002457  4.09584  0.003
C  C65  1  0.29684148  0.44388489  0.23420645  1  0.654529  0.001787  3.795313  0.003  0.609306  0.002096  4.09147  0.003  0.647024  0.001492  4.084382  0.002  0.22085  0.583375  0.002459  4.095842  0.003
C  C66  1  0.70316320  0.94387105  0.26579247  1  0.654442  -0.001774  3.795376  -0.003  0.609196  -0.002098  4.091574  -0.003  0.646906  -0.001491  4.084498  -0.002  0.220777  0.583246  -0.002456  4.095974  -0.003
C  C67  1  0.79683896  0.05612306  0.76579154  1  0.654566  -0.001779  3.794938  -0.003  0.609268  -0.002096  4.091224  -0.003  0.646984  -0.00149  4.084132  -0.002  0.22076  0.583322  -0.002455  4.095612  -0.003
N  N68  1  0.20791778  0.10432448  0.60778388  1  -0.571051  0.093418  3.140345  0.114  -0.554929  0.066791  3.421132  0.085  -0.585201  0.054186  3.420425  0.073  -0.629501  -0.535875  0.073626  3.423071  0.091
N  N69  1  0.29212167  0.89568706  0.10778421  1  -0.570906  0.093412  3.140026  0.114  -0.554832  0.066789  3.420762  0.085  -0.585143  0.054183  3.420009  0.073  -0.629444  -0.535807  0.073623  3.422665  0.091
N  N70  1  0.70788504  0.39567906  0.39221300  1  -0.5709  -0.093396  3.140031  -0.114  -0.554688  -0.066779  3.420804  -0.085  -0.585005  -0.054173  3.420064  -0.073  -0.629422  -0.535674  -0.073611  3.422717  -0.091
N  N71  1  0.79208240  0.60430866  0.89221954  1  -0.570895  -0.093381  3.140392  -0.114  -0.554937  -0.066772  3.421183  -0.085  -0.585259  -0.054166  3.420444  -0.073  -0.629491  -0.535887  -0.073605  3.42312  -0.091
N  N72  1  0.35940221  0.38594810  0.63992248  1  -0.511794  0.123158  3.284884  0.152  -0.487913  0.076469  3.616599  0.099  -0.533532  0.062142  3.636953  0.084  -0.435914  -0.459153  0.083765  3.604711  0.105
N  N73  1  0.14061664  0.61406641  0.13992348  1  -0.511719  0.12316  3.284558  0.152  -0.487718  0.07647  3.616294  0.099  -0.533352  0.062141  3.636679  0.084  -0.435782  -0.458967  0.083767  3.604413  0.105
N  N74  1  0.85937400  0.11406513  0.36007959  1  -0.511626  -0.123113  3.284462  -0.152  -0.487628  -0.076449  3.616211  -0.099  -0.533267  -0.062124  3.636585  -0.084  -0.435765  -0.458879  -0.083739  3.604359  -0.105
N  N75  1  0.64060833  0.88592422  0.86007732  1  -0.511962  -0.123111  3.284737  -0.152  -0.487961  -0.076447  3.616383  -0.099  -0.533602  -0.062122  3.636752  -0.084  -0.435918  -0.459205  -0.083737  3.60454  -0.105
O  O76  1  0.75582371  0.36124622  0.58567540  1  -0.612928  0.032844  1.976682  0.042  -0.591261  0.011264  2.240181  0.016  -0.622795  0.004436  2.231724  0.007  -0.333406  -0.56714  0.019086  2.244933  0.025
O  O77  1  0.74420246  0.63877534  0.08567269  1  -0.612848  0.032837  1.976853  0.042  -0.591088  0.011262  2.240411  0.016  -0.622639  0.004435  2.231988  0.007  -0.333237  -0.566973  0.019082  2.245167  0.025
O  O78  1  0.25580052  0.13876702  0.41432899  1  -0.612912  -0.032826  1.976656  -0.042  -0.591137  -0.011257  2.240198  -0.016  -0.622701  -0.004434  2.231777  -0.007  -0.333245  -0.567  -0.019071  2.244939  -0.025
O  O79  1  0.24416878  0.86122560  0.91432578  1  -0.612892  -0.032826  1.97678  -0.042  -0.591226  -0.011256  2.240342  -0.016  -0.622783  -0.004433  2.231915  -0.007  -0.33334  -0.567096  -0.019071  2.245108  -0.025
O  O80  1  0.02501522  0.45904726  0.74194807  1  -0.575354  0.059667  2.061158  0.078  -0.543054  0.047035  2.344081  0.066  -0.578425  0.038448  2.331013  0.057  -0.309373  -0.520066  0.051336  2.35419  0.069
O  O81  1  0.47499104  0.54095981  0.24194889  1  -0.575341  0.059677  2.061365  0.078  -0.543055  0.04704  2.344186  0.066  -0.578444  0.038452  2.331131  0.057  -0.309308  -0.520074  0.05134  2.354283  0.069
O  O82  1  0.52499311  0.04096002  0.25805051  1  -0.575346  -0.059713  2.060726  -0.078  -0.543114  -0.047054  2.343614  -0.066  -0.578518  -0.038461  2.330565  -0.057  -0.309363  -0.520135  -0.051357  2.353756  -0.069
O  O83  1  0.97501514  0.95903103  0.75805204  1  -0.575444  -0.059728  2.060413  -0.078  -0.543221  -0.047063  2.343353  -0.066  -0.578628  -0.038468  2.330301  -0.057  -0.309414  -0.520223  -0.051367  2.353475  -0.069
O  O84  1  0.21763046  0.68041460  0.77205369  1  -0.613003  -0.031484  2.179465  -0.043  -0.559543  -0.025474  2.453286  -0.037  -0.597807  -0.022385  2.441457  -0.034  -0.31729  -0.533268  -0.026008  2.461604  -0.036
O  O85  1  0.28236291  0.31958290  0.27205086  1  -0.612893  -0.031482  2.179589  -0.043  -0.559498  -0.025474  2.45339  -0.037  -0.59769  -0.022385  2.441456  -0.034  -0.317297  -0.533244  -0.026011  2.461701  -0.036
O  O86  1  0.71763338  0.81959294  0.22795332  1  -0.612698  0.031467  2.180034  0.043  -0.559267  0.025465  2.453857  0.037  -0.597409  0.022378  2.441857  0.034  -0.317155  -0.533009  0.025999  2.46219  0.036
O  O87  1  0.78238395  0.18040078  0.72795169  1  -0.612713  0.031465  2.180068  0.043  -0.559261  0.025463  2.453858  0.037  -0.597394  0.022378  2.441847  0.034  -0.317075  -0.532995  0.025999  2.46218  0.036
O  O88  1  0.47820910  0.80863055  0.65894495  1  -0.578804  0.000834  1.979435  0.0  -0.53387  0.000658  2.195169  0.0  -0.550466  0.000533  2.184767  0.0  -0.41164  -0.52048  0.002755  2.200896  0.003
O  O89  1  0.02181263  0.19138760  0.15893790  1  -0.578806  0.000835  1.979773  0.0  -0.53393  0.000659  2.195617  0.0  -0.550535  0.000533  2.185255  0.0  -0.411705  -0.520539  0.002754  2.201338  0.003
O  O90  1  0.97820561  0.69138558  0.34105986  1  -0.578835  -0.000836  1.979573  0.0  -0.533894  -0.000657  2.195352  0.0  -0.550504  -0.000532  2.184977  0.0  -0.411595  -0.520506  -0.002754  2.201082  -0.003
O  O91  1  0.52178907  0.30860587  0.84105624  1  -0.578815  -0.000834  1.97979  0.0  -0.533941  -0.000658  2.19556  0.0  -0.550544  -0.000532  2.185202  0.0  -0.411631  -0.520556  -0.002753  2.201273  -0.003
