# generated using pymatgen
data_ZnH8C12S2(NO2)2
_symmetry_space_group_name_H-M   'P 1'
_cell_length_a   6.36963759
_cell_length_b   13.38000163
_cell_length_c   16.02865791
_cell_angle_alpha   105.63565541
_cell_angle_beta   90.00005448
_cell_angle_gamma   90.00017350
_symmetry_Int_Tables_number   1
_chemical_formula_structural   ZnH8C12S2(NO2)2
_chemical_formula_sum   'Zn4 H32 C48 S8 N8 O16'
_cell_volume   1315.50376464
_cell_formula_units_Z   4
loop_
 _symmetry_equiv_pos_site_id
 _symmetry_equiv_pos_as_xyz
  1  'x, y, z'
loop_
 _atom_site_type_symbol
 _atom_site_label
 _atom_site_symmetry_multiplicity
 _atom_site_fract_x
 _atom_site_fract_y
 _atom_site_fract_z
 _atom_site_occupancy
 _atom_site_pbe_bader_spin_density
 _atom_site_pbe_cm5_charge
 _atom_site_pbe_ddec_charge
 _atom_site_pbe_ddec_spin_density
 _atom_site_pbe_ddec_sum_bond_order
 _atom_site_pbe_magmom
Zn  Zn0  1  0.37450139  0.49999699  0.24999855  1  0  0.535916  0.653116  0  2.626776  0
Zn  Zn1  1  0.62549677  0.50000344  0.75000069  1  0  0.535879  0.653051  0  2.626781  0
Zn  Zn2  1  0.19567750  0.00000469  0.24999880  1  0  0.537137  0.661724  0  2.571081  0
Zn  Zn3  1  0.80430810  0.99999887  0.74999803  1  0  0.537117  0.661692  0  2.571005  0
H  H4  1  0.12804922  0.53681443  0.40780651  1  0  0.30161  0.273954  0  1.006166  0
H  H5  1  0.12805896  0.46318692  0.09219083  1  0  0.301655  0.27397  0  1.006195  0
H  H6  1  0.87195679  0.46318363  0.59219842  1  0  0.301702  0.274035  0  1.006082  0
H  H7  1  0.87195961  0.53681509  0.90780503  1  0  0.301654  0.274038  0  1.006098  0
H  H8  1  0.40866293  0.20531590  0.29254994  1  0  0.303217  0.27676  0  1.008542  0
H  H9  1  0.40865929  0.79467450  0.20744090  1  0  0.303292  0.276815  0  1.008392  0
H  H10  1  0.59135093  0.79467831  0.70744975  1  0  0.303242  0.276759  0  1.008521  0
H  H11  1  0.59134987  0.20533061  0.79255629  1  0  0.303324  0.276862  0  1.008439  0
H  H12  1  0.33771827  0.88092831  0.58197620  1  0  0.099887  0.104595  0  1.044846  0
H  H13  1  0.33771976  0.11906543  0.91802288  1  0  0.0999  0.104599  0  1.0448  0
H  H14  1  0.66224850  0.11906741  0.41802945  1  0  0.099862  0.104584  0  1.044802  0
H  H15  1  0.66225171  0.88092724  0.08197396  1  0  0.099869  0.104607  0  1.044729  0
H  H16  1  0.59244574  0.77071620  0.48028001  1  0  0.104359  0.122542  0  1.018014  0
H  H17  1  0.59244056  0.22928726  0.01971878  1  0  0.104389  0.122584  0  1.017936  0
H  H18  1  0.40754457  0.22929504  0.51973106  1  0  0.104377  0.122611  0  1.017972  0
H  H19  1  0.40756075  0.77070154  0.98027593  1  0  0.104411  0.122609  0  1.018024  0
H  H20  1  0.88668422  0.63153818  0.50422338  1  0  0.127714  0.112672  0  0.996971  0
H  H21  1  0.88668597  0.36844667  0.99577974  1  0  0.127811  0.112721  0  0.997071  0
H  H22  1  0.11331394  0.36844898  0.49578592  1  0  0.127787  0.112706  0  0.997007  0
H  H23  1  0.11332632  0.63155144  0.00421834  1  0  0.127769  0.112639  0  0.997074  0
H  H24  1  0.06073936  0.21324796  0.13511706  1  0  0.105264  0.107636  0  1.023612  0
H  H25  1  0.06075363  0.78676690  0.36487180  1  0  0.105192  0.107508  0  1.023745  0
H  H26  1  0.93926038  0.78674941  0.86487461  1  0  0.105232  0.10753  0  1.023717  0
H  H27  1  0.93925081  0.21325681  0.63513339  1  0  0.105232  0.10752  0  1.023779  0
H  H28  1  0.79686449  0.07341727  0.07692196  1  0  0.110819  0.131651  0  0.980303  0
H  H29  1  0.79685826  0.92658011  0.42306528  1  0  0.110638  0.13148  0  0.9806  0
H  H30  1  0.20313211  0.92657540  0.92307675  1  0  0.110784  0.131568  0  0.980394  0
H  H31  1  0.20312577  0.07342968  0.57692986  1  0  0.110663  0.131431  0  0.980343  0
H  H32  1  0.63993995  0.34059134  0.34789633  1  0  0.125112  0.105332  0  1.009381  0
H  H33  1  0.63993291  0.65938918  0.15210269  1  0  0.125107  0.105379  0  1.009464  0
H  H34  1  0.36007234  0.65939042  0.65210612  1  0  0.125058  0.10534  0  1.00947  0
H  H35  1  0.36008566  0.34061591  0.84789761  1  0  0.125099  0.105351  0  1.009534  0
C  C36  1  0.94146519  0.82223525  0.62143853  1  0  0.202383  0.56264  0  4.24065  0
C  C37  1  0.94147325  0.17776793  0.87856135  1  0  0.202434  0.562707  0  4.240521  0
C  C38  1  0.05852199  0.17776675  0.37855920  1  0  0.202438  0.562596  0  4.240426  0
C  C39  1  0.05853119  0.82223252  0.12143416  1  0  0.202449  0.562633  0  4.240447  0
C  C40  1  0.09125961  0.76478671  0.55360318  1  0  -0.023878  -0.117037  0  4.000166  0
C  C41  1  0.09126812  0.23522296  0.94639561  1  0  -0.023885  -0.116868  0  3.999908  0
C  C42  1  0.90874013  0.23521602  0.44640033  1  0  -0.0238  -0.116875  0  4.000025  0
C  C43  1  0.90873946  0.76477984  0.05359731  1  0  -0.023711  -0.116533  0  3.999689  0
C  C44  1  0.29251383  0.80354215  0.54351905  1  0  -0.059783  -0.024657  0  3.927607  0
C  C45  1  0.29251246  0.19645746  0.95648093  1  0  -0.059769  -0.024759  0  3.927548  0
C  C46  1  0.70748747  0.19645513  0.45648758  1  0  -0.059738  -0.024609  0  3.927479  0
C  C47  1  0.70749198  0.80354300  0.04351395  1  0  -0.05984  -0.02486  0  3.927548  0
C  C48  1  0.43537644  0.74256976  0.48729685  1  0  -0.085532  -0.155941  0  3.923031  0
C  C49  1  0.43537268  0.25743090  0.01270258  1  0  -0.085597  -0.155986  0  3.923109  0
C  C50  1  0.56462015  0.25743299  0.51270479  1  0  -0.085609  -0.156178  0  3.923167  0
C  C51  1  0.56462234  0.74256329  0.98730022  1  0  -0.085574  -0.156013  0  3.923125  0
C  C52  1  0.38193503  0.64146965  0.43889425  1  0  0.128042  0.267274  0  3.989209  0
C  C53  1  0.38192575  0.35852826  0.06110330  1  0  0.128047  0.267239  0  3.989251  0
C  C54  1  0.61806627  0.35853152  0.56111015  1  0  0.128078  0.26737  0  3.989337  0
C  C55  1  0.61806143  0.64146674  0.93889407  1  0  0.128008  0.267296  0  3.989436  0
C  C56  1  0.03999594  0.66666393  0.50239000  1  0  0.075279  0.111805  0  3.847683  0
C  C57  1  0.03999691  0.33333831  0.99761462  1  0  0.075186  0.111716  0  3.847964  0
C  C58  1  0.96000536  0.33333330  0.49762286  1  0  0.075166  0.111793  0  3.847905  0
C  C59  1  0.96001224  0.66666298  0.00237172  1  0  0.075119  0.111723  0  3.847664  0
C  C60  1  0.02457241  0.37522416  0.28249999  1  0  0.210523  0.588917  0  4.196509  0
C  C61  1  0.02457737  0.62477557  0.21750078  1  0  0.210507  0.588792  0  4.196721  0
C  C62  1  0.97542732  0.62477393  0.71750059  1  0  0.210448  0.588606  0  4.196753  0
C  C63  1  0.97543492  0.37522562  0.78250175  1  0  0.210353  0.588589  0  4.196873  0
C  C64  1  0.87151902  0.28965316  0.24571675  1  0  -0.019294  -0.102225  0  3.983388  0
C  C65  1  0.87151678  0.71034705  0.25428350  1  0  -0.019281  -0.102303  0  3.983796  0
C  C66  1  0.12847914  0.71034803  0.75428516  1  0  -0.019358  -0.102321  0  3.983691  0
C  C67  1  0.12849395  0.28965645  0.74572206  1  0  -0.019431  -0.102383  0  3.983717  0
C  C68  1  0.91188270  0.21201479  0.16834258  1  0  -0.057781  -0.026835  0  3.935136  0
C  C69  1  0.91188924  0.78799122  0.33165185  1  0  -0.057743  -0.026649  0  3.935449  0
C  C70  1  0.08811703  0.78798797  0.83165657  1  0  -0.057786  -0.026731  0  3.935258  0
C  C71  1  0.08811049  0.21202084  0.66835193  1  0  -0.057717  -0.026698  0  3.935584  0
C  C72  1  0.76687464  0.13442110  0.13612366  1  0  -0.080399  -0.159806  0  3.918417  0
C  C73  1  0.76687923  0.86557991  0.36386620  1  0  -0.080235  -0.15963  0  3.918672  0
C  C74  1  0.23312823  0.86557857  0.86387291  1  0  -0.080329  -0.159592  0  3.918423  0
C  C75  1  0.23311736  0.13442984  0.63613392  1  0  -0.080298  -0.159545  0  3.918333  0
C  C76  1  0.57611174  0.13147500  0.18042102  1  0  0.133194  0.275315  0  3.990139  0
C  C77  1  0.57611493  0.86851983  0.31956917  1  0  0.133145  0.275118  0  3.990155  0
C  C78  1  0.42389584  0.86851613  0.81957484  1  0  0.133145  0.275075  0  3.990205  0
C  C79  1  0.42388951  0.13148757  0.68043292  1  0  0.133197  0.275012  0  3.990021  0
C  C80  1  0.68449585  0.28384149  0.28803830  1  0  0.068748  0.095072  0  3.863279  0
C  C81  1  0.68448412  0.71614559  0.21196078  1  0  0.068728  0.094949  0  3.863412  0
C  C82  1  0.31550859  0.71614727  0.71196326  1  0  0.068863  0.095025  0  3.863354  0
C  C83  1  0.31552974  0.28385715  0.78804148  1  0  0.068882  0.095163  0  3.863115  0
S  S84  1  0.56462126  0.55982619  0.37620354  1  0  -0.17865  -0.3626  0  2.489578  0
S  S85  1  0.56461509  0.44017320  0.12378867  1  0  -0.178646  -0.362578  0  2.48945  0
S  S86  1  0.43538318  0.44018203  0.62379249  1  0  -0.178643  -0.362564  0  2.48961  0
S  S87  1  0.43537993  0.55982178  0.87621120  1  0  -0.178648  -0.362585  0  2.489655  0
S  S88  1  0.38632773  0.04081546  0.13942485  1  0  -0.167279  -0.36263  0  2.458349  0
S  S89  1  0.38633888  0.95918412  0.36056008  1  0  -0.167243  -0.362571  0  2.458453  0
S  S90  1  0.61366572  0.95918499  0.86057127  1  0  -0.167241  -0.36254  0  2.45832  0
S  S91  1  0.61365457  0.04082101  0.63943213  1  0  -0.16727  -0.36257  0  2.458373  0
N  N92  1  0.18111584  0.60940297  0.44748640  1  0  -0.345094  -0.184149  0  3.637437  0
N  N93  1  0.18111141  0.39059721  0.05251505  1  0  -0.345106  -0.184064  0  3.637612  0
N  N94  1  0.81888703  0.39059584  0.55252183  1  0  -0.345185  -0.18429  0  3.637613  0
N  N95  1  0.81887733  0.60940093  0.94747743  1  0  -0.345063  -0.184288  0  3.637616  0
N  N96  1  0.54569694  0.20712585  0.25585523  1  0  -0.344317  -0.185416  0  3.631208  0
N  N97  1  0.54569738  0.79286795  0.24413712  1  0  -0.344287  -0.185194  0  3.630964  0
N  N98  1  0.45430750  0.79286684  0.74413974  1  0  -0.344336  -0.185242  0  3.630915  0
N  N99  1  0.45431962  0.20713870  0.75586167  1  0  -0.344383  -0.185164  0  3.630934  0
O  O100  1  0.00676719  0.91059992  0.66836058  1  0  -0.323877  -0.502826  0  2.331293  0
O  O101  1  0.00674307  0.08939664  0.83164133  1  0  -0.323848  -0.502754  0  2.331373  0
O  O102  1  0.99322155  0.08940132  0.33163386  1  0  -0.323875  -0.502772  0  2.331261  0
O  O103  1  0.99324724  0.91059990  0.16835827  1  0  -0.323873  -0.502777  0  2.331359  0
O  O104  1  0.76798504  0.78052888  0.62954192  1  0  -0.310467  -0.546177  0  2.245067  0
O  O105  1  0.76799646  0.21947295  0.87045418  1  0  -0.310582  -0.546419  0  2.245058  0
O  O106  1  0.23199272  0.21948088  0.37045759  1  0  -0.310552  -0.546298  0  2.244889  0
O  O107  1  0.23199700  0.78051584  0.12954114  1  0  -0.310604  -0.546392  0  2.244952  0
O  O108  1  0.18567767  0.37723778  0.23469829  1  0  -0.329044  -0.53244  0  2.392455  0
O  O109  1  0.18568040  0.62276942  0.26530736  1  0  -0.328993  -0.532305  0  2.392428  0
O  O110  1  0.81431892  0.62277273  0.76530450  1  0  -0.328959  -0.532211  0  2.392458  0
O  O111  1  0.81432404  0.37723562  0.73470043  1  0  -0.329009  -0.532386  0  2.392391  0
O  O112  1  0.98619218  0.43741520  0.35510633  1  0  -0.307282  -0.530859  0  2.238393  0
O  O113  1  0.98623186  0.56257815  0.14489381  1  0  -0.307321  -0.530882  0  2.238495  0
O  O114  1  0.01380441  0.56256887  0.64489976  1  0  -0.307266  -0.530773  0  2.238553  0
O  O115  1  0.01379142  0.43742929  0.85510392  1  0  -0.30713  -0.530644  0  2.23886  0
