# generated using pymatgen
data_AgH15C16SN4O3
_symmetry_space_group_name_H-M   'P 1'
_cell_length_a   6.76554743
_cell_length_b   10.07824559
_cell_length_c   12.87627013
_cell_angle_alpha   89.20882328
_cell_angle_beta   99.75056621
_cell_angle_gamma   97.67905320
_symmetry_Int_Tables_number   1
_chemical_formula_structural   AgH15C16SN4O3
_chemical_formula_sum   'Ag2 H30 C32 S2 N8 O6'
_cell_volume   857.48901770
_cell_formula_units_Z   2
loop_
 _symmetry_equiv_pos_site_id
 _symmetry_equiv_pos_as_xyz
  1  'x, y, z'
loop_
 _atom_site_type_symbol
 _atom_site_label
 _atom_site_symmetry_multiplicity
 _atom_site_fract_x
 _atom_site_fract_y
 _atom_site_fract_z
 _atom_site_occupancy
 _atom_site_pbe_bader_spin_density
 _atom_site_pbe_cm5_charge
 _atom_site_pbe_ddec_charge
 _atom_site_pbe_ddec_spin_density
 _atom_site_pbe_ddec_sum_bond_order
 _atom_site_pbe_magmom
Ag  Ag0  1  0.58093088  0.08473787  0.70601232  1  0  0.499087  0.388066  0  1.96717  0
Ag  Ag1  1  0.41907221  0.91525768  0.29398913  1  0  0.499104  0.388078  0  1.967214  0
H  H2  1  0.23902205  0.85562795  0.74640593  1  0  0.127395  0.145504  0  1.065862  0
H  H3  1  0.76096351  0.14436151  0.25358926  1  0  0.127387  0.145511  0  1.065874  0
H  H4  1  0.18548266  0.69562303  0.95727820  1  0  0.099886  0.102676  0  1.029705  0
H  H5  1  0.81450273  0.30436542  0.04271698  1  0  0.099848  0.102664  0  1.029694  0
H  H6  1  0.96321222  0.67977705  0.09373072  1  0  0.094467  0.089401  0  1.037695  0
H  H7  1  0.03678537  0.32022142  0.90627254  1  0  0.094478  0.089438  0  1.037725  0
H  H8  1  0.68235489  0.81479796  0.08286982  1  0  0.094731  0.089491  0  1.052015  0
H  H9  1  0.31765525  0.18521165  0.91713224  1  0  0.094698  0.089429  0  1.051962  0
H  H10  1  0.60790360  0.97142850  0.93388446  1  0  0.10063  0.103308  0  1.021181  0
H  H11  1  0.39210916  0.02857911  0.06611941  1  0  0.100661  0.103341  0  1.021118  0
H  H12  1  0.91287064  0.30546297  0.63044359  1  0  0.128851  0.15489  0  1.049567  0
H  H13  1  0.08713546  0.69454065  0.36955501  1  0  0.128824  0.154846  0  1.049584  0
H  H14  1  0.09444771  0.59230691  0.72732039  1  0  0.10357  0.108856  0  1.005242  0
H  H15  1  0.90556558  0.40769480  0.27267655  1  0  0.103551  0.108764  0  1.005263  0
H  H16  1  0.41276843  0.70490700  0.83513388  1  0  0.096931  0.094747  0  1.033955  0
H  H17  1  0.58723717  0.29509364  0.16486236  1  0  0.09696  0.0948  0  1.033893  0
H  H18  1  0.70424633  0.58557415  0.89233754  1  0  0.093302  0.09239  0  1.048385  0
H  H19  1  0.29576125  0.41442945  0.10766275  1  0  0.093319  0.092432  0  1.048359  0
H  H20  1  0.69892061  0.34630844  0.84045801  1  0  0.100104  0.102572  0  1.042753  0
H  H21  1  0.30107742  0.65369209  0.15954063  1  0  0.100107  0.102581  0  1.042705  0
H  H22  1  0.15505310  0.00752914  0.60043360  1  0  0.141079  0.135579  0  0.990121  0
H  H23  1  0.84494507  0.99247236  0.39956738  1  0  0.141051  0.135519  0  0.990186  0
H  H24  1  0.91248398  0.06818541  0.58560864  1  0  0.140711  0.134345  0  0.99377  0
H  H25  1  0.08751685  0.93181413  0.41439181  1  0  0.140729  0.134362  0  0.993772  0
H  H26  1  0.27298592  0.32629220  0.34148723  1  0  0.100088  0.163561  0  1.002025  0
H  H27  1  0.72701049  0.67369933  0.65851052  1  0  0.100101  0.163602  0  1.002012  0
H  H28  1  0.50702037  0.42506314  0.39670725  1  0  0.099892  0.166094  0  1.01513  0
H  H29  1  0.49297111  0.57493433  0.60329079  1  0  0.099856  0.166075  0  1.015142  0
H  H30  1  0.31532177  0.37966659  0.47720243  1  0  0.102195  0.167755  0  0.99028  0
H  H31  1  0.68466208  0.62032986  0.52279102  1  0  0.102205  0.167739  0  0.990327  0
C  C32  1  0.11286325  0.88488537  0.77896877  1  0  0.029411  -0.12883  0  3.821357  0
C  C33  1  0.88712671  0.11511208  0.22102991  1  0  0.029361  -0.129034  0  3.821445  0
C  C34  1  0.02312357  0.84500730  0.86721649  1  0  -0.022181  -0.009132  0  4.073944  0
C  C35  1  0.97687244  0.15499024  0.13278042  1  0  -0.022202  -0.009109  0  4.07407  0
C  C36  1  0.06178451  0.75582622  0.95201850  1  0  -0.091495  -0.121988  0  3.990518  0
C  C37  1  0.93819454  0.24416911  0.04798151  1  0  -0.091429  -0.121846  0  3.990126  0
C  C38  1  0.93777609  0.74728897  0.02739032  1  0  -0.10062  -0.100833  0  4.020021  0
C  C39  1  0.06222743  0.25270863  0.97260806  1  0  -0.10068  -0.101061  0  4.019889  0
C  C40  1  0.77436854  0.82431017  0.02086062  1  0  -0.092077  -0.065188  0  3.985758  0
C  C41  1  0.22563628  0.17569533  0.97914562  1  0  -0.092099  -0.0651  0  3.98609  0
C  C42  1  0.73200501  0.91143929  0.93907130  1  0  -0.091701  -0.158426  0  3.979638  0
C  C43  1  0.26800307  0.08856729  0.06093135  1  0  -0.091645  -0.158444  0  3.979685  0
C  C44  1  0.85828455  0.92261699  0.86191658  1  0  0.098652  0.162289  0  4.067684  0
C  C45  1  0.14171431  0.07738848  0.13808677  1  0  0.098705  0.162419  0  4.067449  0
C  C46  1  0.06775888  0.30423069  0.67059137  1  0  0.032583  -0.118875  0  3.806716  0
C  C47  1  0.93224701  0.69577190  0.32940876  1  0  0.032674  -0.118747  0  3.806708  0
C  C48  1  0.21534475  0.40203887  0.72477622  1  0  -0.021933  -0.014746  0  4.082871  0
C  C49  1  0.78466535  0.59796181  0.27522044  1  0  -0.021998  -0.014845  0  4.083043  0
C  C50  1  0.22324788  0.53822357  0.75283057  1  0  -0.086752  -0.111059  0  3.977576  0
C  C51  1  0.77675152  0.46177601  0.24716587  1  0  -0.086687  -0.11087  0  3.977894  0
C  C52  1  0.39913369  0.59993432  0.81299388  1  0  -0.097348  -0.093678  0  4.014805  0
C  C53  1  0.60088140  0.40006935  0.18700710  1  0  -0.097449  -0.093817  0  4.015029  0
C  C54  1  0.56960798  0.53138544  0.84511435  1  0  -0.091051  -0.064698  0  3.997725  0
C  C55  1  0.43039777  0.46861619  0.15488345  1  0  -0.091007  -0.064697  0  3.997556  0
C  C56  1  0.56845454  0.39956460  0.81714254  1  0  -0.095916  -0.169905  0  3.985051  0
C  C57  1  0.43155437  0.60043803  0.18285710  1  0  -0.095952  -0.169943  0  3.985112  0
C  C58  1  0.38880913  0.33399574  0.75741402  1  0  0.096788  0.159197  0  4.077482  0
C  C59  1  0.61118072  0.66600076  0.24258077  1  0  0.096862  0.159273  0  4.077482  0
C  C60  1  0.05321569  0.05770002  0.63928576  1  0  0.06238  -0.067326  0  3.804237  0
C  C61  1  0.94678285  0.94230349  0.36071524  1  0  0.062375  -0.067365  0  3.804335  0
C  C62  1  0.38616174  0.34813674  0.41280572  1  0  -0.238972  -0.552854  0  3.818339  0
C  C63  1  0.61383274  0.65186076  0.58719260  1  0  -0.238955  -0.55284  0  3.818409  0
S  S64  1  0.48956023  0.19753663  0.45197029  1  0  0.488063  1.279155  0  6.132061  0
S  S65  1  0.51043600  0.80246280  0.54803518  1  0  0.488068  1.27904  0  6.132339  0
N  N66  1  0.84991834  0.00317687  0.77658676  1  0  -0.272698  -0.276143  0  3.457211  0
N  N67  1  0.15008296  0.99682562  0.22341761  1  0  -0.27278  -0.276273  0  3.457399  0
N  N68  1  0.00516907  0.97788793  0.72893706  1  0  -0.130123  0.20678  0  3.755557  0
N  N69  1  0.99482875  0.02211158  0.27106312  1  0  -0.130002  0.207021  0  3.755808  0
N  N70  1  0.34777441  0.20412544  0.72527510  1  0  -0.276832  -0.286209  0  3.464849  0
N  N71  1  0.65222790  0.79587409  0.27472705  1  0  -0.27685  -0.286223  0  3.46479  0
N  N72  1  0.15366407  0.19013940  0.67380681  1  0  -0.131075  0.206199  0  3.759173  0
N  N73  1  0.84633858  0.80986213  0.32619614  1  0  -0.13113  0.206144  0  3.759159  0
O  O74  1  0.64506488  0.23379869  0.54612977  1  0  -0.367801  -0.636648  0  2.25652  0
O  O75  1  0.35493557  0.76620687  0.45386829  1  0  -0.367772  -0.636578  0  2.25659  0
O  O76  1  0.57711918  0.15465239  0.36233415  1  0  -0.365258  -0.63899  0  2.278944  0
O  O77  1  0.42287504  0.84534405  0.63766881  1  0  -0.365187  -0.638937  0  2.279078  0
O  O78  1  0.31847997  0.10274337  0.47486660  1  0  -0.356981  -0.637321  0  2.229189  0
O  O79  1  0.68152834  0.89725707  0.52514698  1  0  -0.357085  -0.637353  0  2.22927  0
