# generated using pymatgen
data_ZnH16C18(NO)4
_symmetry_space_group_name_H-M   'P 1'
_cell_length_a   14.65618385
_cell_length_b   15.56502020
_cell_length_c   16.83960433
_cell_angle_alpha   89.99995391
_cell_angle_beta   89.99989805
_cell_angle_gamma   89.99985645
_symmetry_Int_Tables_number   1
_chemical_formula_structural   ZnH16C18(NO)4
_chemical_formula_sum   'Zn8 H128 C144 N32 O32'
_cell_volume   3841.51448962
_cell_formula_units_Z   8
loop_
 _symmetry_equiv_pos_site_id
 _symmetry_equiv_pos_as_xyz
  1  'x, y, z'
loop_
 _atom_site_type_symbol
 _atom_site_label
 _atom_site_symmetry_multiplicity
 _atom_site_fract_x
 _atom_site_fract_y
 _atom_site_fract_z
 _atom_site_occupancy
 _atom_site_pbe_bader_charge
 _atom_site_pbe_bader_spin_density
 _atom_site_pbe_cm5_charge
 _atom_site_pbe_ddec_charge
 _atom_site_pbe_ddec_spin_density
 _atom_site_pbe_ddec_sum_bond_order
 _atom_site_pbe_magmom
Zn  Zn0  1  0.84606602  0.97536777  0.79138574  1  1.249329  0  0.694633  0.772268  0  2.43807  0
Zn  Zn1  1  0.65393456  0.02463190  0.29138400  1  1.249337  0  0.694622  0.772218  0  2.438086  0
Zn  Zn2  1  0.15393435  0.47536992  0.70861493  1  1.249386  0  0.69462  0.772262  0  2.43807  0
Zn  Zn3  1  0.34606598  0.52463165  0.20861548  1  1.249434  0  0.694663  0.772331  0  2.438013  0
Zn  Zn4  1  0.58767684  0.47073593  0.73696383  1  1.249301  0  0.693785  0.772001  0  2.404705  0
Zn  Zn5  1  0.91232317  0.52926444  0.23696488  1  1.249275  0  0.693814  0.772045  0  2.404663  0
Zn  Zn6  1  0.41232286  0.97073612  0.76303506  1  1.249257  0  0.693818  0.772067  0  2.404673  0
Zn  Zn7  1  0.08767668  0.02926348  0.26303579  1  1.249265  0  0.693807  0.772069  0  2.404644  0
H  H8  1  0.43635390  0.67586393  0.92603839  1  0.105893  0  0.109947  0.132933  0  0.994146  0
H  H9  1  0.06364667  0.32413359  0.42603775  1  0.105844  0  0.109958  0.132923  0  0.994116  0
H  H10  1  0.56364590  0.17586587  0.57396310  1  0.10585  0  0.109949  0.132926  0  0.994123  0
H  H11  1  0.93635376  0.82413592  0.07396211  1  0.105886  0  0.109947  0.132905  0  0.99418  0
H  H12  1  0.45937170  0.48481627  0.96843374  1  0.092544  0  0.098271  0.103317  0  1.05511  0
H  H13  1  0.04062879  0.51517993  0.46843359  1  0.092623  0  0.098278  0.103287  0  1.055155  0
H  H14  1  0.54062933  0.98481957  0.53156574  1  0.092602  0  0.098277  0.103299  0  1.055168  0
H  H15  1  0.95936974  0.01518354  0.03156828  1  0.092843  0  0.098264  0.103345  0  1.055149  0
H  H16  1  0.69737897  0.20667380  0.77317372  1  0.076006  0  0.100967  0.106789  0  1.037636  0
H  H17  1  0.80262233  0.79332588  0.27317533  1  0.075993  0  0.100961  0.106797  0  1.037598  0
H  H18  1  0.30262280  0.70667364  0.72682418  1  0.075974  0  0.100979  0.106825  0  1.03754  0
H  H19  1  0.19737886  0.29332534  0.22682573  1  0.076002  0  0.100972  0.106818  0  1.037622  0
H  H20  1  0.76446482  0.20979105  0.60002946  1  0.112149  0  0.113164  0.135369  0  0.977564  0
H  H21  1  0.73553957  0.79021008  0.10002880  1  0.112144  0  0.113141  0.135339  0  0.977603  0
H  H22  1  0.23554308  0.70978897  0.89997022  1  0.112199  0  0.11313  0.13532  0  0.977503  0
H  H23  1  0.26446164  0.29021115  0.39996989  1  0.112171  0  0.11314  0.135309  0  0.977501  0
H  H24  1  0.52790645  0.38289937  0.57021950  1  0.178934  0  0.119707  0.127273  0  1.012103  0
H  H25  1  0.97209322  0.61710114  0.07021979  1  0.179067  0  0.119702  0.127282  0  1.012125  0
H  H26  1  0.47209280  0.88289992  0.92978065  1  0.178938  0  0.119702  0.127298  0  1.012079  0
H  H27  1  0.02790572  0.11710082  0.42978022  1  0.179099  0  0.119709  0.127301  0  1.012077  0
H  H28  1  0.38196532  0.45335114  0.48324723  1  0.190577  0  0.119157  0.138272  0  1.055145  0
H  H29  1  0.11803514  0.54664954  0.98324727  1  0.190565  0  0.119154  0.138263  0  1.055156  0
H  H30  1  0.61803409  0.95335106  0.01675312  1  0.190578  0  0.119164  0.138262  0  1.055163  0
H  H31  1  0.88196365  0.04664885  0.51675194  1  0.190582  0  0.119171  0.138316  0  1.055117  0
H  H32  1  0.42709194  0.59904821  0.69271822  1  0.167171  0  0.13564  0.113216  0  1.036218  0
H  H33  1  0.07290775  0.40095273  0.19271810  1  0.167001  0  0.135651  0.113248  0  1.036186  0
H  H34  1  0.57290739  0.09904799  0.80728155  1  0.166991  0  0.135637  0.113251  0  1.036176  0
H  H35  1  0.92709316  0.90095231  0.30728110  1  0.166976  0  0.135644  0.113267  0  1.036172  0
H  H36  1  0.27784236  0.62433075  0.61393203  1  0.120508  0  0.11504  0.105795  0  1.003347  0
H  H37  1  0.22215749  0.37566962  0.11393170  1  0.120512  0  0.115049  0.105798  0  1.003396  0
H  H38  1  0.72215690  0.12433011  0.88606772  1  0.120519  0  0.115056  0.105804  0  1.003384  0
H  H39  1  0.77784212  0.87566883  0.38606693  1  0.120481  0  0.115025  0.105775  0  1.003409  0
H  H40  1  0.25926607  0.56508129  0.52656719  1  0.0907  0  0.117652  0.115189  0  0.974734  0
H  H41  1  0.24073464  0.43491915  0.02656678  1  0.090647  0  0.117646  0.115185  0  0.974735  0
H  H42  1  0.74073335  0.06507989  0.97343320  1  0.090691  0  0.117669  0.115203  0  0.9747  0
H  H43  1  0.75926618  0.93491962  0.47343239  1  0.090759  0  0.117666  0.115217  0  0.974738  0
H  H44  1  0.35578376  0.60274067  0.40209327  1  0.107097  0  0.098148  0.098594  0  1.052171  0
H  H45  1  0.14421481  0.39726201  0.90209279  1  0.107074  0  0.09815  0.098568  0  1.05217  0
H  H46  1  0.64421589  0.10273983  0.09790675  1  0.107079  0  0.098126  0.098546  0  1.052188  0
H  H47  1  0.85578441  0.89726066  0.59790676  1  0.107092  0  0.098112  0.098554  0  1.052154  0
H  H48  1  0.40114133  0.72589372  0.31893090  1  0.033607  0  0.096152  0.094059  0  1.029416  0
H  H49  1  0.09885810  0.27410775  0.81893118  1  0.033515  0  0.096187  0.094109  0  1.029511  0
H  H50  1  0.59885936  0.22589356  0.18106962  1  0.033587  0  0.096157  0.094051  0  1.029492  0
H  H51  1  0.90114145  0.77410685  0.68107083  1  0.033572  0  0.096164  0.094074  0  1.029496  0
H  H52  1  0.38271387  0.89314111  0.52287626  1  0.083903  0  0.101354  0.104139  0  1.000352  0
H  H53  1  0.11728616  0.10685933  0.02287630  1  0.083913  0  0.101352  0.104134  0  1.00034  0
H  H54  1  0.61728673  0.39314128  0.97712328  1  0.083893  0  0.101343  0.104106  0  1.000375  0
H  H55  1  0.88271280  0.60685951  0.47712372  1  0.0839  0  0.101346  0.104115  0  1.000405  0
H  H56  1  0.34006847  0.76957302  0.60625954  1  0.037599  0  0.098817  0.098313  0  1.035967  0
H  H57  1  0.15993208  0.23042735  0.10625941  1  0.037595  0  0.098803  0.098293  0  1.036004  0
H  H58  1  0.65993109  0.26957188  0.89374069  1  0.037599  0  0.098809  0.098319  0  1.035968  0
H  H59  1  0.84006860  0.73042770  0.39373992  1  0.037588  0  0.098799  0.098295  0  1.035993  0
H  H60  1  0.43208147  0.95185353  0.39840119  1  0.090415  0  0.117586  0.105531  0  0.978045  0
H  H61  1  0.06791711  0.04814659  0.89840227  1  0.090395  0  0.11756  0.105491  0  0.978059  0
H  H62  1  0.56791862  0.45185414  0.10159798  1  0.090398  0  0.117591  0.105527  0  0.978079  0
H  H63  1  0.93208167  0.54814634  0.60159753  1  0.090398  0  0.117569  0.105503  0  0.97804  0
H  H64  1  0.47753549  0.88194226  0.32598380  1  0.091856  0  0.119416  0.112603  0  0.959605  0
H  H65  1  0.02246324  0.11805793  0.82598431  1  0.091845  0  0.119434  0.112632  0  0.959597  0
H  H66  1  0.52246479  0.38194292  0.17401660  1  0.09186  0  0.11941  0.112574  0  0.959599  0
H  H67  1  0.97753467  0.61805750  0.67401603  1  0.091875  0  0.119422  0.112597  0  0.95958  0
H  H68  1  0.36941817  0.83145551  0.20974364  1  0.115765  0  0.131843  0.136321  0  0.987256  0
H  H69  1  0.13058216  0.16854477  0.70974395  1  0.115458  0  0.131844  0.136345  0  0.987232  0
H  H70  1  0.63058292  0.33145581  0.29025621  1  0.115492  0  0.131832  0.136313  0  0.98727  0
H  H71  1  0.86941699  0.66854386  0.79025636  1  0.115496  0  0.131833  0.136316  0  0.987257  0
H  H72  1  0.26656217  0.00905058  0.37867615  1  0.136373  0  0.141899  0.116128  0  0.988618  0
H  H73  1  0.23343645  0.99094955  0.87867627  1  0.136377  0  0.141881  0.116092  0  0.988662  0
H  H74  1  0.73343773  0.50905142  0.12132454  1  0.136375  0  0.141892  0.116123  0  0.988644  0
H  H75  1  0.76656252  0.49094968  0.62132320  1  0.136346  0  0.14191  0.11618  0  0.988598  0
H  H76  1  0.20206216  0.89510743  0.15863091  1  0.114438  0  0.126414  0.123991  0  0.984755  0
H  H77  1  0.29793827  0.10489354  0.65863159  1  0.114437  0  0.126415  0.124004  0  0.984742  0
H  H78  1  0.79793876  0.39510729  0.34136889  1  0.114433  0  0.126425  0.123995  0  0.984742  0
H  H79  1  0.70206036  0.60489233  0.84136876  1  0.114428  0  0.126427  0.123973  0  0.984772  0
H  H80  1  0.74041246  0.81593344  0.86501945  1  0.158806  0  0.116921  0.124886  0  1.025597  0
H  H81  1  0.75958661  0.18406681  0.36501920  1  0.158946  0  0.116911  0.124862  0  1.025544  0
H  H82  1  0.25958697  0.31593348  0.63498135  1  0.158951  0  0.116934  0.124885  0  1.025584  0
H  H83  1  0.24041283  0.68406687  0.13498076  1  0.158817  0  0.116911  0.12485  0  1.025543  0
H  H84  1  0.59198383  0.74174037  0.78307229  1  0.229631  0  0.120153  0.137769  0  1.067056  0
H  H85  1  0.90801541  0.25825867  0.28307176  1  0.229687  0  0.120146  0.137758  0  1.067033  0
H  H86  1  0.40801580  0.24174062  0.71692855  1  0.229676  0  0.120148  0.137743  0  1.067097  0
H  H87  1  0.09198383  0.75826030  0.21692873  1  0.229658  0  0.120149  0.137756  0  1.067068  0
H  H88  1  0.70102572  0.94823280  0.64917053  1  0.164145  0  0.134907  0.108785  0  1.010803  0
H  H89  1  0.79897447  0.05176635  0.14917032  1  0.164102  0  0.134898  0.108745  0  1.010794  0
H  H90  1  0.29897405  0.44823384  0.85082957  1  0.164105  0  0.13491  0.108769  0  1.010801  0
H  H91  1  0.20102532  0.55176761  0.35082973  1  0.164136  0  0.134897  0.108741  0  1.010838  0
H  H92  1  0.53991023  0.88491154  0.61194118  1  0.104117  0  0.110064  0.097824  0  1.035085  0
H  H93  1  0.96009004  0.11508829  0.11194068  1  0.104086  0  0.110052  0.097805  0  1.035136  0
H  H94  1  0.46008834  0.38491152  0.88805896  1  0.104105  0  0.110061  0.097824  0  1.035133  0
H  H95  1  0.03990959  0.61508797  0.38805874  1  0.104089  0  0.110056  0.097796  0  1.035125  0
H  H96  1  0.50045118  0.79641183  0.66646212  1  0.122722  0  0.118197  0.121138  0  0.985554  0
H  H97  1  0.99954898  0.20358795  0.16646090  1  0.122745  0  0.118222  0.121174  0  0.985544  0
H  H98  1  0.49954899  0.29641241  0.83353868  1  0.12273  0  0.118219  0.12117  0  0.985585  0
H  H99  1  0.00044973  0.70358841  0.33353905  1  0.122714  0  0.118206  0.121123  0  0.98562  0
H  H100  1  0.59784714  0.65148805  0.64855254  1  0.070166  0  0.099134  0.100074  0  1.044036  0
H  H101  1  0.90215101  0.34851111  0.14855195  1  0.070199  0  0.099125  0.100067  0  1.044035  0
H  H102  1  0.40215273  0.15148820  0.85144719  1  0.07016  0  0.099133  0.100076  0  1.044036  0
H  H103  1  0.09784663  0.84851003  0.35144730  1  0.070179  0  0.099087  0.100016  0  1.044007  0
H  H104  1  0.63506035  0.54994755  0.53981305  1  0.019929  0  0.096466  0.093545  0  1.034211  0
H  H105  1  0.86493938  0.45005170  0.03981245  1  0.019964  0  0.096466  0.093541  0  1.034166  0
H  H106  1  0.36493979  0.04994833  0.96018675  1  0.019958  0  0.096473  0.093565  0  1.034151  0
H  H107  1  0.13505867  0.95005173  0.46018613  1  0.019954  0  0.096493  0.093562  0  1.034194  0
H  H108  1  0.63474297  0.76021204  0.37279242  1  0.060644  0  0.099399  0.100808  0  1.014043  0
H  H109  1  0.86525677  0.23978692  0.87279172  1  0.060597  0  0.099403  0.100836  0  1.014005  0
H  H110  1  0.36525627  0.26021247  0.12720807  1  0.060627  0  0.099383  0.100783  0  1.014052  0
H  H111  1  0.13474287  0.73978852  0.62720854  1  0.060616  0  0.0994  0.100824  0  1.014028  0
H  H112  1  0.59638144  0.86027038  0.48002593  1  0.072104  0  0.098275  0.10048  0  1.035772  0
H  H113  1  0.90361876  0.13972913  0.98002524  1  0.072081  0  0.09825  0.100474  0  1.035793  0
H  H114  1  0.40361821  0.36027017  0.01997449  1  0.072111  0  0.098274  0.100505  0  1.035767  0
H  H115  1  0.09637978  0.63973028  0.51997568  1  0.07209  0  0.098258  0.100484  0  1.035748  0
H  H116  1  0.72720315  0.59814790  0.35708658  1  0.093348  0  0.118613  0.112781  0  0.971268  0
H  H117  1  0.77279935  0.40185107  0.85708471  1  0.093372  0  0.118654  0.112846  0  0.971277  0
H  H118  1  0.27279720  0.09814854  0.14291404  1  0.093343  0  0.118668  0.112869  0  0.971281  0
H  H119  1  0.22720258  0.90185116  0.64291246  1  0.093367  0  0.118626  0.112798  0  0.971289  0
H  H120  1  0.66150056  0.51898584  0.40643283  1  0.092415  0  0.11577  0.09864  0  0.977633  0
H  H121  1  0.83850047  0.48101180  0.90642902  1  0.092464  0  0.115764  0.09861  0  0.977681  0
H  H122  1  0.33850000  0.01898636  0.09356784  1  0.092433  0  0.115759  0.098642  0  0.977686  0
H  H123  1  0.16149989  0.98101402  0.59356809  1  0.092428  0  0.115743  0.098606  0  0.977659  0
H  H124  1  0.48917201  0.50004230  0.35982915  1  0.167867  0  0.139178  0.109743  0  1.005707  0
H  H125  1  0.01082734  0.49995592  0.85982702  1  0.167895  0  0.139165  0.109712  0  1.005765  0
H  H126  1  0.51082860  0.00004174  0.14017154  1  0.167869  0  0.139136  0.109704  0  1.005695  0
H  H127  1  0.98917161  0.99995742  0.64017245  1  0.167895  0  0.139148  0.109731  0  1.005712  0
H  H128  1  0.49656002  0.65617967  0.15514969  1  0.167782  0  0.11966  0.125564  0  1.027211  0
H  H129  1  0.00344657  0.34382194  0.65514650  1  0.167714  0  0.119674  0.125586  0  1.027168  0
H  H130  1  0.50344018  0.15617894  0.34485029  1  0.167782  0  0.119661  0.12557  0  1.027205  0
H  H131  1  0.99655962  0.84382068  0.84485190  1  0.167747  0  0.1197  0.125638  0  1.0272  0
H  H132  1  0.65709691  0.68133714  0.24125015  1  0.164281  0  0.119493  0.121405  0  1.050871  0
H  H133  1  0.84290855  0.31866194  0.74124586  1  0.164705  0  0.119489  0.121337  0  1.050886  0
H  H134  1  0.34290458  0.18133751  0.25875040  1  0.164207  0  0.119479  0.121368  0  1.050885  0
H  H135  1  0.15709701  0.81866273  0.75875196  1  0.164268  0  0.119452  0.12134  0  1.050873  0
C  C136  1  0.50449190  0.58384280  0.84514336  1  1.528362  0  0.193984  0.591673  0  4.232022  0
C  C137  1  0.99550790  0.41615682  0.34514376  1  1.52827  0  0.193941  0.591646  0  4.232059  0
C  C138  1  0.49550679  0.08384354  0.65485761  1  1.528292  0  0.194003  0.591701  0  4.232032  0
C  C139  1  0.00449161  0.91615743  0.15485721  1  1.528275  0  0.194031  0.591765  0  4.231996  0
C  C140  1  0.45715682  0.60889066  0.91991711  1  -0.020382  0  -0.08482  -0.176959  0  3.909505  0
C  C141  1  0.04284445  0.39110687  0.41991586  1  -0.020302  0  -0.084835  -0.176985  0  3.909389  0
C  C142  1  0.54284521  0.10889199  0.58008443  1  -0.020242  0  -0.084831  -0.176975  0  3.909355  0
C  C143  1  0.95715444  0.89110915  0.08008572  1  -0.020421  0  -0.084779  -0.176811  0  3.909504  0
C  C144  1  0.43819420  0.55134303  0.97668273  1  -0.101479  0  -0.094433  -0.189726  0  3.940552  0
C  C145  1  0.06180491  0.44865510  0.47668260  1  -0.101633  0  -0.094431  -0.189652  0  3.940478  0
C  C146  1  0.56180594  0.05134437  0.52331647  1  -0.101735  0  -0.094439  -0.18968  0  3.940471  0
C  C147  1  0.93819314  0.94865746  0.02331954  1  -0.101765  0  -0.094397  -0.189829  0  3.940601  0
C  C148  1  0.39152061  0.57171416  0.05281070  1  1.546227  0  0.190823  0.596201  0  4.242235  0
C  C149  1  0.10848345  0.42828240  0.55280847  1  1.546765  0  0.1908  0.596108  0  4.24238  0
C  C150  1  0.60848254  0.07171759  0.44718994  1  1.547022  0  0.190766  0.596053  0  4.242446  0
C  C151  1  0.89152046  0.92828451  0.94719224  1  1.546387  0  0.190757  0.5961  0  4.242309  0
C  C152  1  0.66324382  0.31681058  0.69719271  1  1.539129  0  0.189338  0.590878  0  4.246336  0
C  C153  1  0.83675695  0.68318917  0.19719316  1  1.5391  0  0.189339  0.590897  0  4.246299  0
C  C154  1  0.33675697  0.81681027  0.80280571  1  1.535688  0  0.189271  0.590788  0  4.246489  0
C  C155  1  0.16324317  0.18318993  0.30280680  1  1.539017  0  0.189304  0.590863  0  4.24635  0
C  C156  1  0.70559328  0.23173707  0.71317705  1  -0.01668  0  -0.088162  -0.180985  0  3.937119  0
C  C157  1  0.79440951  0.76826267  0.21317691  1  -0.016698  0  -0.088174  -0.181034  0  3.937208  0
C  C158  1  0.29441115  0.73173688  0.78682143  1  -0.016772  0  -0.088177  -0.181026  0  3.937162  0
C  C159  1  0.20559107  0.26826205  0.28682239  1  -0.016735  0  -0.088176  -0.181069  0  3.937246  0
C  C160  1  0.75660735  0.18765807  0.66115146  1  -0.088397  0  -0.080408  -0.171969  0  3.88482  0
C  C161  1  0.74339691  0.81234300  0.16115077  1  -0.08848  0  -0.080368  -0.171906  0  3.884947  0
C  C162  1  0.24339925  0.68765602  0.83884706  1  -0.088705  0  -0.080337  -0.171864  0  3.884752  0
C  C163  1  0.25660424  0.31234286  0.33884791  1  -0.08851  0  -0.080347  -0.171803  0  3.884779  0
C  C164  1  0.80138240  0.10547565  0.68451364  1  1.536105  0  0.194229  0.598645  0  4.240033  0
C  C165  1  0.69862045  0.89452476  0.18451296  1  1.536052  0  0.19418  0.598566  0  4.240142  0
C  C166  1  0.19862101  0.60547501  0.81548612  1  1.53633  0  0.194209  0.598627  0  4.240098  0
C  C167  1  0.30137843  0.39452518  0.31548506  1  1.536118  0  0.19411  0.598473  0  4.240009  0
C  C168  1  0.48474643  0.43799668  0.58205173  1  0.371288  0  -0.005293  -0.042026  0  4.005743  0
C  C169  1  0.01525348  0.56200436  0.08205218  1  0.371159  0  -0.005286  -0.042025  0  4.005732  0
C  C170  1  0.51525473  0.93799585  0.91794718  1  0.371314  0  -0.005279  -0.042035  0  4.005666  0
C  C171  1  0.98474560  0.06200307  0.41794727  1  0.371166  0  -0.005252  -0.041988  0  4.005717  0
C  C172  1  0.41414415  0.47237386  0.53876038  1  0.243231  0  -0.001859  -0.113445  0  3.897269  0
C  C173  1  0.08585585  0.52762721  0.03876015  1  0.243362  0  -0.001829  -0.113383  0  3.897198  0
C  C174  1  0.58585487  0.97237411  0.96123970  1  0.243205  0  -0.001824  -0.113343  0  3.897197  0
C  C175  1  0.91414332  0.02762605  0.46123874  1  0.243249  0  -0.001886  -0.113521  0  3.897323  0
C  C176  1  0.43433200  0.54917742  0.64818808  1  0.990718  0  0.142765  0.090316  0  3.904264  0
C  C177  1  0.06566778  0.45082356  0.14818854  1  0.991169  0  0.142769  0.090332  0  3.904149  0
C  C178  1  0.56566678  0.04917718  0.85181172  1  0.990909  0  0.14277  0.090307  0  3.904204  0
C  C179  1  0.93433232  0.95082179  0.35181063  1  0.991134  0  0.14277  0.090261  0  3.904132  0
C  C180  1  0.31065248  0.60239180  0.55895744  1  0.271124  0  -0.045452  -0.118178  0  3.876727  0
C  C181  1  0.18934747  0.39760926  0.05895715  1  0.271144  0  -0.045487  -0.118221  0  3.876816  0
C  C182  1  0.68934684  0.10239055  0.94104232  1  0.271157  0  -0.045472  -0.118177  0  3.8767  0
C  C183  1  0.81065208  0.89760899  0.44104087  1  0.271041  0  -0.045434  -0.118183  0  3.876757  0
C  C184  1  0.34364056  0.67747681  0.50976205  1  0.04337  0  -0.012052  0.090154  0  3.966206  0
C  C185  1  0.15635882  0.32252429  0.00976246  1  0.043365  0  -0.012049  0.090152  0  3.966214  0
C  C186  1  0.65635856  0.17747624  0.99023765  1  0.043375  0  -0.012047  0.090153  0  3.966164  0
C  C187  1  0.84364025  0.82252390  0.49023799  1  0.043422  0  -0.012071  0.090161  0  3.966109  0
C  C188  1  0.36215161  0.66636537  0.42876192  1  -0.055442  0  -0.092556  -0.130359  0  3.975208  0
C  C189  1  0.13784827  0.33363601  0.92876209  1  -0.055452  0  -0.09261  -0.130347  0  3.975215  0
C  C190  1  0.63784787  0.16636456  0.07123805  1  -0.055428  0  -0.092553  -0.13033  0  3.975176  0
C  C191  1  0.86215248  0.83363337  0.57123928  1  -0.05548  0  -0.092538  -0.130389  0  3.975207  0
C  C192  1  0.38737437  0.73609222  0.38192170  1  -0.071323  0  -0.093285  -0.122014  0  3.979988  0
C  C193  1  0.11262357  0.26390920  0.88192137  1  -0.071217  0  -0.09331  -0.122104  0  3.980128  0
C  C194  1  0.61262493  0.23609208  0.11807941  1  -0.071307  0  -0.093288  -0.122012  0  3.980079  0
C  C195  1  0.88737669  0.76390775  0.61807946  1  -0.07128  0  -0.093316  -0.122009  0  3.980151  0
C  C196  1  0.39377084  0.81861763  0.41475438  1  0.027267  0  -0.016029  0.076649  0  3.989373  0
C  C197  1  0.10622771  0.18138312  0.91475531  1  0.027297  0  -0.015953  0.076776  0  3.98927  0
C  C198  1  0.60622960  0.31861817  0.08524548  1  0.027284  0  -0.016002  0.076641  0  3.989392  0
C  C199  1  0.89377004  0.68138232  0.58524618  1  0.027273  0  -0.016001  0.076598  0  3.989377  0
C  C200  1  0.37688368  0.82951256  0.49582756  1  -0.14541  0  -0.089594  -0.124967  0  3.977251  0
C  C201  1  0.12311676  0.17048812  0.99582787  1  -0.145399  0  -0.089601  -0.124968  0  3.977274  0
C  C202  1  0.62311674  0.32951249  0.00417289  1  -0.145389  0  -0.089544  -0.12485  0  3.977324  0
C  C203  1  0.87688307  0.67048743  0.50417244  1  -0.145382  0  -0.089597  -0.124924  0  3.977373  0
C  C204  1  0.35258476  0.75936425  0.54302764  1  0.004616  0  -0.087478  -0.119686  0  3.972021  0
C  C205  1  0.14741523  0.24063618  0.04302812  1  0.004613  0  -0.087456  -0.119662  0  3.972104  0
C  C206  1  0.64741346  0.25936373  0.95697200  1  0.004625  0  -0.087496  -0.119728  0  3.971987  0
C  C207  1  0.85258543  0.74063580  0.45697179  1  0.004627  0  -0.087442  -0.119652  0  3.972093  0
C  C208  1  0.41706540  0.89464451  0.36268126  1  0.261759  0  -0.042093  -0.109519  0  3.886058  0
C  C209  1  0.08293394  0.10535564  0.86268169  1  0.261782  0  -0.042097  -0.109518  0  3.885979  0
C  C210  1  0.58293485  0.39464570  0.13731913  1  0.261567  0  -0.042119  -0.109477  0  3.885932  0
C  C211  1  0.91706469  0.60535474  0.63731867  1  0.261578  0  -0.042095  -0.109427  0  3.885974  0
C  C212  1  0.32343204  0.87762382  0.23642600  1  0.310428  0  0.004189  -0.112603  0  3.931938  0
C  C213  1  0.17656756  0.12237580  0.73642627  1  0.310723  0  0.004151  -0.112666  0  3.931964  0
C  C214  1  0.67656894  0.37762468  0.26357382  1  0.357033  0  0.004177  -0.11264  0  3.932043  0
C  C215  1  0.82343034  0.62237566  0.76357408  1  0.310745  0  0.004173  -0.11263  0  3.932051  0
C  C216  1  0.27079807  0.96901531  0.32612645  1  0.983027  0  0.149585  0.098711  0  3.902348  0
C  C217  1  0.22920135  0.03098487  0.82612611  1  0.983257  0  0.149535  0.098753  0  3.902504  0
C  C218  1  0.72920198  0.46901548  0.17387389  1  0.983013  0  0.149563  0.098715  0  3.902436  0
C  C219  1  0.77079748  0.53098429  0.67387311  1  0.98302  0  0.149606  0.098765  0  3.902282  0
C  C220  1  0.24066968  0.90914525  0.21192666  1  0.425835  0  0.003265  -0.029492  0  4.011374  0
C  C221  1  0.25933064  0.09085567  0.71192682  1  0.425846  0  0.003298  -0.029411  0  4.011317  0
C  C222  1  0.75933052  0.40914589  0.28807372  1  0.379527  0  0.003278  -0.029431  0  4.01138  0
C  C223  1  0.74066802  0.59085442  0.78807295  1  0.425801  0  0.003291  -0.029379  0  4.011414  0
C  C224  1  0.70936213  0.83129873  0.80828595  1  0.323766  0  -0.00914  -0.045703  0  4.00375  0
C  C225  1  0.79063774  0.16870093  0.30828507  1  0.323544  0  -0.009114  -0.045639  0  4.003654  0
C  C226  1  0.29063727  0.33129928  0.69171483  1  0.323532  0  -0.009132  -0.04565  0  4.003658  0
C  C227  1  0.20936174  0.66870166  0.19171490  1  0.323679  0  -0.009065  -0.045555  0  4.003584  0
C  C228  1  0.63753520  0.79456711  0.76860931  1  0.299224  0  -0.000572  -0.10584  0  3.898169  0
C  C229  1  0.86246475  0.20543194  0.26860889  1  0.299226  0  -0.000587  -0.105927  0  3.898167  0
C  C230  1  0.36246498  0.29456810  0.73139090  1  0.299724  0  -0.000568  -0.105874  0  3.898172  0
C  C231  1  0.13753463  0.70543281  0.23139105  1  0.29921  0  -0.000582  -0.105891  0  3.898127  0
C  C232  1  0.69235090  0.90233950  0.69702085  1  0.964866  0  0.139303  0.087292  0  3.905316  0
C  C233  1  0.80764852  0.09765961  0.19702059  1  0.964855  0  0.139307  0.0873  0  3.905224  0
C  C234  1  0.30764899  0.40234056  0.80297988  1  0.964837  0  0.139307  0.087302  0  3.905198  0
C  C235  1  0.19235115  0.59766093  0.30298002  1  0.964846  0  0.139385  0.087406  0  3.905229  0
C  C236  1  0.56072198  0.82271049  0.63637526  1  0.258659  0  -0.050656  -0.125181  0  3.877584  0
C  C237  1  0.93927755  0.17728803  0.13637474  1  0.258655  0  -0.05065  -0.125274  0  3.877697  0
C  C238  1  0.43927812  0.32271183  0.86362434  1  0.258674  0  -0.05068  -0.125325  0  3.877694  0
C  C239  1  0.06072122  0.67728897  0.36362523  1  0.258672  0  -0.050613  -0.125121  0  3.877584  0
C  C240  1  0.59337115  0.76265338  0.57196519  1  -0.061256  0  -0.012426  0.091619  0  3.964761  0
C  C241  1  0.90662784  0.23734584  0.07196467  1  -0.061272  0  -0.01236  0.091708  0  3.964723  0
C  C242  1  0.40662979  0.26265345  0.92803505  1  -0.061292  0  -0.012404  0.09174  0  3.964613  0
C  C243  1  0.09336941  0.73734664  0.42803584  1  -0.061303  0  -0.012465  0.091566  0  3.964714  0
C  C244  1  0.60651314  0.67532549  0.58809445  1  0.014707  0  -0.093262  -0.121583  0  3.962249  0
C  C245  1  0.89348513  0.32467308  0.08809389  1  0.014713  0  -0.093268  -0.121615  0  3.962293  0
C  C246  1  0.39348735  0.17532625  0.91190526  1  0.014701  0  -0.093291  -0.121652  0  3.962314  0
C  C247  1  0.10651120  0.82467322  0.41190656  1  0.014726  0  -0.093193  -0.121496  0  3.962084  0
C  C248  1  0.62796156  0.61836508  0.52696297  1  0.032954  0  -0.096506  -0.139755  0  4.007818  0
C  C249  1  0.87203820  0.38163354  0.02696181  1  0.032959  0  -0.096496  -0.139709  0  4.007785  0
C  C250  1  0.37203840  0.11836647  0.97303678  1  0.032948  0  -0.096493  -0.139733  0  4.007808  0
C  C251  1  0.12795935  0.88163486  0.47303741  1  0.032917  0  -0.096553  -0.139776  0  4.007721  0
C  C252  1  0.63745179  0.64768854  0.44889105  1  -0.103301  0  -0.019611  0.075785  0  3.99578  0
C  C253  1  0.86254779  0.35231099  0.94888907  1  -0.103261  0  -0.019578  0.075837  0  3.995651  0
C  C254  1  0.36254842  0.14768969  0.05110953  1  -0.103249  0  -0.019646  0.075744  0  3.995855  0
C  C255  1  0.13745018  0.85231137  0.55110932  1  -0.103078  0  -0.019606  0.075779  0  3.995724  0
C  C256  1  0.62679817  0.73536400  0.43307414  1  -0.037795  0  -0.092449  -0.123423  0  3.978559  0
C  C257  1  0.87320145  0.26463426  0.93307281  1  -0.037366  0  -0.092515  -0.123576  0  3.97851  0
C  C258  1  0.37320250  0.23536511  0.06692637  1  -0.037807  0  -0.092426  -0.123356  0  3.978495  0
C  C259  1  0.12679608  0.76463530  0.56692743  1  -0.037378  0  -0.092479  -0.123479  0  3.978492  0
C  C260  1  0.60492808  0.79222997  0.49408329  1  -0.032864  0  -0.089471  -0.123591  0  3.97354  0
C  C261  1  0.89507141  0.20776888  0.99408256  1  -0.033299  0  -0.089488  -0.123598  0  3.973531  0
C  C262  1  0.39507175  0.29222980  0.00591599  1  -0.032885  0  -0.089487  -0.123695  0  3.973524  0
C  C263  1  0.10492627  0.70777002  0.50591772  1  -0.033294  0  -0.089412  -0.123533  0  3.973322  0
C  C264  1  0.65995234  0.58490996  0.38340614  1  0.282655  0  -0.042772  -0.110264  0  3.89108  0
C  C265  1  0.84004942  0.41508899  0.88340356  1  0.282655  0  -0.042776  -0.11023  0  3.891083  0
C  C266  1  0.34004736  0.08491046  0.11659389  1  0.282656  0  -0.042808  -0.110367  0  3.891299  0
C  C267  1  0.15995112  0.91508991  0.61659419  1  0.282496  0  -0.042769  -0.110253  0  3.891053  0
C  C268  1  0.51310046  0.54490636  0.31512557  1  0.973041  0  0.145716  0.090927  0  3.907811  0
C  C269  1  0.98690076  0.45509394  0.81512510  1  0.972988  0  0.145712  0.090998  0  3.908086  0
C  C270  1  0.48689935  0.04490581  0.18487509  1  0.973045  0  0.145754  0.090967  0  3.907855  0
C  C271  1  0.01309967  0.95509321  0.68487558  1  0.972998  0  0.145651  0.090842  0  3.907802  0
C  C272  1  0.52005043  0.62740998  0.21017651  1  0.320882  0  -0.006977  -0.048766  0  3.994988  0
C  C273  1  0.97995442  0.37259169  0.71017434  1  0.320839  0  -0.007017  -0.048942  0  3.994949  0
C  C274  1  0.47994985  0.12740871  0.28982409  1  0.32088  0  -0.006977  -0.048779  0  3.994992  0
C  C275  1  0.02005101  0.87259086  0.78982582  1  0.32084  0  -0.007029  -0.048926  0  3.995088  0
C  C276  1  0.59893652  0.64019559  0.25234489  1  0.309683  0  0.00164  -0.101346  0  3.927994  0
C  C277  1  0.90106824  0.35980540  0.75234226  1  0.30935  0  0.001737  -0.100965  0  3.927654  0
C  C278  1  0.40106372  0.14019519  0.24765569  1  0.309707  0  0.001716  -0.101211  0  3.927865  0
C  C279  1  0.09893654  0.85980377  0.74765731  1  0.309755  0  0.001734  -0.101132  0  3.927859  0
N  N280  1  0.49669620  0.48658250  0.65022017  1  -1.24636  0  -0.363458  -0.295229  0  3.637615  0
N  N281  1  0.00330357  0.51341783  0.15022127  1  -1.246643  0  -0.363464  -0.295266  0  3.637547  0
N  N282  1  0.50330346  0.98658304  0.84977930  1  -1.246389  0  -0.363484  -0.295281  0  3.637591  0
N  N283  1  0.99669564  0.01341658  0.34977882  1  -1.246641  0  -0.363514  -0.29531  0  3.63752  0
N  N284  1  0.38336519  0.54243868  0.58175545  1  -1.231871  0  -0.236489  0.061177  0  3.761832  0
N  N285  1  0.11663540  0.45756236  0.08175582  1  -1.232002  0  -0.236512  0.06112  0  3.761823  0
N  N286  1  0.61663360  0.04243891  0.91824495  1  -1.231896  0  -0.236536  0.061058  0  3.761867  0
N  N287  1  0.88336536  0.95756130  0.41824334  1  -1.231886  0  -0.236467  0.061246  0  3.761908  0
N  N288  1  0.34155941  0.91623920  0.30874893  1  -1.213279  0  -0.236458  0.044583  0  3.769479  0
N  N289  1  0.15843935  0.08376035  0.80874866  1  -1.213294  0  -0.236415  0.044519  0  3.769572  0
N  N290  1  0.65844009  0.41624145  0.19125205  1  -1.213084  0  -0.236436  0.04456  0  3.769506  0
N  N291  1  0.84155933  0.58376024  0.69125112  1  -1.213078  0  -0.236487  0.044434  0  3.769565  0
N  N292  1  0.20856911  0.96605556  0.26839355  1  -1.223553  0  -0.35635  -0.291815  0  3.614082  0
N  N293  1  0.29143042  0.03394467  0.76839430  1  -1.223774  0  -0.356343  -0.291856  0  3.614118  0
N  N294  1  0.79143095  0.46605682  0.23160679  1  -1.223575  0  -0.35635  -0.291842  0  3.614128  0
N  N295  1  0.70856771  0.53394418  0.73160551  1  -1.223627  0  -0.356373  -0.291881  0  3.614094  0
N  N296  1  0.74286330  0.89851867  0.76304136  1  -1.255513  0  -0.367041  -0.298758  0  3.650481  0
N  N297  1  0.75713598  0.10148039  0.26304059  1  -1.255431  0  -0.367043  -0.29876  0  3.650483  0
N  N298  1  0.25713660  0.39851990  0.73695937  1  -1.255401  0  -0.367059  -0.29882  0  3.650408  0
N  N299  1  0.24286368  0.60148164  0.23696002  1  -1.255387  0  -0.367139  -0.298915  0  3.650516  0
N  N300  1  0.62812894  0.84002228  0.69861835  1  -1.232436  0  -0.235964  0.0645  0  3.761632  0
N  N301  1  0.87187115  0.15997747  0.19861735  1  -1.23242  0  -0.235952  0.064668  0  3.761496  0
N  N302  1  0.37187111  0.34002254  0.80138183  1  -1.23291  0  -0.235949  0.064661  0  3.761567  0
N  N303  1  0.12812903  0.65997830  0.30138263  1  -1.232423  0  -0.236015  0.064517  0  3.761584  0
N  N304  1  0.59370187  0.58753325  0.31818791  1  -1.225093  0  -0.237559  0.048665  0  3.772282  0
N  N305  1  0.90630139  0.41246640  0.81818701  1  -1.225007  0  -0.237614  0.048432  0  3.772373  0
N  N306  1  0.40629850  0.08753354  0.18181212  1  -1.225015  0  -0.237605  0.048605  0  3.772318  0
N  N307  1  0.09370189  0.91246612  0.68181371  1  -1.225129  0  -0.237562  0.048631  0  3.772108  0
N  N308  1  0.46716835  0.56755273  0.25003796  1  -1.248254  0  -0.358636  -0.291467  0  3.621668  0
N  N309  1  0.03283327  0.43244880  0.75003881  1  -1.248402  0  -0.358664  -0.291496  0  3.621955  0
N  N310  1  0.53283140  0.06755202  0.24996208  1  -1.248287  0  -0.358635  -0.291472  0  3.621752  0
N  N311  1  0.96716859  0.93244705  0.74996367  1  -1.248224  0  -0.358562  -0.29138  0  3.621662  0
O  O312  1  0.53586920  0.50588077  0.84159815  1  -1.179809  0  -0.338607  -0.561475  0  2.310152  0
O  O313  1  0.96413060  0.49411757  0.34159914  1  -1.179789  0  -0.338588  -0.561437  0  2.310143  0
O  O314  1  0.46413105  0.00588159  0.65840109  1  -1.1798  0  -0.33865  -0.561533  0  2.310077  0
O  O315  1  0.03587007  0.99411746  0.15840237  1  -1.179734  0  -0.338625  -0.561494  0  2.310088  0
O  O316  1  0.51109046  0.63789993  0.78995439  1  -1.171289  0  -0.318209  -0.553952  0  2.166603  0
O  O317  1  0.98890944  0.36209846  0.28995425  1  -1.17132  0  -0.318211  -0.553978  0  2.166553  0
O  O318  1  0.48890876  0.13790064  0.71004594  1  -1.17135  0  -0.318204  -0.553954  0  2.166656  0
O  O319  1  0.01109089  0.86209836  0.21004617  1  -1.171347  0  -0.318244  -0.554034  0  2.166521  0
O  O320  1  0.37578805  0.50336796  0.09576662  1  -1.165325  0  -0.340637  -0.565928  0  2.298324  0
O  O321  1  0.12421251  0.49663049  0.59576372  1  -1.165614  0  -0.340674  -0.565934  0  2.298302  0
O  O322  1  0.62421119  0.00337011  0.40423407  1  -1.165783  0  -0.340644  -0.565904  0  2.298306  0
O  O323  1  0.87578781  0.99663139  0.90423753  1  -1.165138  0  -0.34067  -0.565875  0  2.298196  0
O  O324  1  0.37343052  0.64716605  0.07270011  1  -1.176178  0  -0.333542  -0.557824  0  2.079913  0
O  O325  1  0.12657419  0.35283242  0.57269969  1  -1.176331  0  -0.333486  -0.557733  0  2.080105  0
O  O326  1  0.62657311  0.14716753  0.42729988  1  -1.176297  0  -0.333467  -0.557696  0  2.080108  0
O  O327  1  0.87342924  0.85283395  0.92730226  1  -1.176398  0  -0.333507  -0.55781  0  2.080065  0
O  O328  1  0.62321010  0.34981345  0.75944478  1  -1.164158  0  -0.336951  -0.558188  0  2.278284  0
O  O329  1  0.87679055  0.65018689  0.25944460  1  -1.164172  0  -0.336969  -0.55819  0  2.278255  0
O  O330  1  0.37678992  0.84981374  0.74055480  1  -1.160787  0  -0.336957  -0.558186  0  2.278386  0
O  O331  1  0.12320966  0.15018716  0.24055598  1  -1.164147  0  -0.336945  -0.558188  0  2.278313  0
O  O332  1  0.67054179  0.35368174  0.63143461  1  -1.170994  0  -0.335612  -0.566687  0  2.08529  0
O  O333  1  0.82945776  0.64631615  0.13143391  1  -1.171033  0  -0.335617  -0.56672  0  2.085258  0
O  O334  1  0.32945823  0.85368267  0.86856496  1  -1.170964  0  -0.335573  -0.566647  0  2.085243  0
O  O335  1  0.17054178  0.14631618  0.36856607  1  -1.170959  0  -0.335617  -0.566709  0  2.085212  0
O  O336  1  0.82604788  0.05288721  0.63198509  1  -1.192991  0  -0.326604  -0.572169  0  2.138196  0
O  O337  1  0.67395304  0.94711260  0.13198441  1  -1.192811  0  -0.326555  -0.572092  0  2.138174  0
O  O338  1  0.17395431  0.55288787  0.86801412  1  -1.192938  0  -0.326573  -0.572124  0  2.138203  0
O  O339  1  0.32604366  0.44711356  0.36801298  1  -1.192908  0  -0.326542  -0.572095  0  2.138179  0
O  O340  1  0.81121027  0.09336319  0.76030045  1  -1.16359  0  -0.341193  -0.562482  0  2.314339  0
O  O341  1  0.68879106  0.90663522  0.26029978  1  -1.163508  0  -0.341156  -0.562418  0  2.314306  0
O  O342  1  0.18878976  0.59336521  0.73969932  1  -1.163444  0  -0.341195  -0.562495  0  2.31433  0
O  O343  1  0.31120983  0.40663569  0.23969823  1  -1.16352  0  -0.341152  -0.562412  0  2.314133  0
