# generated using pymatgen
data_AgH4C4N3O2
_symmetry_space_group_name_H-M   'P 1'
_cell_length_a   6.39986495
_cell_length_b   7.26605569
_cell_length_c   12.77279190
_cell_angle_alpha   90.00278738
_cell_angle_beta   90.00145851
_cell_angle_gamma   90.00028899
_symmetry_Int_Tables_number   1
_chemical_formula_structural   AgH4C4N3O2
_chemical_formula_sum   'Ag4 H16 C16 N12 O8'
_cell_volume   593.95749584
_cell_formula_units_Z   4
loop_
 _symmetry_equiv_pos_site_id
 _symmetry_equiv_pos_as_xyz
  1  'x, y, z'
loop_
 _atom_site_type_symbol
 _atom_site_label
 _atom_site_symmetry_multiplicity
 _atom_site_fract_x
 _atom_site_fract_y
 _atom_site_fract_z
 _atom_site_occupancy
 _atom_site_hle17_bader_spin_density
 _atom_site_hle17_ddec_charge
 _atom_site_hle17_ddec_spin_density
 _atom_site_hle17_ddec_sum_bond_order
 _atom_site_hle17_magmom
 _atom_site_hse06_10hf_bader_spin_density
 _atom_site_hse06_10hf_ddec_charge
 _atom_site_hse06_10hf_ddec_spin_density
 _atom_site_hse06_10hf_ddec_sum_bond_order
 _atom_site_hse06_10hf_magmom
 _atom_site_hse06_bader_spin_density
 _atom_site_hse06_ddec_charge
 _atom_site_hse06_ddec_spin_density
 _atom_site_hse06_ddec_sum_bond_order
 _atom_site_hse06_magmom
 _atom_site_pbe_bader_spin_density
 _atom_site_pbe_cm5_charge
 _atom_site_pbe_ddec_charge
 _atom_site_pbe_ddec_spin_density
 _atom_site_pbe_ddec_sum_bond_order
 _atom_site_pbe_magmom
Ag  Ag0  1  0.90121390  0.14331341  0.83126932  1  0  0.537493  0  1.450681  0  0  0.388905  0  1.915846  0  0  0.419546  0  1.867882  0  0  0.458173  0.366998  0  1.949601  0
Ag  Ag1  1  0.09878776  0.85671422  0.33124943  1  0  0.53754  0  1.4507  0  0  0.388863  0  1.915978  0  0  0.4195  0  1.867993  0  0  0.458185  0.366975  0  1.94972  0
Ag  Ag2  1  0.09878209  0.64329925  0.83125461  1  0  0.53758  0  1.45066  0  0  0.388911  0  1.915885  0  0  0.419558  0  1.867899  0  0  0.458207  0.367008  0  1.949636  0
Ag  Ag3  1  0.90121332  0.35671324  0.33127666  1  0  0.537588  0  1.450777  0  0  0.388946  0  1.916032  0  0  0.419576  0  1.868036  0  0  0.458217  0.367059  0  1.949777  0
H  H4  1  0.41296689  0.05650607  0.75423011  1  0  0.11737  0  0.934076  0  0  0.128884  0  0.990737  0  0  0.131366  0  0.987838  0  0  0.141377  0.127027  0  0.992898  0
H  H5  1  0.58703404  0.94351774  0.25422991  1  0  0.117471  0  0.93389  0  0  0.128967  0  0.990585  0  0  0.131451  0  0.987687  0  0  0.141326  0.127104  0  0.992751  0
H  H6  1  0.58703381  0.55649964  0.75421468  1  0  0.117545  0  0.933891  0  0  0.128832  0  0.990818  0  0  0.131315  0  0.987919  0  0  0.141296  0.126972  0  0.992978  0
H  H7  1  0.41296868  0.44351041  0.25423672  1  0  0.11744  0  0.933875  0  0  0.128968  0  0.990524  0  0  0.131432  0  0.987647  0  0  0.141328  0.127101  0  0.992696  0
H  H8  1  0.59595401  0.30638708  0.03837404  1  0  0.128362  0  0.957974  0  0  0.137282  0  1.020269  0  0  0.140863  0  1.01584  0  0  0.141646  0.134508  0  1.023603  0
H  H9  1  0.40406581  0.69360456  0.53835500  1  0  0.128398  0  0.958077  0  0  0.137299  0  1.020388  0  0  0.14088  0  1.015955  0  0  0.141637  0.134523  0  1.023711  0
H  H10  1  0.40405071  0.80638446  0.03837425  1  0  0.128447  0  0.958026  0  0  0.137217  0  1.020498  0  0  0.140798  0  1.016072  0  0  0.14163  0.134456  0  1.023829  0
H  H11  1  0.59595974  0.19362232  0.53837357  1  0  0.128413  0  0.957952  0  0  0.137256  0  1.020341  0  0  0.140837  0  1.015917  0  0  0.141633  0.13449  0  1.023658  0
H  H12  1  0.99729643  0.27516367  0.02693783  1  0  0.103128  0  0.942378  0  0  0.111006  0  1.023817  0  0  0.114703  0  1.018452  0  0  0.113258  0.108126  0  1.0281  0
H  H13  1  0.00273846  0.72486278  0.52693559  1  0  0.103158  0  0.942333  0  0  0.110985  0  1.023756  0  0  0.114693  0  1.018391  0  0  0.113218  0.108116  0  1.028051  0
H  H14  1  0.00273869  0.77510669  0.02694145  1  0  0.103185  0  0.942278  0  0  0.111024  0  1.023791  0  0  0.114711  0  1.018427  0  0  0.113251  0.108143  0  1.028082  0
H  H15  1  0.99727119  0.22480002  0.52691866  1  0  0.102948  0  0.942398  0  0  0.110843  0  1.023882  0  0  0.11454  0  1.018565  0  0  0.113143  0.107974  0  1.028178  0
H  H16  1  0.19148647  0.39366778  0.09943994  1  0  0.130619  0  0.924507  0  0  0.14514  0  0.982434  0  0  0.147341  0  0.981217  0  0  0.124337  0.143501  0  0.983465  0
H  H17  1  0.80853954  0.60632219  0.59943076  1  0  0.130525  0  0.924481  0  0  0.144939  0  0.982469  0  0  0.147159  0  0.981244  0  0  0.124283  0.143318  0  0.983486  0
H  H18  1  0.80856118  0.89366448  0.09944148  1  0  0.130471  0  0.924691  0  0  0.145046  0  0.982557  0  0  0.147253  0  0.981327  0  0  0.124316  0.143409  0  0.983589  0
H  H19  1  0.19149139  0.10630622  0.59943627  1  0  0.130602  0  0.924276  0  0  0.14509  0  0.98226  0  0  0.147344  0  0.981033  0  0  0.124291  0.143463  0  0.983295  0
C  C20  1  0.40713773  0.12015598  0.83091426  1  0  0.225151  0  3.665812  0  0  0.162903  0  3.946639  0  0  0.177066  0  3.95935  0  0  0.151883  0.153341  0  3.938087  0
C  C21  1  0.59289672  0.87985236  0.33091473  1  0  0.224816  0  3.665943  0  0  0.162521  0  3.946743  0  0  0.176681  0  3.959465  0  0  0.151866  0.15297  0  3.938181  0
C  C22  1  0.59290177  0.62015093  0.83090596  1  0  0.224745  0  3.665571  0  0  0.162601  0  3.946388  0  0  0.176763  0  3.959101  0  0  0.151871  0.153041  0  3.937832  0
C  C23  1  0.40711393  0.37982988  0.33091207  1  0  0.22512  0  3.665675  0  0  0.162815  0  3.94647  0  0  0.176993  0  3.959197  0  0  0.152018  0.15326  0  3.937912  0
C  C24  1  0.50719713  0.24365148  0.97480138  1  0  0.17766  0  3.601709  0  0  0.098436  0  3.868183  0  0  0.114073  0  3.877956  0  0  0.163351  0.088275  0  3.861508  0
C  C25  1  0.49276482  0.75637601  0.47478851  1  0  0.177566  0  3.601162  0  0  0.098352  0  3.867752  0  0  0.11398  0  3.877561  0  0  0.163291  0.088236  0  3.861018  0
C  C26  1  0.49276476  0.74363250  0.97479491  1  0  0.177621  0  3.600946  0  0  0.098554  0  3.86754  0  0  0.114194  0  3.877316  0  0  0.163364  0.088383  0  3.860855  0
C  C27  1  0.50720969  0.25637572  0.47480202  1  0  0.177415  0  3.60145  0  0  0.098331  0  3.867951  0  0  0.113969  0  3.877714  0  0  0.163275  0.088179  0  3.861274  0
C  C28  1  0.15444192  0.26283169  0.06053174  1  0  -0.181843  0  3.627099  0  0  -0.25678  0  3.876003  0  0  -0.257496  0  3.881587  0  0  -0.056809  -0.256298  0  3.872541  0
C  C29  1  0.84557432  0.73717422  0.56052511  1  0  -0.181822  0  3.626846  0  0  -0.256387  0  3.875472  0  0  -0.257186  0  3.881171  0  0  -0.05665  -0.255945  0  3.872065  0
C  C30  1  0.84558226  0.76282020  0.06053455  1  0  -0.181749  0  3.626981  0  0  -0.256634  0  3.875935  0  0  -0.257375  0  3.881581  0  0  -0.05676  -0.256166  0  3.872493  0
C  C31  1  0.15443868  0.23713893  0.56052544  1  0  -0.181461  0  3.626439  0  0  -0.256319  0  3.875418  0  0  -0.257155  0  3.881143  0  0  -0.056504  -0.255884  0  3.872021  0
C  C32  1  0.15999962  0.10644774  0.14263225  1  0  0.66029  0  3.925045  0  0  0.61693  0  4.218434  0  0  0.648238  0  4.216181  0  0  0.191887  0.595741  0  4.218838  0
C  C33  1  0.83997386  0.89356243  0.64263302  1  0  0.659796  0  3.924989  0  0  0.616386  0  4.218445  0  0  0.647703  0  4.216198  0  0  0.191724  0.595201  0  4.21884  0
C  C34  1  0.83997878  0.60643210  0.14263812  1  0  0.660044  0  3.925227  0  0  0.616718  0  4.218619  0  0  0.648023  0  4.216371  0  0  0.191751  0.595523  0  4.219029  0
C  C35  1  0.15998063  0.39356430  0.64262246  1  0  0.65992  0  3.924931  0  0  0.616508  0  4.218472  0  0  0.647862  0  4.216225  0  0  0.191792  0.595316  0  4.218874  0
N  N36  1  0.29819892  0.23136679  0.97502455  1  0  0.061742  0  3.592404  0  0  0.178279  0  3.771639  0  0  0.167205  0  3.798642  0  0  -0.139042  0.185212  0  3.753761  0
N  N37  1  0.70178492  0.76862769  0.47502021  1  0  0.062139  0  3.591693  0  0  0.178429  0  3.771114  0  0  0.167361  0  3.798125  0  0  -0.13889  0.185345  0  3.753315  0
N  N38  1  0.70179725  0.73135918  0.97503097  1  0  0.061867  0  3.591801  0  0  0.178128  0  3.771376  0  0  0.167045  0  3.798373  0  0  -0.139071  0.185106  0  3.753425  0
N  N39  1  0.29820691  0.26860640  0.47502710  1  0  0.062217  0  3.591979  0  0  0.178448  0  3.771564  0  0  0.167426  0  3.798601  0  0  -0.138937  0.185399  0  3.753696  0
N  N40  1  0.23225114  0.15067259  0.88415094  1  0  -0.285623  0  3.144047  0  0  -0.240111  0  3.447984  0  0  -0.255509  0  3.459238  0  0  -0.249583  -0.229461  0  3.440608  0
N  N41  1  0.76777660  0.84933341  0.38416691  1  0  -0.285679  0  3.144092  0  0  -0.240037  0  3.447948  0  0  -0.25543  0  3.45921  0  0  -0.249593  -0.229387  0  3.440569  0
N  N42  1  0.76777881  0.65065821  0.88417309  1  0  -0.28555  0  3.143893  0  0  -0.239826  0  3.447635  0  0  -0.255217  0  3.458895  0  0  -0.249496  -0.22919  0  3.440255  0
N  N43  1  0.23222862  0.34929962  0.38415886  1  0  -0.285854  0  3.14371  0  0  -0.240171  0  3.447617  0  0  -0.255576  0  3.458861  0  0  -0.249634  -0.229519  0  3.44024  0
N  N44  1  0.58044610  0.17544424  0.88422087  1  0  -0.387882  0  3.300674  0  0  -0.310312  0  3.630002  0  0  -0.332545  0  3.639748  0  0  -0.363894  -0.295067  0  3.62307  0
N  N45  1  0.41955508  0.82456451  0.38420189  1  0  -0.387818  0  3.300629  0  0  -0.310145  0  3.629857  0  0  -0.332375  0  3.639601  0  0  -0.363897  -0.2949  0  3.622918  0
N  N46  1  0.41955595  0.67543339  0.88420171  1  0  -0.387807  0  3.300379  0  0  -0.310138  0  3.629528  0  0  -0.332365  0  3.63927  0  0  -0.363869  -0.2949  0  3.622608  0
N  N47  1  0.58045148  0.32458225  0.38421322  1  0  -0.387994  0  3.300374  0  0  -0.310336  0  3.629636  0  0  -0.332567  0  3.639379  0  0  -0.36397  -0.295093  0  3.622705  0
O  O48  1  0.00106336  0.10011798  0.20263055  1  0  -0.652999  0  2.043563  0  0  -0.577502  0  2.312794  0  0  -0.606661  0  2.300017  0  0  -0.345201  -0.556739  0  2.320646  0
O  O49  1  0.99890843  0.89992346  0.70264686  1  0  -0.65285  0  2.04326  0  0  -0.577347  0  2.312485  0  0  -0.606541  0  2.299789  0  0  -0.345203  -0.556582  0  2.320347  0
O  O50  1  0.99891017  0.60011500  0.20265178  1  0  -0.652929  0  2.043325  0  0  -0.577469  0  2.312643  0  0  -0.606606  0  2.299808  0  0  -0.345202  -0.556706  0  2.320506  0
O  O51  1  0.00104756  0.39992093  0.70262876  1  0  -0.652918  0  2.043545  0  0  -0.57736  0  2.312683  0  0  -0.606542  0  2.299956  0  0  -0.345195  -0.556609  0  2.320574  0
O  O52  1  0.31642124  0.00209011  0.14481224  1  0  -0.633568  0  1.937371  0  0  -0.583115  0  2.165244  0  0  -0.608232  0  2.157702  0  0  -0.33142  -0.565234  0  2.169556  0
O  O53  1  0.68353672  0.99791061  0.64482092  1  0  -0.633235  0  1.937354  0  0  -0.582825  0  2.165255  0  0  -0.607928  0  2.157715  0  0  -0.331324  -0.56496  0  2.169607  0
O  O54  1  0.68357036  0.50207420  0.14481451  1  0  -0.633322  0  1.937642  0  0  -0.582915  0  2.165499  0  0  -0.608024  0  2.157954  0  0  -0.331265  -0.565034  0  2.169814  0
O  O55  1  0.31641416  0.49792239  0.64480612  1  0  -0.633488  0  1.937216  0  0  -0.583012  0  2.165114  0  0  -0.608121  0  2.157545  0  0  -0.331416  -0.565123  0  2.169429  0
