# generated using pymatgen
data_Zr6H30C55O43
_symmetry_space_group_name_H-M   'P 1'
_cell_length_a   14.74256328
_cell_length_b   14.75499034
_cell_length_c   14.81164794
_cell_angle_alpha   60.08780498
_cell_angle_beta   59.90909558
_cell_angle_gamma   60.01026895
_symmetry_Int_Tables_number   1
_chemical_formula_structural   Zr6H30C55O43
_chemical_formula_sum   'Zr6 H30 C55 O43'
_cell_volume   2278.35670503
_cell_formula_units_Z   1
loop_
 _symmetry_equiv_pos_site_id
 _symmetry_equiv_pos_as_xyz
  1  'x, y, z'
loop_
 _atom_site_type_symbol
 _atom_site_label
 _atom_site_symmetry_multiplicity
 _atom_site_fract_x
 _atom_site_fract_y
 _atom_site_fract_z
 _atom_site_occupancy
 _atom_site_pbe_bader_charge
 _atom_site_pbe_bader_spin_density
 _atom_site_pbe_cm5_charge
 _atom_site_pbe_ddec_charge
 _atom_site_pbe_ddec_spin_density
 _atom_site_pbe_ddec_sum_bond_order
 _atom_site_pbe_magmom
Zr  Zr0  1  0.88064742  0.88179570  0.61900199  1  2.63475  0  1.631715  2.371752  0  2.76445  0
Zr  Zr1  1  0.12311176  0.11791628  0.38064762  1  2.631329  0  1.628355  2.37335  0  2.745634  0
Zr  Zr2  1  0.12088776  0.87964667  0.61952327  1  2.638599  0  1.631297  2.377749  0  2.748416  0
Zr  Zr3  1  0.88288911  0.12068494  0.37915305  1  2.639395  0  1.631105  2.373253  0  2.761102  0
Zr  Zr4  1  0.12114770  0.88031200  0.37943832  1  2.638482  0  1.630911  2.378679  0  2.744504  0
Zr  Zr5  1  0.88144154  0.12074709  0.61876831  1  2.638093  0  1.631614  2.37844  0  2.743091  0
H  H6  1  0.09468401  0.71808193  0.59294941  1  0.595865  0  0.32895  0.417442  0  0.865249  0
H  H7  1  0.09943275  0.09166102  0.21725872  1  0.598696  0  0.332089  0.423978  0  0.855058  0
H  H8  1  0.09547314  0.09551162  0.59326316  1  0.599891  0  0.326806  0.415203  0  0.870669  0
H  H9  1  0.71864673  0.09711929  0.59313712  1  0.603482  0  0.331825  0.422187  0  0.859183  0
H  H10  1  0.85229665  0.58586253  0.64452707  1  0.098202  0  0.114976  0.122969  0  0.985474  0
H  H11  1  0.12235387  0.61006029  0.33552558  1  0.101218  0  0.115383  0.13095  0  0.992283  0
H  H12  1  0.85533204  0.41531807  0.64182674  1  0.122965  0  0.112517  0.125608  0  1.002334  0
H  H13  1  0.57736539  0.86397258  0.90684335  1  0.099304  0  0.111736  0.116544  0  0.99411  0
H  H14  1  0.61442225  0.11745954  0.93790173  1  0.156328  0  0.112897  0.133103  0  1.022791  0
H  H15  1  0.41010093  0.86216675  0.07993119  1  0.127998  0  0.113902  0.126271  0  0.990174  0
H  H16  1  0.13462809  0.84242317  0.09526091  1  0.137105  0  0.117535  0.12702  0  0.977799  0
H  H17  1  0.85042121  0.14011282  0.09225329  1  0.089157  0  0.117024  0.128498  0  0.985276  0
H  H18  1  0.13113127  0.84352987  0.92687634  1  0.115517  0  0.116166  0.129048  0  0.986696  0
H  H19  1  0.60599292  0.43836347  0.62216017  1  0.111336  0  0.119076  0.128606  0  0.972741  0
H  H20  1  0.59104480  0.41362174  0.35322183  1  0.112309  0  0.113677  0.121943  0  0.997634  0
H  H21  1  0.43662789  0.60834457  0.61913051  1  0.151019  0  0.114424  0.131141  0  1.011124  0
H  H22  1  0.17119609  0.55834138  0.88353425  1  0.104093  0  0.115647  0.143688  0  0.979187  0
H  H23  1  0.73595899  0.65079505  0.98541300  1  0.054015  0  0.098942  0.111953  0  0.983294  0
H  H24  1  0.79199358  0.56614969  0.90370290  1  0.027163  0  0.09428  0.100192  0  0.988562  0
H  H25  1  0.79540043  0.39677118  0.07459604  1  0.039882  0  0.096121  0.104448  0  0.984239  0
H  H26  1  0.73978462  0.48217661  0.15539374  1  0.068655  0  0.099158  0.114041  0  0.986158  0
H  H27  1  0.58031090  0.15079031  0.35826422  1  0.095144  0  0.114875  0.122756  0  0.980391  0
H  H28  1  0.59946218  0.84698756  0.63334909  1  0.115738  0  0.115749  0.127378  0  0.985619  0
H  H29  1  0.41119552  0.14579527  0.36116323  1  0.183738  0  0.113104  0.123204  0  1.009378  0
H  H30  1  0.26228090  0.37750717  0.34129891  1  0.605392  0  0.336338  0.366127  0  0.878321  0
H  H31  1  0.37195005  0.26119143  0.04398794  1  0.641462  0  0.331277  0.372153  0  0.89172  0
H  H32  1  0.92252376  0.24834276  0.80770115  1  0.582416  0  0.334945  0.36406  0  0.882413  0
H  H33  1  0.29585110  0.52718325  0.43882992  1  0.6154  0  0.332724  0.364129  0  0.88219  0
H  H34  1  0.30162584  0.90259504  0.74936119  1  0.600746  0  0.33372  0.365467  0  0.885674  0
H  H35  1  0.17771973  0.32833830  0.12542903  1  0.639698  0  0.31136  0.356466  0  0.960278  0
C  C36  1  0.99326348  0.70266414  0.49519191  1  1.564128  0  0.235967  0.634366  0  4.108476  0
C  C37  1  0.31370147  0.99214606  0.20228117  1  1.53188  0  0.238732  0.642224  0  4.095215  0
C  C38  1  0.99575542  0.31096593  0.49265144  1  1.571435  0  0.23558  0.634679  0  4.10855  0
C  C39  1  0.70060998  0.99716119  0.80649184  1  1.537216  0  0.240149  0.641746  0  4.090983  0
C  C40  1  0.00121459  0.69683164  0.80127898  1  1.530702  0  0.238563  0.648193  0  4.096421  0
C  C41  1  0.69959128  0.00018134  0.49597945  1  1.573775  0  0.238539  0.641398  0  4.099913  0
C  C42  1  0.00517197  0.30308318  0.19299853  1  1.510038  0  0.234726  0.658043  0  4.090272  0
C  C43  1  0.30771928  0.99733034  0.49932336  1  1.551022  0  0.235837  0.636452  0  4.110014  0
C  C44  1  0.31108614  0.70087569  0.49302972  1  1.548315  0  0.235499  0.633853  0  4.115088  0
C  C45  1  0.99578773  0.99575848  0.80909867  1  1.574998  0  0.232394  0.62937  0  4.121691  0
C  C46  1  0.70449348  0.31100866  0.49267289  1  1.553593  0  0.239625  0.640623  0  4.099725  0
C  C47  1  0.99693578  0.99519935  0.20014953  1  1.575324  0  0.238452  0.639204  0  4.099022  0
C  C48  1  0.99070136  0.41706557  0.48766921  1  -0.057843  0  -0.00907  -0.055306  0  3.938448  0
C  C49  1  0.98953943  0.60510983  0.49174351  1  -0.112585  0  -0.011865  -0.026746  0  3.969078  0
C  C50  1  0.06464887  0.47345450  0.39875893  1  -0.060049  0  -0.008252  -0.06817  0  3.991456  0
C  C51  1  0.91212227  0.55257491  0.57723661  1  0.041285  0  -0.07502  -0.085384  0  3.954236  0
C  C52  1  0.06468097  0.56620452  0.40238152  1  0.026979  0  -0.0775  -0.123185  0  3.942501  0
C  C53  1  0.91359015  0.45857619  0.57531173  1  0.015313  0  -0.077628  -0.086804  0  3.952671  0
C  C54  1  0.41735752  0.99036236  0.10381156  1  0.029179  0  -0.00791  -0.0572  0  3.933319  0
C  C55  1  0.60250470  0.99386039  0.91043726  1  -0.027747  0  -0.01043  -0.0262  0  3.961901  0
C  C56  1  0.47612139  0.06142463  0.06547006  1  -0.066294  0  -0.003968  -0.058341  0  3.961537  0
C  C57  1  0.54713091  0.91978990  0.95114845  1  -0.034662  0  -0.077655  -0.091888  0  3.966559  0
C  C58  1  0.56749498  0.06391988  0.96784159  1  0.024491  0  -0.073385  -0.114455  0  3.90918  0
C  C59  1  0.45461058  0.91884410  0.04689382  1  -0.033606  0  -0.073738  -0.079254  0  3.951124  0
C  C60  1  0.99200763  0.99478247  0.91250846  1  -0.110233  0  -0.01165  -0.065515  0  3.949327  0
C  C61  1  0.99401700  0.99273013  0.10173376  1  0.017081  0  -0.007853  -0.02306  0  3.951051  0
C  C62  1  0.91102374  0.07872055  0.95955685  1  -0.031636  0  -0.006683  -0.066826  0  3.978869  0
C  C63  1  0.07285501  0.90805818  0.05639330  1  -0.035122  0  -0.071819  -0.082101  0  3.944442  0
C  C64  1  0.91262649  0.07650030  0.05421256  1  0.001737  0  -0.071764  -0.110558  0  3.92712  0
C  C65  1  0.07118705  0.90914559  0.96282140  1  0.011609  0  -0.075133  -0.082811  0  3.95053  0
C  C66  1  0.41539042  0.60300877  0.48838943  1  0.009373  0  -0.010652  -0.06401  0  3.94313  0
C  C67  1  0.60633609  0.41514829  0.48932248  1  -0.002843  0  -0.009234  -0.026409  0  3.964217  0
C  C68  1  0.45956442  0.54972847  0.41102355  1  -0.087226  0  -0.009496  -0.071687  0  3.987184  0
C  C69  1  0.56414521  0.46999434  0.56393870  1  -0.022163  0  -0.068208  -0.075456  0  3.926195  0
C  C70  1  0.55533200  0.45630974  0.41201290  1  -0.047303  0  -0.076423  -0.11978  0  3.95131  0
C  C71  1  0.46948327  0.56370789  0.56286128  1  0.019584  0  -0.068226  -0.06799  0  3.920605  0
C  C72  1  0.00529126  0.59194486  0.89624068  1  0.005118  0  -0.013666  -0.064718  0  4.016859  0
C  C73  1  0.00834775  0.39774155  0.08977999  1  -0.003228  0  -0.031108  -0.228191  0  3.967569  0
C  C74  1  0.91563009  0.55217814  0.95782624  1  -0.023267  0  -0.017048  0.030318  0  3.912293  0
C  C75  1  0.10283679  0.43425190  0.02286430  1  0.582861  0  0.097318  0.326295  0  4.033233  0
C  C76  1  0.91768451  0.45851732  0.05188193  1  -0.071826  0  -0.003594  0.084905  0  3.912274  0
C  C77  1  0.09957304  0.53020302  0.92930438  1  0.010039  0  -0.095021  -0.219574  0  3.914124  0
C  C78  1  0.79873998  0.57310882  0.97045208  1  0.019313  0  -0.148991  -0.188265  0  3.876776  0
C  C79  1  0.80096174  0.46668878  0.07765157  1  -0.031206  0  -0.149124  -0.194577  0  3.8656  0
C  C80  1  0.40764541  0.99704684  0.50182940  1  -0.038009  0  -0.010873  -0.065609  0  3.94174  0
C  C81  1  0.59781030  0.00004682  0.49722688  1  -0.033496  0  -0.009451  -0.026056  0  3.967559  0
C  C82  1  0.46061906  0.91086324  0.57934089  1  -0.045391  0  -0.007561  -0.066153  0  3.975647  0
C  C83  1  0.54520007  0.08522790  0.42039487  1  -0.011728  0  -0.07292  -0.081959  0  3.943344  0
C  C84  1  0.55585734  0.91330687  0.57573896  1  -0.018491  0  -0.074633  -0.113946  0  3.938547  0
C  C85  1  0.45073868  0.08329877  0.42297460  1  -0.03616  0  -0.071657  -0.065397  0  3.949738  0
C  C86  1  0.13647849  0.44620021  0.29320525  1  1.565602  0  0.233899  0.583519  0  4.136262  0
C  C87  1  0.45563200  0.12453592  0.13220357  1  1.554726  0  0.236817  0.593717  0  4.124296  0
C  C88  1  0.81797676  0.17126252  0.91695907  1  1.548982  0  0.236909  0.587734  0  4.120376  0
C  C89  1  0.41247151  0.58619233  0.32367975  1  1.557425  0  0.234809  0.592004  0  4.112791  0
C  C90  1  0.42670497  0.81044830  0.66451561  1  1.561226  0  0.236976  0.590968  0  4.115842  0
O  O91  1  0.91834033  0.74008296  0.57398175  1  -1.177446  0  -0.351549  -0.611827  0  2.287607  0
O  O92  1  0.27270806  0.07029294  0.24097306  1  -1.174987  0  -0.350571  -0.621025  0  2.322584  0
O  O93  1  0.07549025  0.26885328  0.41842115  1  -1.182501  0  -0.34468  -0.613335  0  2.313641  0
O  O94  1  0.73822747  0.92212266  0.76492881  1  -1.181872  0  -0.356791  -0.620719  0  2.286935  0
O  O95  1  0.07770373  0.73744317  0.76229293  1  -1.175558  0  -0.36103  -0.61987  0  2.27879  0
O  O96  1  0.73859192  0.07767126  0.41964500  1  -1.184036  0  -0.353325  -0.616772  0  2.279658  0
O  O97  1  0.92523344  0.26594022  0.23789666  1  -1.18313  0  -0.351903  -0.605527  0  2.280724  0
O  O98  1  0.26831715  0.91970658  0.57510404  1  -1.183293  0  -0.351021  -0.622202  0  2.334626  0
O  O99  1  0.26843428  0.73727295  0.41939525  1  -1.181038  0  -0.349743  -0.618785  0  2.32908  0
O  O100  1  0.92096186  0.07475175  0.76759612  1  -1.178172  0  -0.344105  -0.611775  0  2.324126  0
O  O101  1  0.74161999  0.27004708  0.57137025  1  -1.175482  0  -0.351869  -0.612923  0  2.279343  0
O  O102  1  0.07556769  0.91948539  0.23759685  1  -1.182316  0  -0.350561  -0.614305  0  2.271182  0
O  O103  1  0.07449913  0.92009654  0.76867160  1  -1.181586  0  -0.347438  -0.610007  0  2.283465  0
O  O104  1  0.74227155  0.26931381  0.41794845  1  -1.185173  0  -0.3542  -0.616254  0  2.29065  0
O  O105  1  0.92189517  0.07406540  0.23780485  1  -1.181912  0  -0.351125  -0.616029  0  2.280967  0
O  O106  1  0.27070795  0.73913613  0.57067157  1  -1.171341  0  -0.345184  -0.596758  0  2.283175  0
O  O107  1  0.92152245  0.73911006  0.76444477  1  -1.171387  0  -0.352168  -0.611185  0  2.267727  0
O  O108  1  0.26736657  0.07536629  0.42400544  1  -1.167944  0  -0.346593  -0.598439  0  2.296765  0
O  O109  1  0.08423593  0.26217596  0.23202611  1  -1.174306  0  -0.34901  -0.625948  0  2.309254  0
O  O110  1  0.73902492  0.92342827  0.57264649  1  -1.181323  0  -0.355184  -0.616291  0  2.295004  0
O  O111  1  0.73929428  0.07527915  0.76551396  1  -1.173063  0  -0.352521  -0.609573  0  2.2751  0
O  O112  1  0.07281405  0.73945130  0.42017035  1  -1.182912  0  -0.353824  -0.616572  0  2.297584  0
O  O113  1  0.27084101  0.91849750  0.23884707  1  -1.173645  0  -0.350258  -0.607919  0  2.277407  0
O  O114  1  0.92236877  0.26825919  0.57322698  1  -1.178947  0  -0.352359  -0.612471  0  2.296961  0
O  O115  1  0.79924336  0.06970196  0.56593831  1  -1.22941  0  -0.69486  -1.069464  0  2.368582  0
O  O116  1  0.06863787  0.06751877  0.56777714  1  -1.234077  0  -0.695278  -1.071545  0  2.376105  0
O  O117  1  0.07091114  0.06584682  0.29740552  1  -1.226771  0  -0.696967  -1.074062  0  2.370967  0
O  O118  1  0.06857100  0.79842532  0.56560465  1  -1.226418  0  -0.694576  -1.070145  0  2.374445  0
O  O119  1  0.15134614  0.94955905  0.45027847  1  -1.196168  0  -0.789891  -1.146889  0  2.123481  0
O  O120  1  0.95162033  0.95130292  0.44950333  1  -1.203065  0  -0.790669  -1.148941  0  2.123415  0
O  O121  1  0.95348792  0.14935095  0.44932064  1  -1.195864  0  -0.790439  -1.148263  0  2.122049  0
O  O122  1  0.95153058  0.95122518  0.64822724  1  -1.201216  0  -0.791705  -1.149608  0  2.129017  0
O  O123  1  0.24732512  0.39432209  0.27641551  1  -1.089065  0  -0.326636  -0.455418  0  2.221989  0
O  O124  1  0.09943673  0.47679292  0.22192844  1  -1.100533  0  -0.267519  -0.430759  0  2.089259  0
O  O125  1  0.40224303  0.23530170  0.10160592  1  -1.130918  0  -0.328646  -0.463464  0  2.245222  0
O  O126  1  0.49384581  0.07869155  0.20638174  1  -1.108634  0  -0.270631  -0.444876  0  2.09172  0
O  O127  1  0.84231663  0.26419021  0.83571813  1  -1.083179  0  -0.335206  -0.479381  0  2.243859  0
O  O128  1  0.72336253  0.17066790  0.95855850  1  -1.1065  0  -0.258474  -0.424665  0  2.094595  0
O  O129  1  0.32570819  0.55204001  0.35813956  1  -1.113668  0  -0.341601  -0.490765  0  2.240736  0
O  O130  1  0.45468682  0.63133396  0.22615730  1  -1.117367  0  -0.271348  -0.437276  0  2.048009  0
O  O131  1  0.34130726  0.82364342  0.75973160  1  -1.088934  0  -0.337221  -0.48048  0  2.235741  0
O  O132  1  0.47947207  0.71854259  0.65611606  1  -1.114616  0  -0.269893  -0.44081  0  2.071223  0
O  O133  1  0.19814470  0.37788752  0.04721107  1  -1.147046  0  -0.355234  -0.462502  0  2.316832  0
