# generated using pymatgen
data_UH26C12S2(NO5)2
_symmetry_space_group_name_H-M   'P 1'
_cell_length_a   8.45800678
_cell_length_b   8.98447206
_cell_length_c   16.01726960
_cell_angle_alpha   79.07324453
_cell_angle_beta   74.89830318
_cell_angle_gamma   61.93650363
_symmetry_Int_Tables_number   1
_chemical_formula_structural   UH26C12S2(NO5)2
_chemical_formula_sum   'U2 H52 C24 S4 N4 O20'
_cell_volume   1033.75504513
_cell_formula_units_Z   2
loop_
 _symmetry_equiv_pos_site_id
 _symmetry_equiv_pos_as_xyz
  1  'x, y, z'
loop_
 _atom_site_type_symbol
 _atom_site_label
 _atom_site_symmetry_multiplicity
 _atom_site_fract_x
 _atom_site_fract_y
 _atom_site_fract_z
 _atom_site_occupancy
 _atom_site_hle17_bader_spin_density
 _atom_site_hle17_ddec_charge
 _atom_site_hle17_ddec_spin_density
 _atom_site_hle17_ddec_sum_bond_order
 _atom_site_hle17_magmom
 _atom_site_hse06_10hf_bader_spin_density
 _atom_site_hse06_10hf_ddec_charge
 _atom_site_hse06_10hf_ddec_spin_density
 _atom_site_hse06_10hf_ddec_sum_bond_order
 _atom_site_hse06_10hf_magmom
 _atom_site_hse06_bader_spin_density
 _atom_site_hse06_ddec_charge
 _atom_site_hse06_ddec_spin_density
 _atom_site_hse06_ddec_sum_bond_order
 _atom_site_hse06_magmom
 _atom_site_pbe_bader_charge
 _atom_site_pbe_bader_spin_density
 _atom_site_pbe_cm5_charge
 _atom_site_pbe_ddec_charge
 _atom_site_pbe_ddec_spin_density
 _atom_site_pbe_ddec_sum_bond_order
 _atom_site_pbe_magmom
U  U0  1  0.50000620  0.99999694  0.50000025  1  0  2.330658  0  4.181785  0  0  2.381329  0  4.841615  0  0  2.495433  0  4.802686  0  2.862646  0  2.128049  2.302291  0  4.867928  0
U  U1  1  0.00000858  0.49996494  0.99999727  1  0  2.33181  0  4.185296  0  0  2.381624  0  4.84597  0  0  2.496029  0  4.806732  0  2.869524  0  2.127775  2.3013  0  4.874175  0
H  H2  1  0.41799750  0.48163404  0.42947980  1  0  0.079726  0  0.953822  0  0  0.099265  0  1.014393  0  0  0.099101  0  1.016076  0  0.043656  0  0.098319  0.099351  0  1.013527  0
H  H3  1  0.32931378  0.01840808  0.07006450  1  0  0.081131  0  0.952354  0  0  0.099671  0  1.01397  0  0  0.099566  0  1.015622  0  0.041969  0  0.09869  0.099763  0  1.012774  0
H  H4  1  0.58200975  0.51838821  0.57051955  1  0  0.079841  0  0.954076  0  0  0.09929  0  1.014695  0  0  0.099124  0  1.016384  0  0.044224  0  0.098375  0.099378  0  1.013827  0
H  H5  1  0.67071821  0.98157621  0.92993601  1  0  0.081097  0  0.952334  0  0  0.099635  0  1.013944  0  0  0.099514  0  1.015619  0  0.041719  0  0.098663  0.099724  0  1.012747  0
H  H6  1  0.46305182  0.65313576  0.43186586  1  0  0.086989  0  0.943415  0  0  0.102246  0  1.006028  0  0  0.103921  0  1.005408  0  0.068909  0  0.098554  0.100925  0  1.00679  0
H  H7  1  0.54802128  0.84689951  0.06819356  1  0  0.086481  0  0.943039  0  0  0.101906  0  1.005509  0  0  0.103592  0  1.004945  0  0.068448  0  0.098413  0.100534  0  1.006125  0
H  H8  1  0.53694861  0.34689281  0.56813335  1  0  0.086889  0  0.943562  0  0  0.102169  0  1.006112  0  0  0.103844  0  1.005493  0  0.069133  0  0.098509  0.100849  0  1.006875  0
H  H9  1  0.45201431  0.15308099  0.93179796  1  0  0.086642  0  0.942941  0  0  0.102029  0  1.005428  0  0  0.103717  0  1.004862  0  0.068575  0  0.098484  0.100656  0  1.006044  0
H  H10  1  0.19874768  0.54855423  0.57316690  1  0  0.126346  0  0.92559  0  0  0.141123  0  0.983664  0  0  0.141991  0  0.984276  0  0.103552  0  0.115958  0.14094  0  0.982346  0
H  H11  1  0.32015023  0.95120901  0.92630651  1  0  0.12673  0  0.924864  0  0  0.141343  0  0.982958  0  0  0.142205  0  0.983591  0  0.100214  0  0.116093  0.140688  0  0.982587  0
H  H12  1  0.80126107  0.45144904  0.42682979  1  0  0.126317  0  0.925679  0  0  0.141184  0  0.98369  0  0  0.142058  0  0.984304  0  0.10337  0  0.115938  0.14097  0  0.982399  0
H  H13  1  0.67985324  0.04880185  0.07369397  1  0  0.126757  0  0.924828  0  0  0.141295  0  0.983017  0  0  0.142161  0  0.983656  0  0.100366  0  0.116112  0.140644  0  0.982647  0
H  H14  1  0.13103034  0.71866544  0.49058837  1  0  0.122211  0  0.91789  0  0  0.13927  0  0.969704  0  0  0.14083  0  0.969676  0  0.066252  0  0.115152  0.138179  0  0.96978  0
H  H15  1  0.34105598  0.78092320  0.00877552  1  0  0.122552  0  0.916517  0  0  0.139548  0  0.968376  0  0  0.141086  0  0.968372  0  0.070716  0  0.11528  0.138359  0  0.968435  0
H  H16  1  0.86897253  0.28134795  0.50941138  1  0  0.122253  0  0.917698  0  0  0.139228  0  0.969678  0  0  0.140795  0  0.969657  0  0.066497  0  0.115152  0.138134  0  0.969744  0
H  H17  1  0.65894998  0.21907628  0.99122348  1  0  0.122566  0  0.916545  0  0  0.139573  0  0.968362  0  0  0.141126  0  0.96835  0  0.07062  0  0.115299  0.138388  0  0.968422  0
H  H18  1  0.91723795  0.92752359  0.59166766  1  0  0.129918  0  0.9339  0  0  0.143013  0  0.99379  0  0  0.145888  0  0.991966  0  0.125728  0  0.112987  0.140983  0  0.994983  0
H  H19  1  0.43665874  0.57237757  0.90726708  1  0  0.130617  0  0.932159  0  0  0.14273  0  0.993452  0  0  0.145588  0  0.991634  0  0.121103  0  0.112712  0.140862  0  0.994479  0
H  H20  1  0.08275947  0.07247462  0.40833932  1  0  0.130014  0  0.933812  0  0  0.143072  0  0.993718  0  0  0.145948  0  0.991892  0  0.125547  0  0.112992  0.141037  0  0.994908  0
H  H21  1  0.56332427  0.42764468  0.09272831  1  0  0.130678  0  0.932213  0  0  0.142845  0  0.993444  0  0  0.145721  0  0.991628  0  0.120929  0  0.1127  0.140946  0  0.994511  0
H  H22  1  0.96317593  0.76395497  0.67867420  1  0  0.11811  0  0.932634  0  0  0.133253  0  0.991512  0  0  0.134349  0  0.991865  0  0.097749  0  0.109779  0.132439  0  0.991138  0
H  H23  1  0.40570356  0.73575134  0.82016890  1  0  0.117007  0  0.934607  0  0  0.132587  0  0.99285  0  0  0.13366  0  0.993138  0  0.080836  0  0.109494  0.131786  0  0.992814  0
H  H24  1  0.03682002  0.23604451  0.32133114  1  0  0.117969  0  0.932797  0  0  0.133148  0  0.991609  0  0  0.134242  0  0.991963  0  0.097578  0  0.109762  0.132334  0  0.991234  0
H  H25  1  0.59429465  0.26425699  0.17981974  1  0  0.117174  0  0.934524  0  0  0.132734  0  0.992776  0  0  0.133824  0  0.99307  0  0.080699  0  0.109547  0.131929  0  0.992738  0
H  H26  1  0.99776960  0.09055627  0.67716913  1  0  0.076399  0  0.946403  0  0  0.095094  0  1.005058  0  0  0.09595  0  1.005468  0  0.018969  0  0.094843  0.094111  0  1.005077  0
H  H27  1  0.76517547  0.40934415  0.82270506  1  0  0.075118  0  0.946349  0  0  0.093876  0  1.005506  0  0  0.094867  0  1.005789  0  0.041941  0  0.094485  0.093171  0  1.005186  0
H  H28  1  0.00221036  0.90945206  0.32283900  1  0  0.076281  0  0.946465  0  0  0.095008  0  1.005095  0  0  0.095861  0  1.005506  0  0.027207  0  0.094813  0.094027  0  1.005113  0
H  H29  1  0.23480513  0.59063888  0.17729350  1  0  0.07505  0  0.946498  0  0  0.093866  0  1.005538  0  0  0.094861  0  1.005839  0  0.04163  0  0.094427  0.093157  0  1.005216  0
H  H30  1  0.79346576  0.07259482  0.72436499  1  0  0.085919  0  0.924451  0  0  0.103871  0  0.982306  0  0  0.105175  0  0.981832  0  0.051698  0  0.096011  0.102766  0  0.982861  0
H  H31  1  0.59085884  0.42712466  0.77455073  1  0  0.085517  0  0.923328  0  0  0.103749  0  0.981037  0  0  0.105019  0  0.98061  0  0.058961  0  0.095945  0.102801  0  0.98148  0
H  H32  1  0.20652044  0.92739959  0.27564291  1  0  0.085948  0  0.924423  0  0  0.103849  0  0.982324  0  0  0.105147  0  0.981855  0  0.051833  0  0.096033  0.102743  0  0.982882  0
H  H33  1  0.40911233  0.57289758  0.22544054  1  0  0.085518  0  0.923226  0  0  0.103716  0  0.980948  0  0  0.104982  0  0.980549  0  0.059667  0  0.09594  0.102769  0  0.981382  0
H  H34  1  0.16117185  0.82891275  0.77627926  1  0  0.043644  0  0.969241  0  0  0.059915  0  1.038193  0  0  0.060501  0  1.038705  0  0.010249  0  0.078053  0.059301  0  1.038111  0
H  H35  1  0.76645773  0.67075180  0.72401554  1  0  0.042357  0  0.968291  0  0  0.059035  0  1.037278  0  0  0.05956  0  1.037862  0  -0.000198  0  0.07776  0.058314  0  1.037305  0
H  H36  1  0.83882405  0.17108672  0.22372244  1  0  0.043607  0  0.969282  0  0  0.05989  0  1.038242  0  0  0.060476  0  1.038755  0  0.010164  0  0.078036  0.059291  0  1.038143  0
H  H37  1  0.23354433  0.32923882  0.27598829  1  0  0.042391  0  0.968245  0  0  0.059092  0  1.037213  0  0  0.059626  0  1.03779  0  -0.00028  0  0.077758  0.058369  0  1.037243  0
H  H38  1  0.94532921  0.84160951  0.82868657  1  0  0.050561  0  0.968313  0  0  0.06423  0  1.042195  0  0  0.064649  0  1.042977  0  0.006465  0  0.084153  0.063982  0  1.041257  0
H  H39  1  0.61617015  0.65840552  0.67069996  1  0  0.04934  0  0.971044  0  0  0.06317  0  1.044924  0  0  0.06359  0  1.04566  0  0.004319  0  0.084062  0.062784  0  1.044506  0
H  H40  1  0.05467156  0.15838870  0.17131951  1  0  0.050576  0  0.968215  0  0  0.064247  0  1.042114  0  0  0.064669  0  1.042892  0  0.006512  0  0.084159  0.063997  0  1.041176  0
H  H41  1  0.38383240  0.34160408  0.32929596  1  0  0.049364  0  0.971104  0  0  0.063151  0  1.045041  0  0  0.063585  0  1.045764  0  0.00431  0  0.084062  0.062765  0  1.044623  0
H  H42  1  0.03142095  0.98482537  0.91311704  1  0  0.098118  0  0.957874  0  0  0.122342  0  1.01477  0  0  0.1234  0  1.014902  0  0.024567  0  0.086636  0.121325  0  1.015297  0
H  H43  1  0.92936840  0.51502645  0.58706547  1  0  0.098279  0  0.956316  0  0  0.122357  0  1.013987  0  0  0.123444  0  1.014033  0  0.056688  0  0.086669  0.121806  0  1.013249  0
H  H44  1  0.96858488  0.01516399  0.08688736  1  0  0.098239  0  0.957863  0  0  0.122448  0  1.014751  0  0  0.123507  0  1.014883  0  0.024419  0  0.086685  0.12143  0  1.015278  0
H  H45  1  0.07063476  0.48497936  0.41293549  1  0  0.098284  0  0.956289  0  0  0.122389  0  1.013939  0  0  0.123475  0  1.013985  0  0.0567  0  0.086691  0.121842  0  1.013198  0
H  H46  1  0.85004861  0.14242887  0.86418707  1  0  0.085698  0  0.97379  0  0  0.110174  0  1.033249  0  0  0.110895  0  1.034356  0  0.04246  0  0.084046  0.10951  0  1.032653  0
H  H47  1  0.85730453  0.35722355  0.63569383  1  0  0.085475  0  0.974259  0  0  0.109861  0  1.034045  0  0  0.110491  0  1.035244  0  -0.017471  0  0.08395  0.109099  0  1.033496  0
H  H48  1  0.14995491  0.85756681  0.13582371  1  0  0.0857  0  0.973784  0  0  0.110167  0  1.033252  0  0  0.11089  0  1.034354  0  0.04268  0  0.083995  0.109504  0  1.032656  0
H  H49  1  0.14269955  0.64277845  0.36430206  1  0  0.085545  0  0.97416  0  0  0.109919  0  1.033968  0  0  0.110547  0  1.03517  0  -0.017458  0  0.083982  0.109157  0  1.033421  0
H  H50  1  0.07687993  0.11229575  0.81918484  1  0  0.096024  0  0.955274  0  0  0.113153  0  1.023793  0  0  0.115336  0  1.022597  0  0.020814  0  0.08308  0.112028  0  1.023484  0
H  H51  1  0.00849799  0.38786025  0.68123251  1  0  0.09671  0  0.954632  0  0  0.113889  0  1.022834  0  0  0.116019  0  1.021736  0  0.036478  0  0.082757  0.112251  0  1.023548  0
H  H52  1  0.92312413  0.88769740  0.18082304  1  0  0.096044  0  0.955198  0  0  0.113193  0  1.023694  0  0  0.115377  0  1.022499  0  0.02096  0  0.083079  0.112066  0  1.023388  0
H  H53  1  0.99150460  0.61213796  0.31876806  1  0  0.096725  0  0.954672  0  0  0.113914  0  1.022872  0  0  0.116042  0  1.02178  0  0.03648  0  0.082774  0.112293  0  1.023571  0
C  C54  1  0.42676618  0.55684160  0.47329820  1  0  -0.105304  0  3.686569  0  0  -0.146189  0  3.94363  0  0  -0.147115  0  3.957788  0  0.008942  0  -0.164386  -0.145514  0  3.934197  0
C  C55  1  0.45697329  0.94320379  0.02651440  1  0  -0.1059  0  3.682217  0  0  -0.146214  0  3.939516  0  0  -0.147246  0  3.953979  0  -0.025993  0  -0.164566  -0.145265  0  3.929124  0
C  C56  1  0.57323880  0.44318318  0.52670088  1  0  -0.10538  0  3.687048  0  0  -0.146091  0  3.943993  0  0  -0.147011  0  3.958172  0  -0.014601  0  -0.164334  -0.145424  0  3.934545  0
C  C57  1  0.54305294  0.05678050  0.97348081  1  0  -0.106178  0  3.682372  0  0  -0.14644  0  3.939612  0  0  -0.147447  0  3.954062  0  -0.002308  0  -0.164654  -0.145478  0  3.92922  0
C  C58  1  0.23697817  0.64142211  0.52916234  1  0  -0.226213  0  3.58575  0  0  -0.263931  0  3.85078  0  0  -0.266123  0  3.861442  0  -0.150483  0  -0.139805  -0.262063  0  3.842652  0
C  C59  1  0.40771161  0.85839681  0.97034411  1  0  -0.226398  0  3.584099  0  0  -0.263939  0  3.849498  0  0  -0.266238  0  3.860527  0  -0.137341  0  -0.140153  -0.262011  0  3.841689  0
C  C60  1  0.76302073  0.35859508  0.47083328  1  0  -0.226221  0  3.585678  0  0  -0.264097  0  3.8509  0  0  -0.266332  0  3.861616  0  -0.150578  0  -0.139833  -0.262175  0  3.842722  0
C  C61  1  0.59229704  0.14160267  0.02965098  1  0  -0.226418  0  3.584165  0  0  -0.2639  0  3.849478  0  0  -0.266238  0  3.860549  0  -0.137473  0  -0.140194  -0.261994  0  3.841692  0
C  C62  1  0.98948427  0.87186663  0.64606161  1  0  -0.231708  0  3.588344  0  0  -0.269837  0  3.85368  0  0  -0.271322  0  3.862065  0  -0.1967  0  -0.145118  -0.268629  0  3.847558  0
C  C63  1  0.50731168  0.62806995  0.85305898  1  0  -0.231129  0  3.587323  0  0  -0.269229  0  3.853882  0  0  -0.270699  0  3.862427  0  -0.174158  0  -0.145171  -0.268404  0  3.848327  0
C  C64  1  0.01050486  0.12813917  0.35394357  1  0  -0.231812  0  3.58844  0  0  -0.269859  0  3.853615  0  0  -0.271364  0  3.862029  0  -0.196647  0  -0.145114  -0.268637  0  3.847487  0
C  C65  1  0.49267568  0.37193964  0.14693373  1  0  -0.23142  0  3.587721  0  0  -0.269569  0  3.854196  0  0  -0.271103  0  3.862867  0  -0.173816  0  -0.145279  -0.268719  0  3.84863  0
C  C66  1  0.94323580  0.00011134  0.70940118  1  0  -0.099826  0  3.67763  0  0  -0.137236  0  3.929902  0  0  -0.137963  0  3.943409  0  0.018807  0  -0.167999  -0.136757  0  3.921106  0
C  C67  1  0.65277332  0.49972834  0.79000712  1  0  -0.099245  0  3.674642  0  0  -0.137317  0  3.928641  0  0  -0.138076  0  3.94206  0  -0.015075  0  -0.167468  -0.136574  0  3.919433  0
C  C68  1  0.05675097  0.99989066  0.29060710  1  0  -0.099683  0  3.677459  0  0  -0.137079  0  3.929757  0  0  -0.137795  0  3.943247  0  0.010564  0  -0.168023  -0.136609  0  3.920973  0
C  C69  1  0.34720696  0.50027493  0.20998491  1  0  -0.09917  0  3.674723  0  0  -0.137153  0  3.928617  0  0  -0.137947  0  3.942156  0  -0.015413  0  -0.167381  -0.136397  0  3.91938  0
C  C70  1  0.01544705  0.91812280  0.79286888  1  0  -0.068146  0  3.718099  0  0  -0.101673  0  3.97716  0  0  -0.102406  0  3.992997  0  0.0161  0  -0.174005  -0.101157  0  3.966342  0
C  C71  1  0.72668483  0.58167713  0.70692239  1  0  -0.064775  0  3.716541  0  0  -0.098986  0  3.976257  0  0  -0.099654  0  3.992041  0  0.023637  0  -0.173295  -0.098186  0  3.965103  0
C  C72  1  0.98454829  0.08187794  0.20713641  1  0  -0.068081  0  3.717997  0  0  -0.101673  0  3.977124  0  0  -0.102409  0  3.992958  0  0.0164  0  -0.173948  -0.101158  0  3.966298  0
C  C73  1  0.27331837  0.41831981  0.29307824  1  0  -0.064831  0  3.716533  0  0  -0.099119  0  3.976338  0  0  -0.09978  0  3.992131  0  0.023653  0  -0.173322  -0.098326  0  3.96519  0
C  C74  1  0.99285841  0.04621568  0.85059849  1  0  -0.282555  0  3.703613  0  0  -0.356024  0  3.947508  0  0  -0.35832  0  3.958222  0  -0.083981  0  -0.247647  -0.35414  0  3.939964  0
C  C75  1  0.88991765  0.45368853  0.64948496  1  0  -0.283878  0  3.700612  0  0  -0.357449  0  3.945611  0  0  -0.359664  0  3.956353  0  -0.065131  0  -0.247926  -0.355427  0  3.937697  0
C  C76  1  0.00714530  0.95378379  0.14940521  1  0  -0.282734  0  3.703514  0  0  -0.356173  0  3.94738  0  0  -0.358469  0  3.958091  0  -0.084407  0  -0.247671  -0.35429  0  3.939841  0
C  C77  1  0.11008438  0.54631474  0.35051354  1  0  -0.283941  0  3.700524  0  0  -0.357533  0  3.945554  0  0  -0.359747  0  3.956296  0  -0.065182  0  -0.247987  -0.35553  0  3.937626  0
S  S78  1  0.23056306  0.78069419  0.59920806  1  0  0.661354  0  3.449605  0  0  0.626753  0  3.903845  0  0  0.64329  0  3.901413  0  1.095475  0  0.322006  0.615028  0  3.905312  0
S  S79  1  0.61002423  0.71958907  0.90035409  1  0  0.661489  0  3.45235  0  0  0.626508  0  3.906712  0  0  0.643099  0  3.904346  0  1.099225  0  0.322219  0.614834  0  3.907772  0
S  S80  1  0.76943184  0.21931794  0.40079542  1  0  0.661533  0  3.44956  0  0  0.62701  0  3.903837  0  0  0.643561  0  3.901405  0  1.095688  0  0.322122  0.615274  0  3.90529  0
S  S81  1  0.38997738  0.28040660  0.09963897  1  0  0.661405  0  3.452429  0  0  0.626423  0  3.906801  0  0  0.643045  0  3.904475  0  1.099303  0  0.322289  0.61476  0  3.907855  0
N  N82  1  0.53504128  0.96913377  0.31134511  1  0  0.686908  0  4.141388  0  0  0.723762  0  4.44065  0  0  0.75509  0  4.445262  0  0.816832  0  0.099198  0.716364  0  4.416833  0
N  N83  1  0.81690863  0.53015754  0.18854472  1  0  0.687545  0  4.138664  0  0  0.737881  0  4.41926  0  0  0.7561  0  4.442351  0  0.852678  0  0.098977  0.716376  0  4.415346  0
N  N84  1  0.46495594  0.03086823  0.68865763  1  0  0.686871  0  4.141757  0  0  0.723716  0  4.441056  0  0  0.755044  0  4.445665  0  0.817333  0  0.099227  0.716324  0  4.417206  0
N  N85  1  0.18308711  0.46983308  0.81145806  1  0  0.687519  0  4.138677  0  0  0.73789  0  4.419224  0  0  0.756098  0  4.44234  0  0.852988  0  0.09894  0.716384  0  4.415309  0
O  O86  1  0.33829922  0.22048830  0.48878454  1  0  -0.688291  0  1.57056  0  0  -0.690882  0  1.857394  0  0  -0.710877  0  1.845492  0  -0.866519  0  -0.762283  -0.679741  0  1.866055  0
O  O87  1  0.04753102  0.27950828  0.01106551  1  0  -0.689643  0  1.571752  0  0  -0.691769  0  1.85856  0  0  -0.711584  0  1.846498  0  -0.87005  0  -0.762188  -0.680247  0  1.867564  0
O  O88  1  0.66169516  0.77954281  0.51121450  1  0  -0.688246  0  1.571304  0  0  -0.690794  0  1.858118  0  0  -0.710778  0  1.846209  0  -0.866262  0  -0.762527  -0.679661  0  1.866789  0
O  O89  1  0.95249835  0.72040895  0.98893200  1  0  -0.689512  0  1.571641  0  0  -0.691577  0  1.858358  0  0  -0.711392  0  1.846304  0  -0.869138  0  -0.762176  -0.680054  0  1.867354  0
O  O90  1  0.42022834  0.93598050  0.37235044  1  0  -0.48227  0  1.839616  0  0  -0.488166  0  2.083948  0  0  -0.512279  0  2.081716  0  -0.550841  0  -0.199977  -0.475745  0  2.079497  0
O  O91  1  0.72958344  0.56356133  0.12735190  1  0  -0.482756  0  1.836939  0  0  -0.493227  0  2.07626  0  0  -0.512961  0  2.078972  0  -0.558595  0  -0.200144  -0.476057  0  2.076906  0
O  O92  1  0.57976604  0.06402783  0.62765062  1  0  -0.482273  0  1.839729  0  0  -0.488153  0  2.08406  0  0  -0.512281  0  2.081844  0  -0.551319  0  -0.199995  -0.475729  0  2.079604  0
O  O93  1  0.27040447  0.43642803  0.87264956  1  0  -0.482655  0  1.837011  0  0  -0.493126  0  2.076332  0  0  -0.512858  0  2.079057  0  -0.558935  0  -0.200096  -0.475958  0  2.076983  0
O  O94  1  0.63717355  0.01323955  0.33771220  1  0  -0.503368  0  1.856022  0  0  -0.515074  0  2.111889  0  0  -0.539975  0  2.111004  0  -0.558537  0  -0.204965  -0.502135  0  2.106429  0
O  O95  1  0.98910994  0.48643312  0.16240727  1  0  -0.503039  0  1.857837  0  0  -0.519444  0  2.109629  0  0  -0.540054  0  2.11379  0  -0.576664  0  -0.203623  -0.500882  0  2.107727  0
O  O96  1  0.36282922  0.98675740  0.66228763  1  0  -0.503429  0  1.856123  0  0  -0.515173  0  2.112023  0  0  -0.54007  0  2.111148  0  -0.558569  0  -0.205076  -0.502235  0  2.106554  0
O  O97  1  0.01088479  0.51358786  0.83758563  1  0  -0.502953  0  1.857993  0  0  -0.519367  0  2.109786  0  0  -0.539963  0  2.113953  0  -0.57648  0  -0.203558  -0.500816  0  2.107906  0
O  O98  1  0.54563841  0.96035675  0.23416280  1  0  -0.368874  0  1.759384  0  0  -0.364023  0  1.960813  0  0  -0.375637  0  1.954809  0  -0.454609  0  -0.132174  -0.360546  0  1.958621  0
O  O99  1  0.74224108  0.53833103  0.26569626  1  0  -0.370348  0  1.759673  0  0  -0.369611  0  1.955002  0  0  -0.376695  0  1.95455  0  -0.46292  0  -0.13296  -0.361463  0  1.958985  0
O  O100  1  0.45435664  0.03964399  0.76583664  1  0  -0.368743  0  1.759591  0  0  -0.363877  0  1.961015  0  0  -0.375503  0  1.955042  0  -0.45461  0  -0.132074  -0.360406  0  1.958808  0
O  O101  1  0.25777896  0.46162542  0.73430122  1  0  -0.370482  0  1.759444  0  0  -0.36977  0  1.954749  0  0  -0.376855  0  1.9543  0  -0.463022  0  -0.13309  -0.361624  0  1.958746  0
O  O102  1  0.25258620  0.92711365  0.53649025  1  0  -0.656128  0  1.993367  0  0  -0.634005  0  2.298892  0  0  -0.664999  0  2.295004  0  -1.196856  0  -0.40394  -0.61135  0  2.300332  0
O  O103  1  0.71627609  0.57306713  0.96307192  1  0  -0.655871  0  1.995257  0  0  -0.632978  0  2.299761  0  0  -0.664254  0  2.296167  0  -1.199517  0  -0.404276  -0.610288  0  2.300759  0
O  O104  1  0.74740185  0.07290228  0.46351442  1  0  -0.656086  0  1.993225  0  0  -0.634115  0  2.298972  0  0  -0.665051  0  2.294933  0  -1.196785  0  -0.403969  -0.611478  0  2.300461  0
O  O105  1  0.28371905  0.42692096  0.03692052  1  0  -0.655625  0  1.995167  0  0  -0.632777  0  2.299725  0  0  -0.664045  0  2.29612  0  -1.199434  0  -0.404282  -0.610111  0  2.300738  0
