# generated using pymatgen
data_FeH14(C11N6)2
_symmetry_space_group_name_H-M   'P 1'
_cell_length_a   8.73083198
_cell_length_b   16.36923599
_cell_length_c   16.36895186
_cell_angle_alpha   116.90917760
_cell_angle_beta   100.25426273
_cell_angle_gamma   100.23875782
_symmetry_Int_Tables_number   1
_chemical_formula_structural   FeH14(C11N6)2
_chemical_formula_sum   'Fe3 H42 C66 N36'
_cell_volume   1961.81855662
_cell_formula_units_Z   3
loop_
 _symmetry_equiv_pos_site_id
 _symmetry_equiv_pos_as_xyz
  1  'x, y, z'
loop_
 _atom_site_type_symbol
 _atom_site_label
 _atom_site_symmetry_multiplicity
 _atom_site_fract_x
 _atom_site_fract_y
 _atom_site_fract_z
 _atom_site_occupancy
 _atom_site_pbe_bader_charge
 _atom_site_pbe_bader_spin_density
 _atom_site_pbe_cm5_charge
 _atom_site_pbe_ddec_charge
 _atom_site_pbe_ddec_spin_density
 _atom_site_pbe_ddec_sum_bond_order
 _atom_site_pbe_magmom
Fe  Fe0  1  0.50000150  0.50000021  0.00000017  1  1.136493  0  0.817671  0.295246  0  3.811776  0
Fe  Fe1  1  0.49999961  0.00000043  0.50000072  1  1.124125  0  0.817201  0.295519  0  3.810312  0
Fe  Fe2  1  0.99999807  0.49999920  0.49999934  1  1.130545  0  0.816941  0.294527  0  3.811129  0
H  H3  1  0.47857623  0.40355640  0.12588932  1  0.166773  0  0.12055  0.089391  0  1.071048  0
H  H4  1  0.35262463  0.87399672  0.27757506  1  0.162474  0  0.120734  0.089862  0  1.071255  0
H  H5  1  0.07502260  0.72231230  0.59636346  1  0.182057  0  0.120771  0.08999  0  1.071491  0
H  H6  1  0.52142381  0.59644335  0.87411029  1  0.166754  0  0.120557  0.089385  0  1.071056  0
H  H7  1  0.64737424  0.12600303  0.72242689  1  0.162482  0  0.120724  0.08986  0  1.071273  0
H  H8  1  0.92497511  0.27768746  0.40363593  1  0.182084  0  0.12078  0.090031  0  1.071489  0
H  H9  1  0.62617618  0.29412055  0.15211832  1  0.08779  0  0.114005  0.090305  0  0.994321  0
H  H10  1  0.47413003  0.84781501  0.14199200  1  0.118867  0  0.113675  0.090143  0  0.99408  0
H  H11  1  0.33208869  0.85799268  0.70580385  1  0.075794  0  0.113658  0.090419  0  0.993876  0
H  H12  1  0.37382431  0.70587777  0.84788069  1  0.087841  0  0.114033  0.090356  0  0.994298  0
H  H13  1  0.52586813  0.15218331  0.85800862  1  0.118867  0  0.113668  0.090093  0  0.994108  0
H  H14  1  0.66790901  0.14200708  0.29419615  1  0.075789  0  0.113661  0.09042  0  0.993848  0
H  H15  1  0.89666958  0.31058892  0.97210218  1  0.121989  0  0.121709  0.104729  0  0.972956  0
H  H16  1  0.92450661  0.02809162  0.33870476  1  0.10912  0  0.121244  0.104295  0  0.973497  0
H  H17  1  0.58598781  0.66152349  0.68972830  1  0.094655  0  0.121383  0.104209  0  0.972984  0
H  H18  1  0.10333394  0.68941084  0.02789899  1  0.122042  0  0.121717  0.104743  0  0.972963  0
H  H19  1  0.07548940  0.97191172  0.66129609  1  0.109034  0  0.121257  0.104277  0  0.973399  0
H  H20  1  0.41400802  0.33847483  0.31027149  1  0.094659  0  0.121402  0.104231  0  0.972958  0
H  H21  1  0.01965838  0.37221311  0.58310696  1  0.109418  0  0.120873  0.090219  0  1.029962  0
H  H22  1  0.43672033  0.41692368  0.78918942  1  0.119846  0  0.12127  0.091512  0  1.030014  0
H  H23  1  0.64727144  0.21089260  0.62774464  1  0.112139  0  0.120964  0.090783  0  1.030214  0
H  H24  1  0.98034130  0.62778592  0.41689168  1  0.109315  0  0.120832  0.090112  0  1.029956  0
H  H25  1  0.56328392  0.58307751  0.21081124  1  0.119816  0  0.121284  0.091562  0  1.029978  0
H  H26  1  0.35272851  0.78910931  0.37225655  1  0.112179  0  0.120959  0.090799  0  1.030184  0
H  H27  1  0.95101552  0.36277003  0.72042756  1  0.100564  0  0.10726  0.119303  0  1.024451  0
H  H28  1  0.23070564  0.27954991  0.64238861  1  0.118058  0  0.107505  0.12054  0  1.023801  0
H  H29  1  0.58812990  0.35763230  0.63704797  1  0.121624  0  0.107351  0.119963  0  1.024937  0
H  H30  1  0.04898569  0.63722972  0.27957155  1  0.100553  0  0.107267  0.119336  0  1.024459  0
H  H31  1  0.76929708  0.72045056  0.35761220  1  0.118046  0  0.107501  0.120514  0  1.023835  0
H  H32  1  0.41186934  0.64236817  0.36295067  1  0.121622  0  0.107345  0.119956  0  1.024936  0
H  H33  1  0.90609382  0.62853733  0.66362914  1  0.11364  0  0.121712  0.08989  0  1.025448  0
H  H34  1  0.24278890  0.33634748  0.96499124  1  0.085089  0  0.122056  0.090097  0  1.025011  0
H  H35  1  0.27749496  0.03500356  0.37129732  1  0.129902  0  0.12168  0.089271  0  1.02564  0
H  H36  1  0.09390398  0.37146028  0.33636990  1  0.113719  0  0.121733  0.089902  0  1.025399  0
H  H37  1  0.75721382  0.66365299  0.03500957  1  0.085099  0  0.122046  0.0901  0  1.025053  0
H  H38  1  0.72250624  0.96499620  0.62870240  1  0.129897  0  0.121692  0.089314  0  1.025631  0
H  H39  1  0.82509848  0.62607630  0.80063000  1  0.091343  0  0.113128  0.121093  0  0.99139  0
H  H40  1  0.02463544  0.19935003  0.82550291  1  0.102746  0  0.113623  0.120942  0  0.991583  0
H  H41  1  0.19875355  0.17443943  0.37373553  1  0.103673  0  0.113063  0.12066  0  0.991444  0
H  H42  1  0.17490120  0.37392274  0.19936926  1  0.091426  0  0.113136  0.121126  0  0.991402  0
H  H43  1  0.97536532  0.80065116  0.17449742  1  0.10269  0  0.113606  0.120929  0  0.991594  0
H  H44  1  0.80124613  0.82555961  0.62626311  1  0.10368  0  0.113051  0.12064  0  0.991454  0
C  C45  1  0.57271970  0.38256989  0.09190612  1  0.402866  0  0.046425  0.027253  0  3.893665  0
C  C46  1  0.48076803  0.90804060  0.29063256  1  0.434781  0  0.045883  0.026579  0  3.894  0
C  C47  1  0.19014377  0.70933370  0.61743338  1  0.432668  0  0.046781  0.026423  0  3.894179  0
C  C48  1  0.42727998  0.61742915  0.90809375  1  0.402852  0  0.0464  0.027241  0  3.893719  0
C  C49  1  0.51923353  0.09195987  0.70936874  1  0.434776  0  0.045883  0.02655  0  3.893916  0
C  C50  1  0.80985394  0.29066605  0.38256662  1  0.432669  0  0.046717  0.026271  0  3.894294  0
C  C51  1  0.65507551  0.32200266  0.10564669  1  0.533919  0  0.039674  0.031803  0  3.981752  0
C  C52  1  0.54945340  0.89432497  0.21637036  1  0.474889  0  0.039524  0.031263  0  3.982075  0
C  C53  1  0.33306718  0.78363526  0.67799013  1  0.497539  0  0.039907  0.031414  0  3.982551  0
C  C54  1  0.34492497  0.67799566  0.89435232  1  0.533872  0  0.039608  0.031677  0  3.981724  0
C  C55  1  0.45054395  0.10567407  0.78363051  1  0.474999  0  0.03957  0.031393  0  3.981953  0
C  C56  1  0.66693250  0.21636378  0.32200913  1  0.497521  0  0.039907  0.031485  0  3.982443  0
C  C57  1  0.80251745  0.32982709  0.00675590  1  0.514997  0  0.051906  0.015803  0  3.954735  0
C  C58  1  0.79569285  0.99335478  0.32321208  1  0.524851  0  0.051747  0.015774  0  3.956171  0
C  C59  1  0.47262388  0.67692864  0.67038430  1  0.585771  0  0.052212  0.016781  0  3.952718  0
C  C60  1  0.19748492  0.67017266  0.99324394  1  0.514966  0  0.051912  0.01578  0  3.954838  0
C  C61  1  0.20430396  0.00664785  0.67678913  1  0.525068  0  0.051799  0.01589  0  3.955947  0
C  C62  1  0.52737311  0.32306968  0.32961559  1  0.585758  0  0.0522  0.01675  0  3.952668  0
C  C63  1  0.72151283  0.39002443  0.99067259  1  0.452864  0  0.124333  0.113032  0  3.968891  0
C  C64  1  0.73075223  0.00937341  0.39945164  1  0.478158  0  0.123935  0.112398  0  3.970304  0
C  C65  1  0.33146120  0.60062651  0.61010749  1  0.416951  0  0.12424  0.11291  0  3.966965  0
C  C66  1  0.27848990  0.60997604  0.00932761  1  0.452889  0  0.124427  0.113175  0  3.968798  0
C  C67  1  0.26924808  0.99062921  0.60054990  1  0.478639  0  0.123906  0.112417  0  3.970135  0
C  C68  1  0.66853615  0.39937252  0.38989154  1  0.41703  0  0.124259  0.112989  0  3.966925  0
C  C69  1  0.74919571  0.43103512  0.93152704  1  0.981732  0  0.198231  0.212346  0  4.104762  0
C  C70  1  0.81762228  0.06850449  0.49959092  1  0.961554  0  0.197889  0.211901  0  4.104324  0
C  C71  1  0.31809856  0.50046479  0.56906106  1  0.970857  0  0.198773  0.212523  0  4.105584  0
C  C72  1  0.25080665  0.56896464  0.06847341  1  0.981557  0  0.198189  0.212264  0  4.104812  0
C  C73  1  0.18237884  0.93149742  0.50041038  1  0.961245  0  0.197852  0.211779  0  4.104297  0
C  C74  1  0.68189915  0.49953496  0.43093833  1  0.970936  0  0.198783  0.212498  0  4.105574  0
C  C75  1  0.81496028  0.48156053  0.84235497  1  0.930779  0  0.194421  0.234885  0  4.094808  0
C  C76  1  0.97268285  0.15766403  0.63925736  1  0.930321  0  0.194747  0.234498  0  4.096571  0
C  C77  1  0.33328540  0.36074735  0.51835288  1  0.909042  0  0.19471  0.235643  0  4.097251  0
C  C78  1  0.18504173  0.51843850  0.15764511  1  0.93068  0  0.194432  0.234893  0  4.094818  0
C  C79  1  0.02731826  0.84233788  0.36074394  1  0.930314  0  0.194738  0.234495  0  4.096538  0
C  C80  1  0.66671428  0.63925168  0.48164515  1  0.909135  0  0.194702  0.235655  0  4.097177  0
C  C81  1  0.87765195  0.49231051  0.77038873  1  0.025595  0  0.010775  0.066351  0  4.018559  0
C  C82  1  0.10742921  0.22960584  0.72200400  1  0.017081  0  0.01147  0.06918  0  4.017186  0
C  C83  1  0.38516411  0.27799258  0.50750375  1  -0.012735  0  0.011041  0.067558  0  4.020298  0
C  C84  1  0.12234890  0.50768853  0.22961003  1  0.025597  0  0.010805  0.066402  0  4.018577  0
C  C85  1  0.89257271  0.77039535  0.27799645  1  0.017046  0  0.01145  0.069187  0  4.017175  0
C  C86  1  0.61483593  0.72200717  0.49249465  1  -0.012678  0  0.011037  0.067535  0  4.020296  0
C  C87  1  0.97792471  0.42778127  0.63336089  1  0.421457  0  0.039213  0.071829  0  3.92212  0
C  C88  1  0.34483145  0.36661860  0.79448663  1  0.389399  0  0.039869  0.071988  0  3.921204  0
C  C89  1  0.55002180  0.20555326  0.57211782  1  0.424531  0  0.039446  0.071349  0  3.923178  0
C  C90  1  0.02207613  0.57221777  0.36663725  1  0.421407  0  0.039243  0.072016  0  3.922044  0
C  C91  1  0.65517244  0.63338187  0.20551367  1  0.389491  0  0.039858  0.071901  0  3.921236  0
C  C92  1  0.44997779  0.79444793  0.42788239  1  0.424564  0  0.039414  0.071272  0  3.923164  0
C  C93  1  0.93933393  0.42251299  0.70960611  1  -0.018118  0  -0.082582  -0.159045  0  3.945932  0
C  C94  1  0.22991662  0.29032771  0.71294578  1  -0.018594  0  -0.082915  -0.162086  0  3.944983  0
C  C95  1  0.51671813  0.28705460  0.57731062  1  -0.015417  0  -0.08299  -0.160937  0  3.947672  0
C  C96  1  0.06066808  0.57748605  0.29039398  1  -0.017881  0  -0.082585  -0.159141  0  3.946165  0
C  C97  1  0.77008646  0.70967348  0.28705538  1  -0.018616  0  -0.082878  -0.162007  0  3.944899  0
C  C98  1  0.48328227  0.71294587  0.42268875  1  -0.015583  0  -0.082983  -0.160921  0  3.947699  0
C  C99  1  0.91295544  0.57034845  0.67794315  1  0.437151  0  0.042378  0.076514  0  3.920216  0
C  C100  1  0.23531357  0.32201680  0.89248809  1  0.475291  0  0.042143  0.077154  0  3.921106  0
C  C101  1  0.34247696  0.10751497  0.42949841  1  0.427315  0  0.042485  0.078327  0  3.918042  0
C  C102  1  0.08704577  0.42965130  0.32205535  1  0.437145  0  0.042366  0.076564  0  3.920249  0
C  C103  1  0.76468799  0.67798367  0.10751260  1  0.475289  0  0.042163  0.077149  0  3.921186  0
C  C104  1  0.65752460  0.89248550  0.57050167  1  0.42735  0  0.04249  0.078266  0  3.918079  0
C  C105  1  0.86843039  0.56874795  0.75422657  1  -0.008983  0  -0.078263  -0.156194  0  3.966529  0
C  C106  1  0.11439605  0.24572877  0.81457706  1  -0.022373  0  -0.079224  -0.157392  0  3.967075  0
C  C107  1  0.29946521  0.18538661  0.43106365  1  -0.003226  0  -0.078444  -0.156272  0  3.964022  0
C  C108  1  0.13157010  0.43125037  0.24577305  1  -0.009129  0  -0.078328  -0.156323  0  3.966633  0
C  C109  1  0.88560622  0.75427313  0.18542374  1  -0.022298  0  -0.0792  -0.15738  0  3.967075  0
C  C110  1  0.70053599  0.81461315  0.56893547  1  -0.003261  0  -0.078439  -0.156227  0  3.963989  0
N  N111  1  0.60410542  0.41692079  0.03380680  1  -1.145529  0  -0.317977  -0.150865  0  3.563523  0
N  N112  1  0.57015850  0.96617859  0.38312373  1  -1.168283  0  -0.31815  -0.150977  0  3.563356  0
N  N113  1  0.18715043  0.61687552  0.58315480  1  -1.154889  0  -0.31806  -0.149473  0  3.560977  0
N  N114  1  0.39589811  0.58307896  0.96619376  1  -1.145572  0  -0.318006  -0.15089  0  3.563532  0
N  N115  1  0.42983688  0.03382116  0.61687605  1  -1.168349  0  -0.318158  -0.15101  0  3.563402  0
N  N116  1  0.81284576  0.38312352  0.41684413  1  -1.154874  0  -0.318026  -0.149426  0  3.561043  0
N  N117  1  0.77004317  0.29492487  0.06356354  1  -1.183088  0  -0.318326  -0.242078  0  3.317044  0
N  N118  1  0.70651044  0.93651785  0.23145995  1  -1.170358  0  -0.318409  -0.242393  0  3.319265  0
N  N119  1  0.47506497  0.76863776  0.70520789  1  -1.177622  0  -0.318735  -0.242626  0  3.316932  0
N  N120  1  0.22995651  0.70507417  0.93643693  1  -1.183039  0  -0.318316  -0.24205  0  3.317049  0
N  N121  1  0.29348835  0.06348406  0.76854112  1  -1.170748  0  -0.318427  -0.242444  0  3.319357  0
N  N122  1  0.52493238  0.23136128  0.29479236  1  -1.177669  0  -0.318763  -0.242692  0  3.316904  0
N  N123  1  0.66229315  0.49276060  0.93321729  1  -0.697948  0  -0.27131  -0.158015  0  3.689421  0
N  N124  1  0.72905975  0.06689618  0.55965657  1  -0.696078  0  -0.270599  -0.156953  0  3.687738  0
N  N125  1  0.16945558  0.44046278  0.50726599  1  -0.693028  0  -0.271465  -0.15878  0  3.692045  0
N  N126  1  0.33771038  0.50723915  0.06678388  1  -0.697775  0  -0.27129  -0.157964  0  3.689425  0
N  N127  1  0.27094020  0.93310572  0.44034523  1  -0.696133  0  -0.270615  -0.156967  0  3.687827  0
N  N128  1  0.83054293  0.55953625  0.49273316  1  -0.693043  0  -0.271462  -0.158796  0  3.692059  0
N  N129  1  0.70517813  0.52670263  0.87710353  1  -0.669896  0  -0.226365  -0.270409  0  3.208872  0
N  N130  1  0.82811219  0.12298281  0.64969121  1  -0.659462  0  -0.226251  -0.269365  0  3.209353  0
N  N131  1  0.17838159  0.35039698  0.47319734  1  -0.668253  0  -0.226197  -0.269816  0  3.211913  0
N  N132  1  0.29482388  0.47329640  0.12289595  1  -0.669994  0  -0.226398  -0.270462  0  3.208925  0
N  N133  1  0.17189008  0.87701909  0.35031142  1  -0.659396  0  -0.226233  -0.269334  0  3.209378  0
N  N134  1  0.82161657  0.64960134  0.52680084  1  -0.668205  0  -0.226171  -0.269782  0  3.211862  0
N  N135  1  0.84578503  0.42096183  0.87441201  1  -1.157639  0  -0.34088  -0.410985  0  3.150513  0
N  N136  1  0.97138902  0.12561933  0.54663284  1  -1.163305  0  -0.341311  -0.411455  0  3.152112  0
N  N137  1  0.42472608  0.45338000  0.57908973  1  -1.14192  0  -0.341531  -0.412146  0  3.152225  0
N  N138  1  0.15421617  0.57903792  0.12558772  1  -1.157472  0  -0.340861  -0.410947  0  3.150482  0
N  N139  1  0.02860976  0.87438258  0.45336702  1  -1.163305  0  -0.341307  -0.411436  0  3.152084  0
N  N140  1  0.57527280  0.54661976  0.42090977  1  -1.141991  0  -0.341552  -0.412136  0  3.152159  0
N  N141  1  0.96279500  0.49968030  0.61576457  1  -1.174395  0  -0.339116  -0.15441  0  3.627328  0
N  N142  1  0.34724984  0.38419496  0.88396962  1  -1.171195  0  -0.339593  -0.155051  0  3.630305  0
N  N143  1  0.46299284  0.11603837  0.50021830  1  -1.183253  0  -0.339595  -0.156043  0  3.629492  0
N  N144  1  0.03720315  0.50031802  0.38423421  1  -1.174467  0  -0.339112  -0.154479  0  3.627337  0
N  N145  1  0.65275324  0.61580623  0.11603154  1  -1.171144  0  -0.339592  -0.155029  0  3.630321  0
N  N146  1  0.53700791  0.88396282  0.49978264  1  -1.183265  0  -0.339551  -0.155952  0  3.629379  0
