# generated using pymatgen
data_CdH24C24(N2O3)2
_symmetry_space_group_name_H-M   'P 1'
_cell_length_a   10.20758950
_cell_length_b   11.53983121
_cell_length_c   12.11853896
_cell_angle_alpha   118.43263232
_cell_angle_beta   114.90278657
_cell_angle_gamma   89.99982172
_symmetry_Int_Tables_number   1
_chemical_formula_structural   CdH24C24(N2O3)2
_chemical_formula_sum   'Cd2 H48 C48 N8 O12'
_cell_volume   1102.03464215
_cell_formula_units_Z   2
loop_
 _symmetry_equiv_pos_site_id
 _symmetry_equiv_pos_as_xyz
  1  'x, y, z'
loop_
 _atom_site_type_symbol
 _atom_site_label
 _atom_site_symmetry_multiplicity
 _atom_site_fract_x
 _atom_site_fract_y
 _atom_site_fract_z
 _atom_site_occupancy
 _atom_site_hle17_bader_spin_density
 _atom_site_hle17_ddec_charge
 _atom_site_hle17_ddec_spin_density
 _atom_site_hle17_ddec_sum_bond_order
 _atom_site_hle17_magmom
 _atom_site_hse06_10hf_bader_spin_density
 _atom_site_hse06_10hf_ddec_charge
 _atom_site_hse06_10hf_ddec_spin_density
 _atom_site_hse06_10hf_ddec_sum_bond_order
 _atom_site_hse06_10hf_magmom
 _atom_site_hse06_bader_spin_density
 _atom_site_hse06_ddec_charge
 _atom_site_hse06_ddec_spin_density
 _atom_site_hse06_ddec_sum_bond_order
 _atom_site_hse06_magmom
 _atom_site_pbe_bader_spin_density
 _atom_site_pbe_cm5_charge
 _atom_site_pbe_ddec_charge
 _atom_site_pbe_ddec_spin_density
 _atom_site_pbe_ddec_sum_bond_order
 _atom_site_pbe_magmom
Cd  Cd0  1  0.89923385  0.49992603  0.99992624  1  0  1.183964  0  1.653463  0  0  0.98849  0  2.106295  0  0  1.041012  0  2.056471  0  0  0.810508  0.950904  0  2.140963  0
Cd  Cd1  1  0.39923254  0.50000009  0.99992645  1  0  1.183981  0  1.653477  0  0  0.988508  0  2.106314  0  0  1.04103  0  2.05649  0  0  0.810499  0.950919  0  2.140984  0
H  H2  1  0.58431268  0.50356319  0.62748927  1  0  0.101025  0  0.981516  0  0  0.107467  0  1.049994  0  0  0.111281  0  1.046439  0  0  0.09998  0.104655  0  1.052631  0
H  H3  1  0.95741029  0.49649942  0.37279434  1  0  0.101583  0  0.982525  0  0  0.107974  0  1.050793  0  0  0.111891  0  1.04713  0  0  0.100059  0.105064  0  1.053523  0
H  H4  1  0.08431246  0.12392965  0.62748700  1  0  0.101022  0  0.981538  0  0  0.107488  0  1.049974  0  0  0.111303  0  1.046418  0  0  0.099997  0.104676  0  1.052614  0
H  H5  1  0.45741291  0.87629131  0.37279607  1  0  0.101566  0  0.982544  0  0  0.107947  0  1.050815  0  0  0.111864  0  1.047152  0  0  0.100055  0.105039  0  1.053542  0
H  H6  1  0.24126792  0.27040196  0.61118067  1  0  0.098426  0  0.973751  0  0  0.106684  0  1.040028  0  0  0.109873  0  1.037459  0  0  0.101497  0.104233  0  1.042085  0
H  H7  1  0.63055007  0.72951204  0.38887788  1  0  0.098161  0  0.973142  0  0  0.106229  0  1.039668  0  0  0.109378  0  1.037149  0  0  0.101218  0.103749  0  1.041771  0
H  H8  1  0.74126454  0.34077715  0.61118180  1  0  0.098417  0  0.97374  0  0  0.106662  0  1.040035  0  0  0.109852  0  1.037468  0  0  0.101491  0.104211  0  1.042093  0
H  H9  1  0.13054792  0.65936886  0.38887871  1  0  0.098175  0  0.973098  0  0  0.106247  0  1.039617  0  0  0.109413  0  1.037077  0  0  0.101244  0.103769  0  1.041718  0
H  H10  1  0.05228137  0.27088135  0.39882780  1  0  0.095899  0  0.971678  0  0  0.107463  0  1.034043  0  0  0.110753  0  1.033093  0  0  0.097784  0.1052  0  1.034843  0
H  H11  1  0.65367551  0.72894080  0.60113230  1  0  0.095693  0  0.971381  0  0  0.10707  0  1.033977  0  0  0.110437  0  1.032976  0  0  0.097598  0.104726  0  1.034816  0
H  H12  1  0.55228118  0.12794420  0.39882662  1  0  0.095933  0  0.971805  0  0  0.10749  0  1.034155  0  0  0.110787  0  1.033197  0  0  0.097804  0.105228  0  1.034955  0
H  H13  1  0.15367576  0.87219585  0.60113383  1  0  0.095716  0  0.971426  0  0  0.107072  0  1.034044  0  0  0.110438  0  1.033045  0  0  0.097616  0.104729  0  1.034881  0
H  H14  1  0.39595203  0.50879276  0.41853326  1  0  0.104859  0  0.974646  0  0  0.114849  0  1.037069  0  0  0.117514  0  1.037337  0  0  0.098578  0.112938  0  1.037052  0
H  H15  1  0.97788217  0.49124871  0.58163576  1  0  0.104888  0  0.975496  0  0  0.11487  0  1.037887  0  0  0.117523  0  1.038163  0  0  0.098331  0.112948  0  1.037899  0
H  H16  1  0.89595509  0.90974245  0.41852997  1  0  0.104872  0  0.974606  0  0  0.114857  0  1.037032  0  0  0.117522  0  1.0373  0  0  0.098584  0.112946  0  1.037015  0
H  H17  1  0.47788418  0.09038694  0.58163738  1  0  0.104863  0  0.975533  0  0  0.114857  0  1.037908  0  0  0.11751  0  1.038185  0  0  0.098333  0.112939  0  1.037912  0
H  H18  1  0.14784816  0.71314980  0.01092202  1  0  0.103043  0  0.950211  0  0  0.109247  0  1.02085  0  0  0.11218  0  1.016863  0  0  0.136478  0.106983  0  1.023895  0
H  H19  1  0.13678924  0.28656217  0.98920013  1  0  0.10347  0  0.950733  0  0  0.109558  0  1.021195  0  0  0.112507  0  1.017158  0  0  0.136468  0.107308  0  1.024243  0
H  H20  1  0.64785019  0.29777550  0.01092453  1  0  0.103052  0  0.950215  0  0  0.109231  0  1.020878  0  0  0.112164  0  1.01689  0  0  0.136468  0.106968  0  1.023919  0
H  H21  1  0.63679221  0.70263775  0.98919999  1  0  0.103451  0  0.950734  0  0  0.109535  0  1.021216  0  0  0.112483  0  1.01718  0  0  0.136442  0.107291  0  1.024243  0
H  H22  1  0.87423598  0.80458767  0.20612819  1  0  0.102442  0  0.996655  0  0  0.109508  0  1.062468  0  0  0.112016  0  1.061053  0  0  0.113759  0.107609  0  1.063754  0
H  H23  1  0.66803551  0.19540623  0.79361488  1  0  0.101844  0  0.998111  0  0  0.1092  0  1.063493  0  0  0.111668  0  1.062128  0  0  0.113557  0.107295  0  1.064812  0
H  H24  1  0.37423552  0.40153951  0.20612786  1  0  0.10241  0  0.996606  0  0  0.109474  0  1.062424  0  0  0.111982  0  1.061009  0  0  0.113752  0.107575  0  1.06371  0
H  H25  1  0.16803655  0.59821100  0.79361739  1  0  0.101848  0  0.9981  0  0  0.109189  0  1.063496  0  0  0.111656  0  1.06213  0  0  0.113552  0.107282  0  1.064816  0
H  H26  1  0.06434300  0.04775410  0.30796709  1  0  0.11053  0  0.974296  0  0  0.121317  0  1.036244  0  0  0.12314  0  1.036386  0  0  0.120324  0.119904  0  1.036341  0
H  H27  1  0.75608071  0.95213944  0.69157636  1  0  0.111158  0  0.974783  0  0  0.121862  0  1.036627  0  0  0.123692  0  1.036805  0  0  0.12045  0.120448  0  1.036695  0
H  H28  1  0.56434298  0.26021250  0.30796754  1  0  0.110557  0  0.974219  0  0  0.121355  0  1.036151  0  0  0.123178  0  1.036292  0  0  0.120352  0.11994  0  1.036253  0
H  H29  1  0.25608259  0.73943977  0.69158161  1  0  0.111229  0  0.974675  0  0  0.121922  0  1.03654  0  0  0.123754  0  1.036713  0  0  0.120463  0.120495  0  1.036623  0
H  H30  1  0.33249298  0.94757764  0.15920757  1  0  0.089241  0  0.912022  0  0  0.106206  0  0.970552  0  0  0.107405  0  0.969575  0  0  0.11653  0.105186  0  0.971407  0
H  H31  1  0.17311605  0.05227406  0.84082247  1  0  0.088677  0  0.911273  0  0  0.105741  0  0.969911  0  0  0.106888  0  0.96899  0  0  0.116536  0.104698  0  0.970834  0
H  H32  1  0.83249390  0.21162866  0.15920916  1  0  0.089255  0  0.912003  0  0  0.106227  0  0.970539  0  0  0.107427  0  0.969563  0  0  0.11654  0.105207  0  0.971393  0
H  H33  1  0.67311574  0.78854817  0.84082108  1  0  0.088637  0  0.911308  0  0  0.105723  0  0.969928  0  0  0.106871  0  0.969005  0  0  0.116526  0.10468  0  0.970855  0
H  H34  1  0.30342212  0.08650370  0.29068861  1  0  0.077106  0  0.926025  0  0  0.093565  0  0.988824  0  0  0.093485  0  0.989868  0  0  0.111857  0.09352  0  0.988154  0
H  H35  1  0.01264104  0.91334944  0.70915386  1  0  0.077182  0  0.925997  0  0  0.093665  0  0.988634  0  0  0.093582  0  0.989694  0  0  0.111933  0.093565  0  0.988027  0
H  H36  1  0.80342130  0.20418443  0.29068935  1  0  0.07705  0  0.926031  0  0  0.093538  0  0.988818  0  0  0.093461  0  0.989859  0  0  0.111857  0.093493  0  0.988147  0
H  H37  1  0.51263994  0.79580272  0.70915237  1  0  0.077152  0  0.926026  0  0  0.093672  0  0.988638  0  0  0.093565  0  0.989726  0  0  0.111927  0.093583  0  0.988019  0
H  H38  1  0.27419181  0.12702395  0.10131217  1  0  0.064856  0  0.961041  0  0  0.083758  0  1.024586  0  0  0.083601  0  1.026814  0  0  0.0891  0.083712  0  1.023238  0
H  H39  1  0.17252983  0.87255429  0.89830533  1  0  0.0649  0  0.962042  0  0  0.083911  0  1.025207  0  0  0.083755  0  1.027428  0  0  0.089181  0.083873  0  1.023821  0
H  H40  1  0.77419132  0.97428717  0.10131284  1  0  0.064866  0  0.961058  0  0  0.083759  0  1.024604  0  0  0.083597  0  1.026836  0  0  0.089098  0.083712  0  1.023256  0
H  H41  1  0.67252993  0.02575214  0.89830734  1  0  0.064911  0  0.962061  0  0  0.083915  0  1.02524  0  0  0.083758  0  1.027461  0  0  0.089184  0.083875  0  1.023854  0
H  H42  1  0.10586243  0.11681819  0.10774515  1  0  0.076466  0  0.936472  0  0  0.093052  0  0.997856  0  0  0.094171  0  0.997977  0  0  0.091536  0.092096  0  0.997958  0
H  H43  1  0.99792054  0.88294910  0.89221135  1  0  0.076696  0  0.937882  0  0  0.093138  0  0.999162  0  0  0.094228  0  0.999302  0  0  0.091359  0.092299  0  0.999072  0
H  H44  1  0.60586150  0.99092639  0.10774416  1  0  0.07648  0  0.936452  0  0  0.093061  0  0.99783  0  0  0.094179  0  0.997951  0  0  0.091547  0.092104  0  0.997933  0
H  H45  1  0.49791899  0.00926204  0.89221039  1  0  0.07666  0  0.937916  0  0  0.093146  0  0.999154  0  0  0.094237  0  0.999291  0  0  0.091365  0.092305  0  0.999064  0
H  H46  1  0.14060134  0.44184284  0.24935529  1  0  0.390645  0  0.897991  0  0  0.36245  0  0.975571  0  0  0.373743  0  0.962959  0  0  0.297039  0.354418  0  0.984469  0
H  H47  1  0.89133821  0.55811121  0.75077512  1  0  0.390128  0  0.89911  0  0  0.361942  0  0.976692  0  0  0.373237  0  0.964143  0  0  0.297044  0.353909  0  0.985567  0
H  H48  1  0.64060426  0.80751063  0.24935681  1  0  0.390654  0  0.898088  0  0  0.362468  0  0.975643  0  0  0.373755  0  0.963044  0  0  0.297054  0.354435  0  0.984542  0
H  H49  1  0.39133879  0.19266522  0.75077492  1  0  0.390125  0  0.89912  0  0  0.361935  0  0.976707  0  0  0.373232  0  0.964155  0  0  0.297042  0.353901  0  0.985584  0
C  C50  1  0.54230595  0.39016703  0.76230526  1  0  0.652492  0  3.925358  0  0  0.59742  0  4.226549  0  0  0.632558  0  4.218375  0  0  0.201279  0.573444  0  4.231588  0
C  C51  1  0.78039096  0.60977335  0.23776114  1  0  0.651516  0  3.928275  0  0  0.596542  0  4.229409  0  0  0.631634  0  4.221307  0  0  0.201171  0.572754  0  4.234062  0
C  C52  1  0.04230338  0.37213865  0.76230531  1  0  0.652397  0  3.925353  0  0  0.597359  0  4.22651  0  0  0.632494  0  4.21834  0  0  0.201265  0.573386  0  4.231551  0
C  C53  1  0.28038929  0.62798664  0.23776128  1  0  0.651511  0  3.92823  0  0  0.596549  0  4.229349  0  0  0.631642  0  4.221246  0  0  0.201144  0.572766  0  4.233995  0
C  C54  1  0.42690510  0.38315182  0.63080658  1  0  -0.125327  0  3.803469  0  0  -0.104093  0  4.043956  0  0  -0.116476  0  4.06918  0  0  -0.045207  -0.096204  0  4.02707  0
C  C55  1  0.79668567  0.61689974  0.36938689  1  0  -0.124622  0  3.801882  0  0  -0.104372  0  4.043637  0  0  -0.11665  0  4.068715  0  0  -0.045048  -0.096611  0  4.026765  0
C  C56  1  0.92690171  0.24765394  0.63080617  1  0  -0.125193  0  3.803402  0  0  -0.104003  0  4.043915  0  0  -0.116376  0  4.069124  0  0  -0.045187  -0.096117  0  4.027029  0
C  C57  1  0.29668497  0.75248758  0.36938743  1  0  -0.124664  0  3.801963  0  0  -0.104416  0  4.043704  0  0  -0.116698  0  4.06879  0  0  -0.045034  -0.096658  0  4.026833  0
C  C58  1  0.46773566  0.45024290  0.57472129  1  0  -0.037396  0  3.757117  0  0  -0.062273  0  4.0062  0  0  -0.057213  0  4.02409  0  0  -0.090145  -0.065129  0  3.993827  0
C  C59  1  0.89356787  0.54982601  0.42551918  1  0  -0.038141  0  3.75646  0  0  -0.062882  0  4.005974  0  0  -0.057917  0  4.023766  0  0  -0.090673  -0.065655  0  3.993678  0
C  C60  1  0.96773354  0.12447926  0.57472229  1  0  -0.037422  0  3.75714  0  0  -0.062304  0  4.006226  0  0  -0.057247  0  4.024113  0  0  -0.090139  -0.065162  0  3.993854  0
C  C61  1  0.39356636  0.87569289  0.42551796  1  0  -0.038086  0  3.756468  0  0  -0.062817  0  4.005983  0  0  -0.057852  0  4.023775  0  0  -0.090675  -0.06559  0  3.993687  0
C  C62  1  0.27601366  0.31819616  0.56576384  1  0  -0.049404  0  3.775552  0  0  -0.075256  0  4.02813  0  0  -0.070638  0  4.047199  0  0  -0.090776  -0.077869  0  4.015033  0
C  C63  1  0.71079685  0.68183957  0.43441131  1  0  -0.049136  0  3.775035  0  0  -0.07444  0  4.027735  0  0  -0.0698  0  4.046795  0  0  -0.090798  -0.077038  0  4.014748  0
C  C64  1  0.77601025  0.24756553  0.56576096  1  0  -0.049458  0  3.775655  0  0  -0.075291  0  4.028235  0  0  -0.070675  0  4.047303  0  0  -0.090815  -0.077901  0  4.015136  0
C  C65  1  0.21079636  0.75257242  0.43441176  1  0  -0.049137  0  3.774941  0  0  -0.074444  0  4.027634  0  0  -0.069817  0  4.046684  0  0  -0.090796  -0.077044  0  4.01465  0
C  C66  1  0.16987734  0.31863282  0.44732147  1  0  -0.219218  0  3.755393  0  0  -0.236048  0  4.008804  0  0  -0.244814  0  4.028777  0  0  -0.117584  -0.230237  0  3.995187  0
C  C67  1  0.72300542  0.68138938  0.55281882  1  0  -0.219873  0  3.75633  0  0  -0.236375  0  4.00963  0  0  -0.245227  0  4.029571  0  0  -0.117685  -0.230485  0  3.995982  0
C  C68  1  0.66987462  0.12868861  0.44732040  1  0  -0.219195  0  3.755523  0  0  -0.236009  0  4.008926  0  0  -0.244779  0  4.028905  0  0  -0.117579  -0.230198  0  3.995307  0
C  C69  1  0.22300446  0.87143274  0.55281943  1  0  -0.219902  0  3.756349  0  0  -0.236391  0  4.009647  0  0  -0.245243  0  4.029592  0  0  -0.117742  -0.230501  0  3.995998  0
C  C70  1  0.36225273  0.45282516  0.45754965  1  0  -0.235042  0  3.761101  0  0  -0.248628  0  4.008337  0  0  -0.257852  0  4.029595  0  0  -0.119504  -0.242504  0  3.993828  0
C  C71  1  0.90519129  0.54727369  0.54272321  1  0  -0.235935  0  3.761352  0  0  -0.249227  0  4.008487  0  0  -0.258449  0  4.029779  0  0  -0.119243  -0.243085  0  3.993949  0
C  C72  1  0.86225309  0.00472443  0.45754743  1  0  -0.235039  0  3.76104  0  0  -0.248601  0  4.008268  0  0  -0.257825  0  4.029529  0  0  -0.119521  -0.242476  0  3.993758  0
C  C73  1  0.40518936  0.99545010  0.54272073  1  0  -0.235914  0  3.761393  0  0  -0.24922  0  4.008511  0  0  -0.258441  0  4.029803  0  0  -0.119224  -0.243078  0  3.993975  0
C  C74  1  0.21143728  0.38556903  0.39116357  1  0  0.34856  0  3.835821  0  0  0.341157  0  4.092038  0  0  0.355552  0  4.10683  0  0  0.08328  0.331408  0  4.081715  0
C  C75  1  0.82066335  0.61446312  0.60905074  1  0  0.349289  0  3.83717  0  0  0.341532  0  4.093851  0  0  0.355937  0  4.108669  0  0  0.083429  0.331779  0  4.083452  0
C  C76  1  0.71143708  0.00559214  0.39116051  1  0  0.34847  0  3.835808  0  0  0.341036  0  4.09207  0  0  0.355428  0  4.106869  0  0  0.083264  0.331286  0  4.081748  0
C  C77  1  0.32066087  0.99458928  0.60904860  1  0  0.349283  0  3.837222  0  0  0.341536  0  4.093888  0  0  0.355939  0  4.108703  0  0  0.083429  0.331782  0  4.083485  0
C  C78  1  0.09679202  0.77047838  0.07541787  1  0  0.187289  0  3.634263  0  0  0.123512  0  3.901345  0  0  0.138223  0  3.913908  0  0  0.149158  0.113898  0  3.892656  0
C  C79  1  0.02123304  0.22928782  0.92462208  1  0  0.184602  0  3.637639  0  0  0.121344  0  3.904109  0  0  0.136045  0  3.916702  0  0  0.148108  0.111858  0  3.895349  0
C  C80  1  0.59679406  0.30494060  0.07542005  1  0  0.187249  0  3.634351  0  0  0.123516  0  3.901429  0  0  0.138226  0  3.913994  0  0  0.149175  0.113904  0  3.892738  0
C  C81  1  0.52123293  0.69533370  0.92462101  1  0  0.184578  0  3.63775  0  0  0.121317  0  3.904216  0  0  0.136016  0  3.916815  0  0  0.148115  0.111835  0  3.895456  0
C  C82  1  0.95821691  0.82323345  0.18016048  1  0  -0.009065  0  3.769314  0  0  -0.04274  0  4.03455  0  0  -0.040941  0  4.055641  0  0  -0.008113  -0.044098  0  4.020577  0
C  C83  1  0.77794791  0.17665740  0.81966775  1  0  -0.007568  0  3.771358  0  0  -0.041462  0  4.036521  0  0  -0.039631  0  4.057578  0  0  -0.007092  -0.042682  0  4.022416  0
C  C84  1  0.45822026  0.35692794  0.18016181  1  0  -0.008932  0  3.769255  0  0  -0.042589  0  4.034491  0  0  -0.04079  0  4.055583  0  0  -0.008088  -0.043946  0  4.020517  0
C  C85  1  0.27794886  0.64301184  0.81967093  1  0  -0.007577  0  3.771404  0  0  -0.041456  0  4.036571  0  0  -0.039624  0  4.057627  0  0  -0.007091  -0.042675  0  4.022465  0
C  C86  1  0.04999685  0.94305189  0.22993463  1  0  -0.063466  0  3.677771  0  0  -0.100899  0  3.929649  0  0  -0.09975  0  3.949639  0  0  0.000902  -0.101562  0  3.916235  0
C  C87  1  0.81985138  0.05680233  0.76977072  1  0  -0.065745  0  3.678518  0  0  -0.103257  0  3.930745  0  0  -0.102141  0  3.950733  0  0  -1.5e-05  -0.103883  0  3.917238  0
C  C88  1  0.54999998  0.28688347  0.22993527  1  0  -0.063507  0  3.677683  0  0  -0.100939  0  3.92956  0  0  -0.099789  0  3.949552  0  0  0.000901  -0.101602  0  3.916144  0
C  C89  1  0.31985551  0.71296968  0.76977712  1  0  -0.065817  0  3.678541  0  0  -0.103325  0  3.93076  0  0  -0.102212  0  3.950747  0  0  2.4e-05  -0.103939  0  3.917262  0
C  C90  1  0.24873915  0.00188166  0.17872351  1  0  0.00226  0  3.618719  0  0  -0.060902  0  3.87948  0  0  -0.056284  0  3.89004  0  0  -0.048329  -0.063864  0  3.872256  0
C  C91  1  0.06980652  0.99788532  0.82115094  1  0  0.001763  0  3.618295  0  0  -0.061476  0  3.879238  0  0  -0.056829  0  3.889724  0  0  -0.048852  -0.064326  0  3.871933  0
C  C92  1  0.74873929  0.17683908  0.17872275  1  0  0.002385  0  3.618586  0  0  -0.060835  0  3.879413  0  0  -0.05622  0  3.889975  0  0  -0.048309  -0.063797  0  3.87219  0
C  C93  1  0.56980609  0.82326532  0.82114978  1  0  0.001831  0  3.618293  0  0  -0.061466  0  3.879271  0  0  -0.056802  0  3.889758  0  0  -0.048834  -0.064323  0  3.871967  0
C  C94  1  0.18174314  0.05578626  0.07900855  1  0  -0.132187  0  3.686011  0  0  -0.173981  0  3.949093  0  0  -0.175488  0  3.96283  0  0  -0.169305  -0.172794  0  3.939587  0
C  C95  1  0.10252232  0.94388502  0.92080031  1  0  -0.132143  0  3.687998  0  0  -0.173628  0  3.950278  0  0  -0.175081  0  3.963982  0  0  -0.168599  -0.17239  0  3.940572  0
C  C96  1  0.68174133  0.02322084  0.07900759  1  0  -0.132197  0  3.686061  0  0  -0.173955  0  3.949147  0  0  -0.175454  0  3.962884  0  0  -0.169288  -0.172768  0  3.93964  0
C  C97  1  0.60252137  0.97691462  0.92079956  1  0  -0.132124  0  3.688068  0  0  -0.173642  0  3.950366  0  0  -0.175092  0  3.964059  0  0  -0.168602  -0.172407  0  3.940667  0
N  N98  1  0.98836746  0.71675323  0.08376802  1  0  -0.395108  0  3.281713  0  0  -0.310775  0  3.56373  0  0  -0.333911  0  3.581671  0  0  -0.367338  -0.294953  0  3.55124  0
N  N99  1  0.90449747  0.28308199  0.91623291  1  0  -0.394272  0  3.284388  0  0  -0.310105  0  3.566048  0  0  -0.33323  0  3.583973  0  0  -0.367007  -0.294285  0  3.553513  0
N  N100  1  0.48837138  0.36701880  0.08377385  1  0  -0.395197  0  3.281948  0  0  -0.310898  0  3.56398  0  0  -0.334034  0  3.581923  0  0  -0.367373  -0.295077  0  3.55149  0
N  N101  1  0.40449986  0.63315154  0.91623379  1  0  -0.394264  0  3.284423  0  0  -0.310095  0  3.566073  0  0  -0.333218  0  3.584003  0  0  -0.367034  -0.294274  0  3.553539  0
N  N102  1  0.13698667  0.90766421  0.16269404  1  0  -0.063164  0  3.569211  0  0  0.034121  0  3.784084  0  0  0.018992  0  3.810906  0  0  -0.242186  0.044127  0  3.76581  0
N  N103  1  0.97408537  0.09211260  0.83718881  1  0  -0.060579  0  3.567808  0  0  0.036656  0  3.782259  0  0  0.021517  0  3.809102  0  0  -0.240992  0.046605  0  3.763913  0
N  N104  1  0.63698656  0.25502939  0.16269512  1  0  -0.063226  0  3.569211  0  0  0.034053  0  3.784121  0  0  0.018922  0  3.810944  0  0  -0.242248  0.044058  0  3.765848  0
N  N105  1  0.47408649  0.74507654  0.83719027  1  0  -0.06053  0  3.567836  0  0  0.036703  0  3.782304  0  0  0.021567  0  3.809141  0  0  -0.240993  0.046653  0  3.763959  0
O  O106  1  0.50478285  0.33514724  0.81872179  1  0  -0.6877  0  2.023201  0  0  -0.624788  0  2.272434  0  0  -0.649313  0  2.259294  0  0  -0.332168  -0.607405  0  2.280912  0
O  O107  1  0.68659041  0.66494511  0.18146682  1  0  -0.687153  0  2.022313  0  0  -0.624863  0  2.271834  0  0  -0.649413  0  2.25884  0  0  -0.332294  -0.607467  0  2.280046  0
O  O108  1  0.00478112  0.48357544  0.81872242  1  0  -0.68767  0  2.023312  0  0  -0.624774  0  2.272528  0  0  -0.6493  0  2.259394  0  0  -0.332163  -0.607383  0  2.280982  0
O  O109  1  0.18658960  0.51652192  0.18146713  1  0  -0.687154  0  2.022301  0  0  -0.624862  0  2.271805  0  0  -0.649415  0  2.258816  0  0  -0.332294  -0.607468  0  2.280015  0
O  O110  1  0.67490440  0.45439236  0.81335166  1  0  -0.648078  0  2.046406  0  0  -0.581547  0  2.320054  0  0  -0.609153  0  2.306508  0  0  -0.331157  -0.562108  0  2.328934  0
O  O111  1  0.86169517  0.54525422  0.18652581  1  0  -0.648181  0  2.048967  0  0  -0.580148  0  2.320534  0  0  -0.607859  0  2.307305  0  0  -0.33045  -0.560527  0  2.329053  0
O  O112  1  0.17490350  0.35895690  0.81335001  1  0  -0.648088  0  2.046324  0  0  -0.581557  0  2.319952  0  0  -0.609164  0  2.306412  0  0  -0.33115  -0.562105  0  2.328807  0
O  O113  1  0.36169302  0.64127019  0.18652521  1  0  -0.648203  0  2.04883  0  0  -0.580166  0  2.32038  0  0  -0.607879  0  2.307149  0  0  -0.33046  -0.560547  0  2.328896  0
O  O114  1  0.10319283  0.38290821  0.27620492  1  0  -0.531277  0  2.13347  0  0  -0.483893  0  2.356757  0  0  -0.502896  0  2.345882  0  0  -0.352547  -0.470168  0  2.36398  0
O  O115  1  0.82712550  0.61707953  0.72389282  1  0  -0.53087  0  2.133883  0  0  -0.483445  0  2.35721  0  0  -0.502459  0  2.346377  0  0  -0.352928  -0.469797  0  2.36434  0
O  O116  1  0.60319168  0.89329435  0.27620175  1  0  -0.53125  0  2.133637  0  0  -0.483861  0  2.356911  0  0  -0.502858  0  2.346042  0  0  -0.352553  -0.470139  0  2.364148  0
O  O117  1  0.32712680  0.10681402  0.72389435  1  0  -0.530846  0  2.133906  0  0  -0.48343  0  2.357254  0  0  -0.502449  0  2.346414  0  0  -0.352911  -0.469782  0  2.364379  0
