# generated using pymatgen
data_Zn4H20C40O21
_symmetry_space_group_name_H-M   'P 1'
_cell_length_a   23.81092065
_cell_length_b   23.81235013
_cell_length_c   23.81080733
_cell_angle_alpha   66.34084845
_cell_angle_beta   72.58711334
_cell_angle_gamma   107.42233860
_symmetry_Int_Tables_number   1
_chemical_formula_structural   Zn4H20C40O21
_chemical_formula_sum   'Zn8 H40 C80 O42'
_cell_volume   10351.06490082
_cell_formula_units_Z   2
loop_
 _symmetry_equiv_pos_site_id
 _symmetry_equiv_pos_as_xyz
  1  'x, y, z'
loop_
 _atom_site_type_symbol
 _atom_site_label
 _atom_site_symmetry_multiplicity
 _atom_site_fract_x
 _atom_site_fract_y
 _atom_site_fract_z
 _atom_site_occupancy
 _atom_site_pbe_bader_charge
 _atom_site_pbe_bader_spin_density
 _atom_site_pbe_cm5_charge
 _atom_site_pbe_ddec_charge
 _atom_site_pbe_ddec_spin_density
 _atom_site_pbe_ddec_sum_bond_order
 _atom_site_pbe_magmom
Zn  Zn0  1  0.05600052  0.95602053  0.48799000  1  1.320174  0  0.681397  0.966912  0  2.375704  0
Zn  Zn1  1  0.05599830  0.09997970  0.45602287  1  1.319838  0  0.6814  0.966881  0  2.37563  0
Zn  Zn2  1  0.94399420  0.98798651  0.45601319  1  1.320195  0  0.681471  0.967163  0  2.375024  0
Zn  Zn3  1  0.94401328  0.95601838  0.59998186  1  1.319907  0  0.681367  0.966813  0  2.375642  0
Zn  Zn4  1  0.94400070  0.54398102  0.01200853  1  1.320205  0  0.681372  0.966864  0  2.375721  0
Zn  Zn5  1  0.05600658  0.51201460  0.04398523  1  1.320332  0  0.681427  0.967029  0  2.375134  0
Zn  Zn6  1  0.94399970  0.40002014  0.04398254  1  1.319797  0  0.681358  0.966789  0  2.37575  0
Zn  Zn7  1  0.05598637  0.54397822  0.90001766  1  1.32012  0  0.681388  0.966848  0  2.375502  0
H  H8  1  0.92368872  0.79813765  0.77816559  1  0.123074  0  0.1134  0.119684  0  0.985  0
H  H9  1  0.07631373  0.70186331  0.72183304  1  0.122997  0  0.113376  0.119659  0  0.985002  0
H  H10  1  0.92368795  0.70185641  0.87444917  1  0.117973  0  0.113377  0.119686  0  0.985059  0
H  H11  1  0.07631450  0.79814455  0.62554945  1  0.118239  0  0.113376  0.119648  0  0.985057  0
H  H12  1  0.92368802  0.12555311  0.29812828  1  0.117943  0  0.113357  0.119574  0  0.98511  0
H  H13  1  0.07631467  0.37444986  0.20187111  1  0.117972  0  0.113349  0.11962  0  0.985093  0
H  H14  1  0.92369098  0.22183653  0.20184695  1  0.122748  0  0.113408  0.119674  0  0.984963  0
H  H15  1  0.07631238  0.27816660  0.29815218  1  0.122723  0  0.113385  0.119633  0  0.985074  0
H  H16  1  0.92266541  0.71502509  0.17496353  1  0.100152  0  0.114747  0.143488  0  0.976731  0
H  H17  1  0.07731885  0.67494850  0.21506718  1  0.101932  0  0.114829  0.143622  0  0.976636  0
H  H18  1  0.92267215  0.82504017  0.28494333  1  0.101543  0  0.114837  0.14358  0  0.976675  0
H  H19  1  0.07727384  0.78489802  0.32511387  1  0.10221  0  0.114726  0.143435  0  0.976662  0
H  H20  1  0.07733713  0.40234392  0.70765518  1  0.118464  0  0.1147  0.143488  0  0.976844  0
H  H21  1  0.92268018  0.20761050  0.90238167  1  0.119381  0  0.114766  0.143437  0  0.976634  0
H  H22  1  0.07727806  0.29237646  0.59763140  1  0.119112  0  0.114804  0.143565  0  0.976737  0
H  H23  1  0.92267423  0.09762975  0.79237325  1  0.1197  0  0.114794  0.143559  0  0.976708  0
H  H24  1  0.60999839  0.40236478  0.17492761  1  0.106549  0  0.11482  0.143658  0  0.976581  0
H  H25  1  0.60999255  0.20761918  0.21506947  1  0.061536  0  0.114778  0.143492  0  0.976654  0
H  H26  1  0.39000912  0.29238596  0.28491593  1  0.061335  0  0.114786  0.143476  0  0.976709  0
H  H27  1  0.39000043  0.09765341  0.32499423  1  0.10671  0  0.114731  0.143575  0  0.976863  0
H  H28  1  0.39001073  0.67490547  0.90236449  1  0.106343  0  0.114759  0.143537  0  0.976743  0
H  H29  1  0.38999629  0.71505831  0.70761018  1  0.061208  0  0.114777  0.143529  0  0.976696  0
H  H30  1  0.61000552  0.78493103  0.79239200  1  0.0614  0  0.11474  0.143554  0  0.976657  0
H  H31  1  0.60998973  0.82501506  0.59765291  1  0.106057  0  0.114723  0.143574  0  0.976768  0
H  H32  1  0.91981158  0.62781728  0.08605593  1  0.632368  0  0.308012  0.355353  0  0.96602  0
H  H33  1  0.08017945  0.58604504  0.12785450  1  0.631116  0  0.307928  0.355117  0  0.966487  0
H  H34  1  0.91981526  0.91394789  0.37215152  1  0.632039  0  0.307957  0.355102  0  0.966557  0
H  H35  1  0.08013061  0.87211193  0.41401605  1  0.631383  0  0.308036  0.355263  0  0.965832  0
H  H36  1  0.08019373  0.49410094  0.79201388  1  0.634238  0  0.308018  0.355337  0  0.966089  0
H  H37  1  0.91982632  0.29196224  0.99414726  1  0.634438  0  0.307932  0.355366  0  0.966171  0
H  H38  1  0.08013001  0.20802124  0.50586819  1  0.634727  0  0.30804  0.3554  0  0.965976  0
H  H39  1  0.91981355  0.00587178  0.70801489  1  0.633639  0  0.308049  0.355453  0  0.965996  0
H  H40  1  0.78611630  0.49412232  0.08602671  1  0.634197  0  0.308053  0.35836  0  0.96114  0
H  H41  1  0.78610951  0.29197240  0.12785991  1  0.636207  0  0.308007  0.355448  0  0.966173  0
H  H42  1  0.21389172  0.20803228  0.37213211  1  0.636052  0  0.307988  0.355432  0  0.966131  0
H  H43  1  0.21388533  0.00589447  0.41390240  1  0.634084  0  0.307979  0.358235  0  0.96143  0
H  H44  1  0.21389219  0.58600738  0.99411749  1  0.634471  0  0.308064  0.358297  0  0.961288  0
H  H45  1  0.21388022  0.62785011  0.79195779  1  0.63678  0  0.307904  0.355324  0  0.966316  0
H  H46  1  0.78612210  0.87214340  0.70804132  1  0.636665  0  0.307937  0.355254  0  0.966344  0
H  H47  1  0.78610584  0.91392169  0.50589640  1  0.634137  0  0.308022  0.35835  0  0.961387  0
C  C48  1  0.18363494  0.09183115  0.40817373  1  1.377358  0  0.218154  0.622534  0  4.138294  0
C  C49  1  0.99999844  0.13929043  0.36071075  1  1.552159  0  0.232184  0.610139  0  4.155662  0
C  C50  1  0.99998745  0.90817727  0.40819063  1  1.380382  0  0.21824  0.622599  0  4.137789  0
C  C51  1  0.81636847  0.90816978  0.59183930  1  1.377069  0  0.218187  0.622481  0  4.138281  0
C  C52  1  0.00000361  0.86071023  0.63928977  1  1.552106  0  0.232378  0.610682  0  4.155018  0
C  C53  1  0.99999112  0.09181698  0.59182003  1  1.395856  0  0.218145  0.622536  0  4.138333  0
C  C54  1  0.99999889  0.59180502  0.09182561  1  1.380249  0  0.218202  0.622433  0  4.1379  0
C  C55  1  0.00000424  0.36071254  0.13928990  1  1.552054  0  0.232382  0.61053  0  4.155539  0
C  C56  1  0.81636484  0.40817524  0.09180964  1  1.360692  0  0.218142  0.622573  0  4.138157  0
C  C57  1  0.99999102  0.40816080  0.90820347  1  1.395721  0  0.218166  0.622432  0  4.138074  0
C  C58  1  0.99999777  0.63928913  0.86070898  1  1.551995  0  0.232375  0.610655  0  4.155067  0
C  C59  1  0.18363325  0.59181111  0.90816166  1  1.377259  0  0.218204  0.622565  0  4.138624  0
C  C60  1  0.00000205  0.80348422  0.69651444  1  0.01114  0  -0.010489  -0.032925  0  3.965782  0
C  C61  1  0.00000052  0.69651698  0.80348437  1  0.011119  0  -0.010451  -0.032871  0  3.965841  0
C  C62  1  0.95682790  0.77666373  0.76650427  1  -0.068297  0  -0.073266  -0.083192  0  3.955289  0
C  C63  1  0.04317523  0.72333739  0.73349451  1  -0.067959  0  -0.073283  -0.083233  0  3.955289  0
C  C64  1  0.95682736  0.72333290  0.81983632  1  -0.04854  0  -0.073293  -0.083355  0  3.955508  0
C  C65  1  0.04317597  0.77666894  0.68016211  1  -0.048368  0  -0.073212  -0.08322  0  3.955321  0
C  C66  1  0.00000148  0.19651700  0.30348405  1  0.011304  0  -0.010577  -0.033041  0  3.96591  0
C  C67  1  0.00000224  0.30348609  0.19651487  1  0.011305  0  -0.010531  -0.03282  0  3.965697  0
C  C68  1  0.95682876  0.18016495  0.27665850  1  -0.04843  0  -0.073204  -0.083016  0  3.955274  0
C  C69  1  0.04317528  0.31983834  0.22333993  1  -0.047684  0  -0.073258  -0.083265  0  3.955315  0
C  C70  1  0.95683043  0.23349637  0.22332798  1  -0.068197  0  -0.07322  -0.08326  0  3.955218  0
C  C71  1  0.04317386  0.26650664  0.27667050  1  -0.068157  0  -0.073223  -0.083145  0  3.955328  0
C  C72  1  0.99999522  0.62817606  0.12820350  1  0.088716  0  -0.057191  -0.346004  0  3.965401  0
C  C73  1  0.95623841  0.65816641  0.13538499  1  0.488375  0  0.09662  0.350254  0  4.070825  0
C  C74  1  0.95649674  0.69297131  0.17039962  1  0.042733  0  -0.10951  -0.289981  0  3.911291  0
C  C75  1  0.99999124  0.69916632  0.19919718  1  0.096274  0  0.013075  0.200022  0  4.15743  0
C  C76  1  0.04348998  0.67037910  0.19300570  1  0.041362  0  -0.109515  -0.290187  0  3.911468  0
C  C77  1  0.04374983  0.63536696  0.15820171  1  0.488531  0  0.096427  0.35039  0  4.071165  0
C  C78  1  0.99998808  0.73467510  0.23471140  1  -0.24866  0  -0.031108  -0.088539  0  4.066172  0
C  C79  1  0.99998118  0.76528323  0.26533003  1  -0.039918  0  -0.030866  -0.088062  0  4.065897  0
C  C80  1  0.99997445  0.80078948  0.30084759  1  0.091929  0  0.01322  0.199982  0  4.157508  0
C  C81  1  0.95649416  0.82959849  0.30701591  1  0.045845  0  -0.109589  -0.290156  0  3.911427  0
C  C82  1  0.95623266  0.86461160  0.34182043  1  0.487495  0  0.096544  0.350431  0  4.070684  0
C  C83  1  0.99997994  0.87178873  0.37183106  1  0.088421  0  -0.057221  -0.346244  0  3.965302  0
C  C84  1  0.04371510  0.84177154  0.36467548  1  0.488812  0  0.096393  0.35007  0  4.0711  0
C  C85  1  0.04345409  0.80696499  0.32966526  1  0.041984  0  -0.10946  -0.2898  0  3.91117  0
C  C86  1  0.00000465  0.37178520  0.87183270  1  0.02037  0  -0.057237  -0.345906  0  3.965184  0
C  C87  1  0.04376461  0.40835181  0.79808865  1  0.534286  0  0.096712  0.350514  0  4.070514  0
C  C88  1  0.04350839  0.37308290  0.76353920  1  0.019839  0  -0.109559  -0.290131  0  3.911087  0
C  C89  1  0.00000766  0.30079606  0.80083971  1  0.102336  0  0.013187  0.199967  0  4.157372  0
C  C90  1  0.95651375  0.26349572  0.87312464  1  0.010766  0  -0.109534  -0.289833  0  3.91134  0
C  C91  1  0.95625447  0.29803708  0.90839866  1  0.532354  0  0.096317  0.350029  0  4.071273  0
C  C92  1  0.00000030  0.26529190  0.76532471  1  -0.040663  0  -0.031124  -0.088571  0  4.066064  0
C  C93  1  0.99998891  0.23468471  0.73469955  1  -0.249641  0  -0.030853  -0.088003  0  4.065747  0
C  C94  1  0.99997849  0.19918221  0.69918313  1  0.102177  0  0.013216  0.199988  0  4.157552  0
C  C95  1  0.04345790  0.23648897  0.62689076  1  0.011042  0  -0.109594  -0.290192  0  3.911685  0
C  C96  1  0.04371557  0.20194756  0.59161893  1  0.532297  0  0.096442  0.350326  0  4.071285  0
C  C97  1  0.99997953  0.12819632  0.62818818  1  0.021184  0  -0.057192  -0.346213  0  3.965478  0
C  C98  1  0.95623086  0.09162322  0.70193898  1  0.532767  0  0.096501  0.350316  0  4.070971  0
C  C99  1  0.95649481  0.12689361  0.73648467  1  0.018656  0  -0.109508  -0.290029  0  3.911554  0
C  C100  1  0.74361758  0.37180114  0.12818868  1  0.098581  0  -0.057131  -0.346105  0  3.965333  0
C  C101  1  0.70643903  0.40837196  0.13536249  1  0.581844  0  0.09658  0.350647  0  4.071469  0
C  C102  1  0.63662278  0.37310184  0.17037286  1  -0.046911  0  -0.109619  -0.290347  0  3.911383  0
C  C103  1  0.60163641  0.30081329  0.19917551  1  0.128406  0  0.013119  0.199832  0  4.157431  0
C  C104  1  0.63661952  0.26350753  0.19300048  1  0.093403  0  -0.109459  -0.289888  0  3.911431  0
C  C105  1  0.70643502  0.29804991  0.15819920  1  0.472878  0  0.096298  0.350198  0  4.07105  0
C  C106  1  0.53061366  0.26530729  0.23467669  1  -0.015502  0  -0.03095  -0.088015  0  4.065905  0
C  C107  1  0.46938795  0.23470470  0.26527576  1  -0.331242  0  -0.03096  -0.088386  0  4.066204  0
C  C108  1  0.39836559  0.19920014  0.30077541  1  0.128116  0  0.013225  0.199933  0  4.157254  0
C  C109  1  0.36338033  0.23650263  0.30697002  1  0.093542  0  -0.109649  -0.289972  0  3.911317  0
C  C110  1  0.29356516  0.20195796  0.34177506  1  0.472056  0  0.096436  0.350212  0  4.071116  0
C  C111  1  0.25638223  0.12821004  0.37177807  1  0.099514  0  -0.057155  -0.345844  0  3.965047  0
C  C112  1  0.29356012  0.09164387  0.36457825  1  0.578863  0  0.096454  0.350185  0  4.071429  0
C  C113  1  0.36337885  0.12691493  0.32956298  1  -0.045169  0  -0.109639  -0.290186  0  3.911433  0
C  C114  1  0.25638062  0.62817744  0.87179534  1  0.100293  0  -0.057254  -0.346274  0  3.965302  0
C  C115  1  0.29356772  0.63534274  0.90836921  1  0.581311  0  0.09643  0.350354  0  4.071435  0
C  C116  1  0.36338038  0.67034998  0.87310053  1  -0.047158  0  -0.109446  -0.290103  0  3.911493  0
C  C117  1  0.39836386  0.69916004  0.80080830  1  0.128306  0  0.013196  0.200071  0  4.157094  0
C  C118  1  0.36337364  0.69298934  0.76350051  1  0.093688  0  -0.109497  -0.2899  0  3.911354  0
C  C119  1  0.29355879  0.65818675  0.79804198  1  0.472467  0  0.096453  0.350286  0  4.071156  0
C  C120  1  0.46938663  0.73467078  0.76530439  1  -0.333976  0  -0.030968  -0.088271  0  4.065953  0
C  C121  1  0.53061432  0.76528056  0.73470942  1  -0.012745  0  -0.030975  -0.088334  0  4.06607  0
C  C122  1  0.60163734  0.80079102  0.69920386  1  0.128508  0  0.013044  0.19992  0  4.157138  0
C  C123  1  0.63662718  0.80698593  0.73650590  1  0.093232  0  -0.109508  -0.290005  0  3.911494  0
C  C124  1  0.70644467  0.84179116  0.70196258  1  0.472269  0  0.096481  0.350303  0  4.071323  0
C  C125  1  0.74362112  0.87178725  0.62821375  1  0.099133  0  -0.057243  -0.346119  0  3.965466  0
C  C126  1  0.70643600  0.86459777  0.59164639  1  0.580263  0  0.096718  0.350745  0  4.071024  0
C  C127  1  0.63661723  0.82958338  0.62691515  1  -0.045013  0  -0.109523  -0.290249  0  3.911059  0
O  O128  1  0.99999931  0.00000036  0.50000007  1  -1.232033  0  -0.574953  -1.024541  0  2.569428  0
O  O129  1  0.15204925  0.02516819  0.43441230  1  -1.190329  0  -0.315005  -0.560945  0  2.372952  0
O  O130  1  0.04037156  0.15729702  0.38307578  1  -1.170638  0  -0.313967  -0.548788  0  2.344967  0
O  O131  1  0.95956485  0.93441967  0.41352873  1  -1.179019  0  -0.315078  -0.559825  0  2.372455  0
O  O132  1  0.15204943  0.12690334  0.41354151  1  -1.17963  0  -0.315093  -0.559958  0  2.372758  0
O  O133  1  0.04042089  0.91353617  0.43442408  1  -1.180794  0  -0.315058  -0.559718  0  2.372976  0
O  O134  1  0.95962147  0.07655770  0.38307031  1  -1.171642  0  -0.314004  -0.548936  0  2.344651  0
O  O135  1  0.84794882  0.93440133  0.52517717  1  -1.190528  0  -0.314999  -0.561023  0  2.372953  0
O  O136  1  0.95963426  0.88307148  0.65729935  1  -1.170603  0  -0.314197  -0.549173  0  2.344882  0
O  O137  1  0.84795787  0.91353062  0.62691670  1  -1.179342  0  -0.315058  -0.559728  0  2.372506  0
O  O138  1  0.04037461  0.88307291  0.57655674  1  -1.171535  0  -0.314005  -0.549079  0  2.344669  0
O  O139  1  0.04042138  0.12689242  0.52515953  1  -1.187616  0  -0.315085  -0.559818  0  2.373173  0
O  O140  1  0.95957524  0.02515167  0.62689874  1  -1.187391  0  -0.315035  -0.5598  0  2.372856  0
O  O141  1  0.00000055  0.50000006  0.99999931  1  -1.232067  0  -0.574932  -1.024463  0  2.56937  0
O  O142  1  0.95956487  0.58644620  0.06559388  1  -1.181083  0  -0.315038  -0.559716  0  2.373068  0
O  O143  1  0.04037937  0.42344551  0.11693081  1  -1.171622  0  -0.313993  -0.549007  0  2.344694  0
O  O144  1  0.84794961  0.37309912  0.08645877  1  -1.1796  0  -0.315041  -0.559857  0  2.372696  0
O  O145  1  0.04043486  0.56557984  0.08647065  1  -1.178774  0  -0.315074  -0.559752  0  2.372477  0
O  O146  1  0.84795121  0.47483838  0.06556869  1  -1.173422  0  -0.315097  -0.561024  0  2.37285  0
O  O147  1  0.95963092  0.34270523  0.11692481  1  -1.170565  0  -0.314216  -0.549148  0  2.345097  0
O  O148  1  0.95955393  0.37308703  0.97486274  1  -1.18805  0  -0.31504  -0.5598  0  2.372714  0
O  O149  1  0.04036492  0.61692567  0.84270052  1  -1.170691  0  -0.314105  -0.549112  0  2.344836  0
O  O150  1  0.04041610  0.47482342  0.87312633  1  -1.187066  0  -0.315065  -0.55982  0  2.373262  0
O  O151  1  0.95962672  0.61692745  0.92344204  1  -1.171462  0  -0.314066  -0.54908  0  2.344692  0
O  O152  1  0.15205182  0.56557796  0.97482391  1  -1.191183  0  -0.315043  -0.561006  0  2.373101  0
O  O153  1  0.15204379  0.58646746  0.87308079  1  -1.178886  0  -0.315048  -0.559732  0  2.372747  0
O  O154  1  0.91345624  0.65408753  0.10887155  1  -1.136678  0  -0.353652  -0.436852  0  2.236425  0
O  O155  1  0.08653352  0.60886097  0.15412708  1  -1.135786  0  -0.353442  -0.436679  0  2.237108  0
O  O156  1  0.91345972  0.89112891  0.34588228  1  -1.136248  0  -0.35359  -0.436709  0  2.237085  0
O  O157  1  0.08647670  0.84582766  0.39121551  1  -1.136214  0  -0.353586  -0.436665  0  2.236439  0
O  O158  1  0.08655440  0.47763884  0.75938901  1  -1.142892  0  -0.353632  -0.436939  0  2.236272  0
O  O159  1  0.91347464  0.25933489  0.97768838  1  -1.143041  0  -0.35336  -0.436717  0  2.236927  0
O  O160  1  0.08647786  0.24065209  0.52232347  1  -1.143108  0  -0.353556  -0.43681  0  2.236698  0
O  O161  1  0.91345565  0.02233351  0.74064034  1  -1.142029  0  -0.353677  -0.43697  0  2.236444  0
O  O162  1  0.73702975  0.47766337  0.10884260  1  -1.142821  0  -0.353699  -0.438992  0  2.233221  0
O  O163  1  0.73702253  0.25934491  0.15413612  1  -1.143235  0  -0.353469  -0.436884  0  2.236723  0
O  O164  1  0.26297818  0.24066135  0.34585080  1  -1.142739  0  -0.353506  -0.436878  0  2.236868  0
O  O165  1  0.26297195  0.02235718  0.39107659  1  -1.1419  0  -0.35344  -0.438654  0  2.233492  0
O  O166  1  0.26297892  0.60881032  0.97766436  1  -1.142928  0  -0.353614  -0.438739  0  2.233464  0
O  O167  1  0.26296595  0.65412150  0.75933447  1  -1.143922  0  -0.353484  -0.43688  0  2.236877  0
O  O168  1  0.73703650  0.84586899  0.74066749  1  -1.143657  0  -0.353532  -0.436826  0  2.236965  0
O  O169  1  0.73701800  0.89110196  0.52235698  1  -1.142408  0  -0.353727  -0.439039  0  2.233137  0
