# generated using pymatgen
data_Tb2H40C52O19
_symmetry_space_group_name_H-M   'P 1'
_cell_length_a   7.03094131
_cell_length_b   14.58252014
_cell_length_c   16.71090000
_cell_angle_alpha   104.01056131
_cell_angle_beta   102.26869027
_cell_angle_gamma   89.96902537
_symmetry_Int_Tables_number   1
_chemical_formula_structural   Tb2H40C52O19
_chemical_formula_sum   'Tb2 H40 C52 O19'
_cell_volume   1622.07020150
_cell_formula_units_Z   1
loop_
 _symmetry_equiv_pos_site_id
 _symmetry_equiv_pos_as_xyz
  1  'x, y, z'
loop_
 _atom_site_type_symbol
 _atom_site_label
 _atom_site_symmetry_multiplicity
 _atom_site_fract_x
 _atom_site_fract_y
 _atom_site_fract_z
 _atom_site_occupancy
 _atom_site_hle17_bader_spin_density
 _atom_site_hle17_ddec_charge
 _atom_site_hle17_ddec_spin_density
 _atom_site_hle17_ddec_sum_bond_order
 _atom_site_hle17_magmom
 _atom_site_hse06_10hf_bader_spin_density
 _atom_site_hse06_10hf_ddec_charge
 _atom_site_hse06_10hf_ddec_spin_density
 _atom_site_hse06_10hf_ddec_sum_bond_order
 _atom_site_hse06_10hf_magmom
 _atom_site_hse06_bader_spin_density
 _atom_site_hse06_ddec_charge
 _atom_site_hse06_ddec_spin_density
 _atom_site_hse06_ddec_sum_bond_order
 _atom_site_hse06_magmom
 _atom_site_pbe_bader_charge
 _atom_site_pbe_bader_spin_density
 _atom_site_pbe_cm5_charge
 _atom_site_pbe_ddec_charge
 _atom_site_pbe_ddec_spin_density
 _atom_site_pbe_ddec_sum_bond_order
 _atom_site_pbe_magmom
Tb  Tb0  1  0.00329896  0.02872958  0.49721241  1  0  2.247254  0  1.705964  0  0  2.108253  0  2.161467  0  0  2.160093  0  2.117533  0  2.158098  0  1.55112  2.067663  0  2.198098  0
Tb  Tb1  1  0.50620925  0.97080557  0.50278631  1  0  2.248495  0  1.703624  0  0  2.109892  0  2.158465  0  0  2.161685  0  2.114628  0  2.159423  0  1.551181  2.069257  0  2.195134  0
H  H2  1  0.19961892  0.46519476  0.89266660  1  0  0.057042  0  0.918155  0  0  0.07044  0  0.981093  0  0  0.071313  0  0.980115  0  0.034321  0  0.099501  0.069736  0  0.981861  0
H  H3  1  0.30678858  0.53549481  0.10768715  1  0  0.057523  0  0.918632  0  0  0.07072  0  0.981362  0  0  0.071669  0  0.980365  0  0.030851  0  0.099774  0.069972  0  0.982163  0
H  H4  1  0.30350727  0.57159753  0.96969494  1  0  0.049002  0  0.932772  0  0  0.059341  0  1.001523  0  0  0.060497  0  0.999868  0  0.04457  0  0.097779  0.058441  0  1.002772  0
H  H5  1  0.33423412  0.42916069  0.03078937  1  0  0.048212  0  0.933498  0  0  0.058443  0  1.002047  0  0  0.059571  0  1.000477  0  0.032678  0  0.096923  0.057555  0  1.003264  0
H  H6  1  0.77586853  0.50031081  0.89236386  1  0  0.0578  0  0.930943  0  0  0.069312  0  0.996975  0  0  0.070337  0  0.995287  0  0.036644  0  0.102414  0.068539  0  0.998254  0
H  H7  1  0.88311431  0.49995266  0.10750763  1  0  0.057754  0  0.929657  0  0  0.068599  0  0.996091  0  0  0.069576  0  0.994383  0  0.057755  0  0.101835  0.067835  0  0.997399  0
H  H8  1  0.72422168  0.57539204  0.82030111  1  0  0.061031  0  0.912773  0  0  0.074643  0  0.974578  0  0  0.075163  0  0.973601  0  0.049886  0  0.104226  0.074228  0  0.975327  0
H  H9  1  0.90427350  0.42451399  0.17926566  1  0  0.060023  0  0.913992  0  0  0.073524  0  0.975666  0  0  0.074043  0  0.974606  0  0.035618  0  0.104015  0.073114  0  0.976453  0
H  H10  1  0.26273067  0.66147814  0.86864567  1  0  0.059036  0  0.918894  0  0  0.07143  0  0.98171  0  0  0.072111  0  0.980431  0  0.046983  0  0.103301  0.070866  0  0.982735  0
H  H11  1  0.39463168  0.33895520  0.13150579  1  0  0.05908  0  0.920278  0  0  0.071559  0  0.982904  0  0  0.07224  0  0.981658  0  0.061736  0  0.103682  0.071008  0  0.983905  0
H  H12  1  0.16162529  0.55855066  0.78652349  1  0  0.065375  0  0.9241  0  0  0.076703  0  0.988101  0  0  0.077426  0  0.98691  0  0.065531  0  0.106408  0.076123  0  0.989033  0
H  H13  1  0.37605197  0.44188197  0.21358441  1  0  0.065662  0  0.924003  0  0  0.076748  0  0.988154  0  0  0.07745  0  0.98702  0  0.059864  0  0.106584  0.076219  0  0.989006  0
H  H14  1  0.88533612  0.72140963  0.92431581  1  0  0.067289  0  0.914484  0  0  0.079575  0  0.974768  0  0  0.080612  0  0.97338  0  0.07634  0  0.106703  0.0788  0  0.975816  0
H  H15  1  0.96192568  0.27887436  0.07539893  1  0  0.066447  0  0.916024  0  0  0.079209  0  0.976143  0  0  0.080195  0  0.974793  0  0.079425  0  0.107236  0.078431  0  0.977222  0
H  H16  1  0.87619739  0.64561848  0.99393207  1  0  0.057253  0  0.934067  0  0  0.067797  0  1.001904  0  0  0.068605  0  1.000477  0  0.05228  0  0.102947  0.067108  0  1.00308  0
H  H17  1  0.88235046  0.35449777  0.00565310  1  0  0.056397  0  0.934785  0  0  0.066821  0  1.003081  0  0  0.067635  0  1.001626  0  0.050291  0  0.102424  0.066137  0  1.004244  0
H  H18  1  0.35232027  0.64716077  0.74532824  1  0  0.098143  0  0.976774  0  0  0.107146  0  1.040694  0  0  0.110629  0  1.039235  0  0.053348  0  0.098506  0.104695  0  1.041804  0
H  H19  1  0.60798948  0.35294344  0.25504383  1  0  0.098205  0  0.975482  0  0  0.106743  0  1.03981  0  0  0.11031  0  1.038269  0  0.05195  0  0.098224  0.104209  0  1.041002  0
H  H20  1  0.48053521  0.73221561  0.65481250  1  0  0.10652  0  0.934903  0  0  0.116937  0  0.992277  0  0  0.120643  0  0.988945  0  0.10167  0  0.109912  0.114213  0  0.99475  0
H  H21  1  0.82651000  0.26733582  0.34553376  1  0  0.105299  0  0.937043  0  0  0.115571  0  0.994588  0  0  0.119155  0  0.991394  0  0.102269  0  0.109318  0.112873  0  0.997048  0
H  H22  1  0.96043813  0.88738717  0.62731564  1  0  0.115367  0  0.957426  0  0  0.121818  0  1.02186  0  0  0.125162  0  1.019112  0  0.110172  0  0.11579  0.119537  0  1.023609  0
H  H23  1  0.33275149  0.11276589  0.37225586  1  0  0.115957  0  0.956084  0  0  0.122895  0  1.019871  0  0  0.126261  0  1.017086  0  0.125642  0  0.116361  0.120585  0  1.021654  0
H  H24  1  0.82804845  0.80282992  0.71823827  1  0  0.119732  0  0.936252  0  0  0.129634  0  0.99411  0  0  0.133481  0  0.992199  0  0.10122  0  0.110531  0.126809  0  0.995759  0
H  H25  1  0.10967074  0.19775419  0.28114301  1  0  0.118128  0  0.935402  0  0  0.128465  0  0.992965  0  0  0.132268  0  0.991081  0  0.101053  0  0.110557  0.1257  0  0.994557  0
H  H26  1  0.42947987  0.78305471  0.13766771  1  0  0.106607  0  0.945503  0  0  0.11815  0  1.00342  0  0  0.121733  0  1.001951  0  0.088045  0  0.103336  0.115609  0  1.004566  0
H  H27  1  0.29257482  0.21774740  0.86258641  1  0  0.107386  0  0.945069  0  0  0.118669  0  1.003189  0  0  0.122413  0  1.001542  0  0.104076  0  0.103282  0.116034  0  1.004427  0
H  H28  1  0.40934027  0.88187837  0.27993421  1  0  0.11312  0  0.951521  0  0  0.121791  0  1.012054  0  0  0.125044  0  1.009292  0  0.12453  0  0.114611  0.119504  0  1.013932  0
H  H29  1  0.12993675  0.11860806  0.72027243  1  0  0.112961  0  0.951086  0  0  0.121543  0  1.011764  0  0  0.124821  0  1.008989  0  0.139386  0  0.113736  0.119159  0  1.013772  0
H  H30  1  0.78814552  0.88451280  0.19769176  1  0  0.103618  0  0.935937  0  0  0.115285  0  0.99184  0  0  0.118616  0  0.989106  0  0.101478  0  0.107937  0.112837  0  0.993851  0
H  H31  1  0.59160663  0.11472720  0.80212899  1  0  0.103887  0  0.93688  0  0  0.115247  0  0.992981  0  0  0.118669  0  0.990139  0  0.101605  0  0.108015  0.112746  0  0.99504  0
H  H32  1  0.80478401  0.78773751  0.05531700  1  0  0.101423  0  0.964982  0  0  0.112316  0  1.023667  0  0  0.115731  0  1.022392  0  0.050521  0  0.101251  0.109906  0  1.024675  0
H  H33  1  0.75068347  0.21192221  0.94448576  1  0  0.102899  0  0.964373  0  0  0.113971  0  1.022682  0  0  0.117374  0  1.021402  0  0.061051  0  0.102195  0.111578  0  1.023665  0
H  H34  1  0.50434609  0.44223446  0.80724258  1  0  0.091079  0  0.982892  0  0  0.099318  0  1.050239  0  0  0.102832  0  1.048634  0  0.050144  0  0.093858  0.096799  0  1.051513  0
H  H35  1  0.69657706  0.55730706  0.19270114  1  0  0.090229  0  0.98448  0  0  0.098388  0  1.051993  0  0  0.101883  0  1.050421  0  0.037336  0  0.09323  0.095901  0  1.0532  0
H  H36  1  0.25484578  0.31757683  0.72007360  1  0  0.101082  0  0.94578  0  0  0.109874  0  1.008973  0  0  0.113356  0  1.006085  0  0.107552  0  0.105761  0.107278  0  1.011179  0
H  H37  1  0.53385403  0.68162777  0.27970127  1  0  0.099772  0  0.946835  0  0  0.109104  0  1.009437  0  0  0.112611  0  1.006551  0  0.084099  0  0.105324  0.1065  0  1.011646  0
H  H38  1  0.65516229  0.20329272  0.56453379  1  0  0.101555  0  0.966738  0  0  0.109893  0  1.031004  0  0  0.112638  0  1.029057  0  0.108009  0  0.115462  0.107937  0  1.032346  0
H  H39  1  0.09012083  0.79649299  0.43569257  1  0  0.10046  0  0.967576  0  0  0.108662  0  1.031998  0  0  0.111515  0  1.029851  0  0.117762  0  0.115231  0.106696  0  1.033407  0
H  H40  1  0.90981654  0.32460599  0.65242345  1  0  0.127374  0  0.936565  0  0  0.137345  0  0.99476  0  0  0.141543  0  0.992172  0  0.12618  0  0.112976  0.134263  0  0.996892  0
H  H41  1  0.25728308  0.67551451  0.34806244  1  0  0.126743  0  0.936952  0  0  0.136532  0  0.99549  0  0  0.140645  0  0.992984  0  0.071211  0  0.112408  0.133513  0  0.99755  0
C  C42  1  0.02332014  0.58798804  0.89316359  1  0  0.023056  0  3.604347  0  0  0.03821  0  3.850328  0  0  0.035226  0  3.867652  0  0.058975  0  -0.022809  0.040225  0  3.83853  0
C  C43  1  0.13043020  0.41249839  0.10677759  1  0  0.02304  0  3.607004  0  0  0.04054  0  3.848786  0  0  0.037384  0  3.866436  0  0.059399  0  -0.022529  0.042796  0  3.836371  0
C  C44  1  0.16694263  0.52839558  0.93858254  1  0  0.045819  0  3.639733  0  0  -0.019979  0  3.912988  0  0  -0.013378  0  3.919709  0  0.45907  0  -0.068774  -0.024347  0  3.908265  0
C  C45  1  0.22843370  0.47224798  0.06162469  1  0  0.044415  0  3.645301  0  0  -0.02052  0  3.915287  0  0  -0.01411  0  3.922486  0  0.470215  0  -0.068202  -0.02483  0  3.910382  0
C  C46  1  0.83302787  0.52996265  0.84689371  1  0  0.053017  0  3.606236  0  0  -0.013315  0  3.876082  0  0  -0.005477  0  3.88197  0  0.444691  0  -0.061187  -0.01862  0  3.872015  0
C  C47  1  0.98617761  0.47023288  0.15296047  1  0  0.056634  0  3.604072  0  0  -0.00959  0  3.871807  0  0  -0.001598  0  3.877335  0  0.442167  0  -0.059669  -0.014986  0  3.867924  0
C  C48  1  0.12650289  0.62061193  0.83251077  1  0  0.047794  0  3.615944  0  0  -0.017685  0  3.885489  0  0  -0.009565  0  3.890849  0  0.417564  0  -0.062492  -0.023143  0  3.881749  0
C  C49  1  0.29465975  0.37986247  0.16752645  1  0  0.047594  0  3.61875  0  0  -0.018421  0  3.887513  0  0  -0.010318  0  3.893007  0  0.411832  0  -0.063243  -0.023923  0  3.883727  0
C  C50  1  0.96743754  0.67201586  0.95738117  1  0  0.049522  0  3.601257  0  0  -0.01721  0  3.871553  0  0  -0.009264  0  3.87688  0  0.416769  0  -0.062928  -0.022524  0  3.867861  0
C  C51  1  0.01055828  0.32833821  0.04241619  1  0  0.051246  0  3.603544  0  0  -0.017289  0  3.875164  0  0  -0.009319  0  3.880329  0  0.410793  0  -0.063074  -0.022646  0  3.871538  0
C  C52  1  0.08253557  0.72133744  0.73867476  1  0  0.292362  0  3.804025  0  0  0.282044  0  4.062197  0  0  0.295975  0  4.078129  0  0.451336  0  0.090482  0.272644  0  4.051256  0
C  C53  1  0.34436330  0.27900531  0.26125207  1  0  0.290464  0  3.80599  0  0  0.281017  0  4.062937  0  0  0.294951  0  4.078869  0  0.434355  0  0.090051  0.271621  0  4.051996  0
C  C54  1  0.26634706  0.70027899  0.72075700  1  0  -0.226109  0  3.804158  0  0  -0.243943  0  4.054898  0  0  -0.253096  0  4.076295  0  -0.014255  0  -0.116556  -0.237982  0  4.040453  0
C  C55  1  0.54632474  0.29981602  0.27941515  1  0  -0.226056  0  3.80167  0  0  -0.243748  0  4.052125  0  0  -0.252951  0  4.073363  0  -0.049057  0  -0.116584  -0.237728  0  4.037771  0
C  C56  1  0.33870859  0.74766828  0.66990377  1  0  -0.02807  0  3.758286  0  0  -0.051393  0  4.002621  0  0  -0.047077  0  4.021922  0  -0.05685  0  -0.077524  -0.053892  0  3.989449  0
C  C57  1  0.66937095  0.25215423  0.33027598  1  0  -0.026355  0  3.758542  0  0  -0.05002  0  4.002526  0  0  -0.045589  0  4.021864  0  -0.054384  0  -0.076701  -0.052555  0  3.98933  0
C  C58  1  0.23079991  0.81601056  0.63691735  1  0  -0.101061  0  3.779849  0  0  -0.082077  0  4.016821  0  0  -0.095034  0  4.041932  0  -0.020007  0  -0.027616  -0.073767  0  3.99999  0
C  C59  1  0.59398055  0.18384876  0.36302015  1  0  -0.09962  0  3.780958  0  0  -0.079026  0  4.016194  0  0  -0.092052  0  4.041412  0  0.046592  0  -0.026678  -0.070663  0  3.999267  0
C  C60  1  0.04561717  0.83536958  0.65403752  1  0  -0.012392  0  3.694595  0  0  -0.037337  0  3.943617  0  0  -0.032798  0  3.962514  0  0.027096  0  -0.06738  -0.040016  0  3.930604  0
C  C61  1  0.39146391  0.16475658  0.34567676  1  0  -0.014192  0  3.695979  0  0  -0.040237  0  3.945139  0  0  -0.035694  0  3.964062  0  -0.069264  0  -0.067971  -0.042913  0  3.93213  0
C  C62  1  0.97121223  0.78818909  0.70438116  1  0  -0.187285  0  3.733454  0  0  -0.207753  0  3.987047  0  0  -0.215788  0  4.005761  0  -0.060977  0  -0.099208  -0.202576  0  3.974603  0
C  C63  1  0.26690822  0.21218055  0.29527941  1  0  -0.184059  0  3.732678  0  0  -0.205163  0  3.986484  0  0  -0.21315  0  4.005193  0  0.003466  0  -0.09943  -0.20005  0  3.974023  0
C  C64  1  0.11908968  0.77742771  0.08856657  1  0  0.290895  0  3.804819  0  0  0.280791  0  4.063305  0  0  0.295095  0  4.078426  0  0.40923  0  0.086022  0.271174  0  4.05296  0
C  C65  1  0.03142800  0.22286195  0.91146471  1  0  0.292435  0  3.804913  0  0  0.282161  0  4.063459  0  0  0.296338  0  4.07866  0  0.398692  0  0.087166  0.272562  0  4.053081  0
C  C66  1  0.28987359  0.80651684  0.15127517  1  0  -0.196995  0  3.754527  0  0  -0.218384  0  4.010374  0  0  -0.226611  0  4.029539  0  -0.056062  0  -0.106774  -0.213097  0  3.997493  0
C  C67  1  0.13940420  0.19397595  0.84889426  1  0  -0.196431  0  3.755781  0  0  -0.217325  0  4.011314  0  0  -0.225698  0  4.030542  0  -0.080486  0  -0.105487  -0.211943  0  3.998393  0
C  C68  1  0.27836052  0.86187100  0.23016100  1  0  -0.016236  0  3.716652  0  0  -0.042386  0  3.967354  0  0  -0.037795  0  3.986255  0  -0.054396  0  -0.071034  -0.045117  0  3.954425  0
C  C69  1  0.04898678  0.13839813  0.76998994  1  0  -0.019254  0  3.716838  0  0  -0.04558  0  3.967887  0  0  -0.041047  0  3.986888  0  -0.01865  0  -0.071836  -0.048215  0  3.95489  0
C  C70  1  0.09679999  0.88876738  0.24766488  1  0  -0.098979  0  3.773054  0  0  -0.078717  0  4.009686  0  0  -0.0915  0  4.03539  0  0.067697  0  -0.026617  -0.070563  0  3.992493  0
C  C71  1  0.85000547  0.11107425  0.75234736  1  0  -0.096192  0  3.772154  0  0  -0.076026  0  4.008963  0  0  -0.088814  0  4.034709  0  0.04084  0  -0.026026  -0.067861  0  3.991708  0
C  C72  1  0.92795789  0.86207202  0.18370035  1  0  -0.024017  0  3.750172  0  0  -0.048681  0  3.997403  0  0  -0.044333  0  4.016949  0  -0.046243  0  -0.07694  -0.051187  0  3.983978  0
C  C73  1  0.74527598  0.13751975  0.81619091  1  0  -0.022753  0  3.751277  0  0  -0.046974  0  3.998317  0  0  -0.042686  0  4.017828  0  -0.069727  0  -0.076079  -0.049442  0  3.984907  0
C  C74  1  0.93758172  0.80706043  0.10424822  1  0  -0.225163  0  3.796405  0  0  -0.24365  0  4.048387  0  0  -0.252546  0  4.069299  0  -0.0126  0  -0.116334  -0.237867  0  4.034222  0
C  C75  1  0.83438224  0.19275783  0.89563570  1  0  -0.228967  0  3.797124  0  0  -0.24763  0  4.049244  0  0  -0.25654  0  4.070189  0  -0.001025  0  -0.118188  -0.241859  0  4.035101  0
C  C76  1  0.07569580  0.94000851  0.33289566  1  0  0.687386  0  3.886479  0  0  0.642281  0  4.176841  0  0  0.678061  0  4.166868  0  1.52554  0  0.213814  0.618054  0  4.182545  0
C  C77  1  0.74343321  0.05964342  0.66710194  1  0  0.688571  0  3.88458  0  0  0.643357  0  4.175095  0  0  0.679152  0  4.165112  0  1.515265  0  0.214987  0.619114  0  4.180785  0
C  C78  1  0.72388641  0.39149232  0.73512751  1  0  0.288403  0  3.801637  0  0  0.27918  0  4.057537  0  0  0.292868  0  4.07339  0  0.443696  0  0.089158  0.269917  0  4.046647  0
C  C79  1  0.98847803  0.60835143  0.26502960  1  0  0.292356  0  3.799294  0  0  0.282989  0  4.054587  0  0  0.296496  0  4.070527  0  0.365508  0  0.090388  0.273822  0  4.043659  0
C  C80  1  0.53882155  0.39022394  0.75420044  1  0  -0.231686  0  3.804519  0  0  -0.249982  0  4.057586  0  0  -0.258756  0  4.078834  0  -0.064136  0  -0.120186  -0.244229  0  4.043242  0
C  C81  1  0.78411444  0.60937420  0.24581528  1  0  -0.231872  0  3.804458  0  0  -0.250244  0  4.057763  0  0  -0.259018  0  4.079107  0  0.002796  0  -0.120097  -0.244502  0  4.043356  0
C  C82  1  0.39788922  0.32048730  0.70503667  1  0  -0.036447  0  3.754257  0  0  -0.059522  0  3.999732  0  0  -0.055794  0  4.019422  0  -0.047259  0  -0.081541  -0.06165  0  3.98633  0
C  C83  1  0.69212386  0.67893176  0.29490242  1  0  -0.036317  0  3.754172  0  0  -0.060307  0  4.000014  0  0  -0.056623  0  4.019683  0  -0.048562  0  -0.081511  -0.062424  0  3.98661  0
C  C84  1  0.43803125  0.25252441  0.63647874  1  0  -0.09227  0  3.766144  0  0  -0.071275  0  4.000302  0  0  -0.083154  0  4.024755  0  0.011097  0  -0.024605  -0.063662  0  3.983856  0
C  C85  1  0.80085098  0.74699446  0.36353816  1  0  -0.090184  0  3.764785  0  0  -0.068571  0  3.997523  0  0  -0.08042  0  4.022035  0  0.03263  0  -0.023738  -0.060972  0  3.981051  0
C  C86  1  0.62298793  0.25578949  0.61765221  1  0  -0.018805  0  3.713336  0  0  -0.045656  0  3.96473  0  0  -0.041904  0  3.984632  0  0.021811  0  -0.070075  -0.047756  0  3.951021  0
C  C87  1  0.00484576  0.74391624  0.38252642  1  0  -0.016867  0  3.712762  0  0  -0.043508  0  3.963369  0  0  -0.039789  0  3.983159  0  -0.047342  0  -0.069366  -0.04563  0  3.949662  0
C  C88  1  0.76551859  0.32392155  0.66645054  1  0  -0.175133  0  3.713487  0  0  -0.196742  0  3.968163  0  0  -0.204121  0  3.986544  0  -0.09146  0  -0.094843  -0.191949  0  3.955887  0
C  C89  1  0.09879769  0.67595830  0.33383529  1  0  -0.177173  0  3.713182  0  0  -0.198943  0  3.968297  0  0  -0.206232  0  3.986715  0  0.059906  0  -0.095857  -0.194212  0  3.956003  0
C  C90  1  0.28953735  0.17685004  0.58723417  1  0  0.691545  0  3.869718  0  0  0.645782  0  4.158155  0  0  0.682422  0  4.146275  0  1.513472  0  0.212459  0.620992  0  4.16509  0
C  C91  1  0.70153928  0.82258247  0.41273133  1  0  0.693016  0  3.869898  0  0  0.647925  0  4.156775  0  0  0.684532  0  4.14495  0  1.491384  0  0.214795  0.623139  0  4.163683  0
C  C92  1  0.31682665  0.86603923  0.58556293  1  0  0.698519  0  3.862101  0  0  0.654309  0  4.149817  0  0  0.690755  0  4.138333  0  1.504737  0  0.211002  0.629583  0  4.156658  0
C  C93  1  0.73121950  0.13359288  0.41441694  1  0  0.697203  0  3.863451  0  0  0.652042  0  4.152237  0  0  0.688494  0  4.140869  0  1.501833  0  0.210398  0.627316  0  4.158989  0
O  O94  1  0.22586913  0.96192056  0.39568495  1  0  -0.836984  0  2.136242  0  0  -0.781479  0  2.405095  0  0  -0.807607  0  2.392393  0  -1.234266  0  -0.44643  -0.762235  0  2.412574  0
O  O95  1  0.83035715  0.03787010  0.60433509  1  0  -0.839242  0  2.134921  0  0  -0.783132  0  2.402507  0  0  -0.809264  0  2.389858  0  -1.225504  0  -0.447684  -0.763959  0  2.410133  0
O  O96  1  0.90834869  0.96124320  0.34584845  1  0  -0.666169  0  2.007468  0  0  -0.620954  0  2.23942  0  0  -0.645913  0  2.232313  0  -1.169779  0  -0.362434  -0.603439  0  2.243676  0
O  O97  1  0.56317319  0.03810438  0.65409667  1  0  -0.666747  0  2.007033  0  0  -0.621368  0  2.238664  0  0  -0.646342  0  2.231606  0  -1.172182  0  -0.362847  -0.603822  0  2.242877  0
O  O98  1  0.48205603  0.84565744  0.56923971  1  0  -0.659498  0  1.939432  0  0  -0.615641  0  2.163856  0  0  -0.639346  0  2.154801  0  -1.157091  0  -0.373378  -0.598996  0  2.169631  0
O  O99  1  0.91300513  0.15375172  0.43080782  1  0  -0.659749  0  1.940318  0  0  -0.61559  0  2.165046  0  0  -0.639315  0  2.156036  0  -1.164025  0  -0.374324  -0.598959  0  2.170814  0
O  O100  1  0.22355737  0.93272030  0.55661682  1  0  -0.855874  0  2.147493  0  0  -0.799259  0  2.416026  0  0  -0.825811  0  2.402857  0  -1.223759  0  -0.472795  -0.779872  0  2.424173  0
O  O101  1  0.66674219  0.06699463  0.44329489  1  0  -0.854602  0  2.145533  0  0  -0.797671  0  2.413615  0  0  -0.824098  0  2.400267  0  -1.218121  0  -0.471987  -0.778358  0  2.421893  0
O  O102  1  0.33067781  0.11046625  0.52689583  1  0  -0.835083  0  2.150165  0  0  -0.778208  0  2.410177  0  0  -0.80567  0  2.400206  0  -1.214636  0  -0.450565  -0.758183  0  2.415917  0
O  O103  1  0.80327845  0.88911845  0.47303596  1  0  -0.836002  0  2.151088  0  0  -0.779399  0  2.410923  0  0  -0.806887  0  2.401025  0  -1.20993  0  -0.451908  -0.75939  0  2.416721  0
O  O104  1  0.12125688  0.17496942  0.60312746  1  0  -0.664316  0  1.977737  0  0  -0.619821  0  2.216314  0  0  -0.644005  0  2.207078  0  -1.164684  0  -0.358089  -0.602788  0  2.222073  0
O  O105  1  0.51720060  0.82430101  0.39686899  1  0  -0.666374  0  1.976893  0  0  -0.622574  0  2.215663  0  0  -0.646724  0  2.206441  0  -1.144883  0  -0.359561  -0.605567  0  2.221431  0
O  O106  1  0.00233067  0.67934937  0.78952143  1  0  -0.27793  0  2.308321  0  0  -0.208783  0  2.539714  0  0  -0.227085  0  2.540838  0  -1.076695  0  -0.1785  -0.19578  0  2.538336  0
O  O107  1  0.21334736  0.32118449  0.21034079  1  0  -0.277832  0  2.311996  0  0  -0.208831  0  2.543274  0  0  -0.227122  0  2.544417  0  -1.075331  0  -0.177984  -0.195862  0  2.541913  0
O  O108  1  0.87327135  0.45569043  0.78045757  1  0  -0.276586  0  2.322616  0  0  -0.205598  0  2.554757  0  0  -0.224087  0  2.556693  0  -1.07534  0  -0.175845  -0.192459  0  2.552835  0
O  O109  1  0.09272300  0.54444705  0.21968475  1  0  -0.279206  0  2.321933  0  0  -0.207386  0  2.553086  0  0  -0.225647  0  2.554803  0  -1.087108  0  -0.175669  -0.194405  0  2.551305  0
O  O110  1  0.14124638  0.71911920  0.01383262  1  0  -0.282682  0  2.307981  0  0  -0.211905  0  2.539659  0  0  -0.230172  0  2.540604  0  -1.082357  0  -0.180336  -0.19907  0  2.53853  0
O  O111  1  0.12819556  0.28141182  0.98621366  1  0  -0.283368  0  2.308032  0  0  -0.21233  0  2.540471  0  0  -0.230352  0  2.541218  0  -1.078384  0  -0.181462  -0.199542  0  2.539372  0
O  O112  1  0.08375582  0.50025985  0.99996722  1  0  -0.298325  0  2.283599  0  0  -0.226195  0  2.533513  0  0  -0.242214  0  2.536216  0  -1.076243  0  -0.2271  -0.214889  0  2.531216  0
