# generated using pymatgen
data_Tm2CuH16C24(N2O5)4
_symmetry_space_group_name_H-M   'P 1'
_cell_length_a   6.02226079
_cell_length_b   12.10501386
_cell_length_c   21.60891576
_cell_angle_alpha   90.00013541
_cell_angle_beta   89.99941666
_cell_angle_gamma   92.51997700
_symmetry_Int_Tables_number   1
_chemical_formula_structural   Tm2CuH16C24(N2O5)4
_chemical_formula_sum   'Tm4 Cu2 H32 C48 N16 O40'
_cell_volume   1573.75686983
_cell_formula_units_Z   2
loop_
 _symmetry_equiv_pos_site_id
 _symmetry_equiv_pos_as_xyz
  1  'x, y, z'
loop_
 _atom_site_type_symbol
 _atom_site_label
 _atom_site_symmetry_multiplicity
 _atom_site_fract_x
 _atom_site_fract_y
 _atom_site_fract_z
 _atom_site_occupancy
 _atom_site_pbe_bader_charge
 _atom_site_pbe_bader_spin_density
 _atom_site_pbe_cm5_charge
 _atom_site_pbe_ddec_charge
 _atom_site_pbe_ddec_spin_density
 _atom_site_pbe_ddec_sum_bond_order
 _atom_site_pbe_magmom
Tm  Tm0  1  0.01879882  0.06479120  0.34189723  1  2.18855  7.6e-05  1.55463  2.050544  8.5e-05  2.185118  0.0
Tm  Tm1  1  0.48119294  0.43520741  0.84189829  1  2.1886  7.6e-05  1.554605  2.050595  8.5e-05  2.185022  0.0
Tm  Tm2  1  0.98120496  0.93520968  0.65810229  1  2.188464  7.6e-05  1.554603  2.050581  8.5e-05  2.185041  0.0
Tm  Tm3  1  0.51879553  0.56479025  0.15810401  1  2.188583  7.6e-05  1.554601  2.050591  8.5e-05  2.185001  0.0
Cu  Cu4  1  0.50000955  0.50000205  0.49999814  1  1.087109  0.570879  0.767511  0.771712  0.730739  2.283311  0.569
Cu  Cu5  1  0.99999808  0.00000194  0.00000142  1  1.087057  0.570879  0.767477  0.77162  0.730738  2.283352  0.569
H  H6  1  0.60411888  0.08066400  0.41111738  1  0.667529  1e-05  0.316933  0.427166  9e-06  0.879671  0.0
H  H7  1  0.89587000  0.41933164  0.91111594  1  0.667589  1e-05  0.316888  0.427039  9e-06  0.879838  0.0
H  H8  1  0.39588177  0.91933855  0.58888446  1  0.667519  1e-05  0.316975  0.427198  9e-06  0.879621  0.0
H  H9  1  0.10411249  0.58067186  0.08888589  1  0.667513  1e-05  0.316924  0.427099  9e-06  0.87978  0.0
H  H10  1  0.78602266  0.15050365  0.45413949  1  0.657797  0.000321  0.306805  0.418423  0.000346  0.901574  0.0
H  H11  1  0.71396478  0.34949447  0.95413980  1  0.657781  0.000321  0.306848  0.418469  0.000346  0.9015  0.0
H  H12  1  0.21398250  0.84949474  0.54586281  1  0.658055  0.000321  0.30687  0.418556  0.000346  0.901386  0.0
H  H13  1  0.28602222  0.65050486  0.04586250  1  0.65786  0.000321  0.306828  0.418471  0.000346  0.901481  0.0
H  H14  1  0.87930438  0.84111165  0.36872465  1  0.657921  -2e-06  0.304461  0.41862  -5e-06  0.909718  0.0
H  H15  1  0.62068868  0.65888872  0.86872258  1  0.657983  -2e-06  0.304431  0.41864  -5e-06  0.909695  0.0
H  H16  1  0.12070827  0.15889414  0.63127487  1  0.657869  -2e-06  0.304475  0.418588  -5e-06  0.909711  0.0
H  H17  1  0.37930183  0.34111225  0.13127555  1  0.657903  -2e-06  0.304474  0.418659  -5e-06  0.909653  0.0
H  H18  1  0.06414444  0.85113006  0.42141387  1  0.672442  -3.5e-05  0.307078  0.429015  -7e-05  0.879876  0.0
H  H19  1  0.43584495  0.64886850  0.92141205  1  0.67247  -3.5e-05  0.307081  0.429061  -7e-05  0.879773  0.0
H  H20  1  0.93587143  0.14887488  0.57858611  1  0.67238  -3.5e-05  0.307114  0.429  -7e-05  0.879913  0.0
H  H21  1  0.56414380  0.35113165  0.07858608  1  0.672465  -3.5e-05  0.307068  0.428995  -7e-05  0.879871  0.0
H  H22  1  0.99858283  0.58411100  0.31443569  1  0.125512  0.001197  0.1251  0.108955  0.000649  0.980245  0.001
H  H23  1  0.50143344  0.91589972  0.81444016  1  0.125715  0.001196  0.125084  0.109043  0.000648  0.980194  0.001
H  H24  1  0.00143660  0.41588151  0.68555920  1  0.125645  0.001197  0.125124  0.109116  0.000648  0.980235  0.001
H  H25  1  0.49857505  0.08409865  0.18556306  1  0.12552  0.001196  0.125066  0.108997  0.000648  0.980143  0.001
H  H26  1  0.68456884  0.62540688  0.38734162  1  0.202302  0.00237  0.13143  0.127147  0.001127  1.014621  0.002
H  H27  1  0.81543954  0.87459269  0.88734626  1  0.202353  0.00237  0.131382  0.127128  0.001127  1.014522  0.002
H  H28  1  0.31545207  0.37458396  0.61265142  1  0.202107  0.002371  0.131389  0.127101  0.001127  1.014626  0.002
H  H29  1  0.18455870  0.12540326  0.11265835  1  0.202349  0.00237  0.13141  0.127132  0.001127  1.014561  0.002
H  H30  1  0.53480679  0.23340569  0.35016603  1  0.161678  -4e-06  0.129566  0.105861  -4e-06  1.028756  0.0
H  H31  1  0.96518465  0.26660062  0.85016483  1  0.161479  -4e-06  0.129556  0.105798  -4e-06  1.028755  0.0
H  H32  1  0.46518087  0.76659943  0.64983257  1  0.161465  -4e-06  0.129564  0.105837  -4e-06  1.028735  0.0
H  H33  1  0.03482430  0.73340188  0.14983515  1  0.161542  -4e-06  0.129577  0.105837  -4e-06  1.028756  0.0
H  H34  1  0.37550038  0.39597495  0.29431126  1  0.169485  1e-06  0.120649  0.087735  -2e-06  1.053465  0.0
H  H35  1  0.12449420  0.10402321  0.79431429  1  0.169651  1e-06  0.120619  0.087682  -2e-06  1.053415  0.0
H  H36  1  0.62447454  0.60402032  0.70568317  1  0.169656  1e-06  0.120595  0.087578  -2e-06  1.053475  0.0
H  H37  1  0.87551087  0.89597435  0.20568755  1  0.169739  1e-06  0.120576  0.087547  -2e-06  1.053458  0.0
C  C38  1  0.96263992  0.53106820  0.35428502  1  0.587288  0.005889  0.067591  0.087478  0.004071  3.89299  0.005
C  C39  1  0.53737836  0.96893475  0.85428756  1  0.587152  0.005887  0.067597  0.087473  0.00407  3.893147  0.005
C  C40  1  0.03738246  0.46892098  0.64571219  1  0.587425  0.005887  0.067415  0.087126  0.00407  3.893373  0.005
C  C41  1  0.46261851  0.03106369  0.14571381  1  0.587299  0.005887  0.067604  0.08753  0.004069  3.892909  0.005
C  C42  1  0.78633649  0.55428168  0.39372113  1  0.442453  -0.001011  0.062561  0.063153  -0.001566  3.848062  -0.001
C  C43  1  0.71366348  0.94572518  0.89372446  1  0.44162  -0.001007  0.062588  0.063187  -0.001566  3.847973  -0.001
C  C44  1  0.21366838  0.44571423  0.60627377  1  0.44181  -0.001008  0.062599  0.063285  -0.001565  3.848426  -0.001
C  C45  1  0.28633191  0.05427492  0.10627830  1  0.441961  -0.001009  0.062538  0.063076  -0.001565  3.848014  -0.001
C  C46  1  0.86332810  0.39883674  0.45189675  1  0.428592  -2e-06  0.113059  0.0242  -0.001167  3.93003  0.0
C  C47  1  0.63668618  0.10116597  0.95190059  1  0.429939  -3e-06  0.113107  0.024323  -0.001167  3.930306  0.0
C  C48  1  0.13668968  0.60115578  0.54810139  1  0.42953  -4e-06  0.113117  0.024094  -0.001167  3.930483  0.0
C  C49  1  0.36330618  0.89883664  0.04809939  1  0.430228  -4e-06  0.113092  0.024163  -0.001168  3.930441  0.0
C  C50  1  0.79625568  0.33336060  0.50900277  1  1.642877  0.001358  0.214048  0.560994  0.001665  4.216423  0.001
C  C51  1  0.70375483  0.16664506  0.00900787  1  1.642434  0.001358  0.214072  0.560855  0.001666  4.2166  0.001
C  C52  1  0.20376304  0.66664018  0.49099490  1  1.642516  0.001358  0.214234  0.561422  0.001666  4.216239  0.001
C  C53  1  0.29623918  0.83335754  0.99099165  1  1.642799  0.001357  0.214021  0.560868  0.001665  4.216384  0.001
C  C54  1  0.04150210  0.37894816  0.41250174  1  0.60606  0.002857  0.133456  0.061719  0.001935  3.93933  0.002
C  C55  1  0.45851077  0.12106290  0.91251003  1  0.605346  0.002858  0.133415  0.061718  0.001936  3.93947  0.002
C  C56  1  0.95852003  0.62105343  0.58749547  1  0.60555  0.002859  0.13334  0.061777  0.001935  3.939186  0.002
C  C57  1  0.54147955  0.87893641  0.08749226  1  0.605306  0.002858  0.133498  0.061832  0.001935  3.939584  0.002
C  C58  1  0.62468516  0.27524973  0.31261781  1  0.510478  -3e-06  0.06933  0.092363  -5e-06  3.865196  0.0
C  C59  1  0.87530571  0.22474552  0.81261627  1  0.510715  -3e-06  0.069347  0.092443  -5e-06  3.865185  0.0
C  C60  1  0.37529667  0.72474798  0.68738356  1  0.510671  -3e-06  0.069268  0.092178  -5e-06  3.865268  0.0
C  C61  1  0.12470305  0.77525532  0.18738510  1  0.510728  -3e-06  0.069283  0.092319  -5e-06  3.865257  0.0
C  C62  1  0.53892392  0.36637892  0.28246996  1  0.488023  -3.6e-05  0.067586  0.088717  -5.6e-05  3.871205  0.0
C  C63  1  0.96106246  0.13362174  0.78247280  1  0.487869  -3.6e-05  0.067588  0.08879  -5.6e-05  3.871254  0.0
C  C64  1  0.46105322  0.63362130  0.71752539  1  0.487884  -3.6e-05  0.067589  0.088986  -5.6e-05  3.871026  0.0
C  C65  1  0.03894132  0.86637914  0.21752903  1  0.487121  -3.6e-05  0.067664  0.089022  -5.6e-05  3.87105  0.0
C  C66  1  0.86033927  0.38735174  0.22524372  1  0.506676  -1.1e-05  0.138647  0.071115  -1.4e-05  3.897305  0.0
C  C67  1  0.63965546  0.11264833  0.72524305  1  0.506199  -1.1e-05  0.138594  0.071021  -1.4e-05  3.897345  0.0
C  C68  1  0.13963806  0.61265013  0.77475627  1  0.506269  -1.1e-05  0.138597  0.07088  -1.4e-05  3.897465  0.0
C  C69  1  0.36034833  0.88735255  0.27475786  1  0.506751  -1.1e-05  0.138552  0.071067  -1.4e-05  3.897268  0.0
C  C70  1  0.93371644  0.28811586  0.24993337  1  0.552202  -1.9e-05  0.131341  0.066316  -3.5e-05  3.92182  0.0
C  C71  1  0.56628209  0.21187829  0.74993209  1  0.551994  -1.9e-05  0.131369  0.0663  -3.5e-05  3.921771  0.0
C  C72  1  0.06627673  0.71187929  0.75006708  1  0.552188  -1.9e-05  0.131375  0.06639  -3.5e-05  3.921912  0.0
C  C73  1  0.43371700  0.78812511  0.25007021  1  0.551787  -1.9e-05  0.131381  0.066219  -3.5e-05  3.921985  0.0
C  C74  1  0.13283202  0.22932744  0.22636506  1  1.639415  1.5e-05  0.220986  0.584076  1.3e-05  4.233049  0.0
C  C75  1  0.36716486  0.27067162  0.72636473  1  1.639555  1.5e-05  0.220957  0.584099  1.3e-05  4.233316  0.0
C  C76  1  0.86715821  0.77067104  0.77363539  1  1.639634  1.5e-05  0.220964  0.5841  1.3e-05  4.233143  0.0
C  C77  1  0.63283433  0.72933260  0.27363664  1  1.63986  1.5e-05  0.221016  0.584173  1.3e-05  4.233126  0.0
C  C78  1  0.99713251  0.46767498  0.18554507  1  1.639708  1e-06  0.247185  0.633004  3e-06  4.139083  0.0
C  C79  1  0.50287200  0.03231956  0.68554299  1  1.639598  1e-06  0.247282  0.633206  3e-06  4.138853  0.0
C  C80  1  0.00286213  0.53231851  0.81445815  1  1.639458  1e-06  0.247273  0.633249  3e-06  4.139028  0.0
C  C81  1  0.49713226  0.96768546  0.31445792  1  1.639237  1e-06  0.24721  0.633011  3e-06  4.139183  0.0
C  C82  1  0.20626481  0.29058123  0.42430700  1  1.65223  0.001413  0.229035  0.621319  0.000959  4.21701  0.001
C  C83  1  0.29373560  0.20942526  0.92431447  1  1.652885  0.001414  0.229178  0.621434  0.000959  4.217014  0.001
C  C84  1  0.79374542  0.70941796  0.57569252  1  1.652654  0.001413  0.228993  0.62121  0.000959  4.216956  0.001
C  C85  1  0.70625306  0.79057406  0.07568783  1  1.651983  0.001413  0.229153  0.621526  0.000959  4.217056  0.001
N  N86  1  0.74035452  0.48723903  0.44135824  1  -1.206206  0.075531  -0.343726  -0.206303  0.050168  3.696444  0.065
N  N87  1  0.75965421  0.01276932  0.94136446  1  -1.205905  0.075524  -0.343616  -0.20623  0.050166  3.696289  0.065
N  N88  1  0.25966041  0.51275764  0.55863619  1  -1.206158  0.075525  -0.34368  -0.20624  0.050165  3.69667  0.065
N  N89  1  0.24033980  0.98723328  0.05863737  1  -1.206353  0.075523  -0.343595  -0.20607  0.050164  3.696344  0.065
N  N90  1  0.08811405  0.44430622  0.36321300  1  -1.166587  -0.002456  -0.284714  -0.229827  -0.003052  3.29892  -0.002
N  N91  1  0.41190299  0.05570339  0.86321585  1  -1.166209  -0.002458  -0.28475  -0.230007  -0.003054  3.299061  -0.002
N  N92  1  0.91191406  0.55568954  0.63678791  1  -1.166184  -0.002457  -0.28455  -0.229754  -0.003053  3.298648  -0.002
N  N93  1  0.58809203  0.94429341  0.13678553  1  -1.166228  -0.002458  -0.284854  -0.230087  -0.003054  3.299094  -0.002
N  N94  1  0.81620269  0.23374301  0.29431663  1  -1.211876  2.3e-05  -0.332255  -0.315739  1e-05  3.483307  0.0
N  N95  1  0.68378977  0.26625544  0.79431589  1  -1.211817  2.3e-05  -0.332275  -0.31577  1e-05  3.483049  0.0
N  N96  1  0.18378469  0.76625963  0.70568381  1  -1.211877  2.2e-05  -0.332248  -0.315645  1e-05  3.483076  0.0
N  N97  1  0.31621392  0.73374461  0.20568595  1  -1.211758  2.3e-05  -0.332203  -0.315646  1e-05  3.483079  0.0
N  N98  1  0.65511509  0.42052684  0.23831254  1  -1.20041  -2e-06  -0.331731  -0.294216  -5e-06  3.474153  0.0
N  N99  1  0.84488549  0.07946784  0.73831390  1  -1.199886  -2e-06  -0.331622  -0.294138  -5e-06  3.473861  0.0
N  N100  1  0.34486987  0.57946920  0.76168605  1  -1.199992  -2e-06  -0.331607  -0.294116  -5e-06  3.473665  0.0
N  N101  1  0.15511829  0.92053304  0.26168886  1  -1.199681  -2e-06  -0.331696  -0.294236  -5e-06  3.473689  0.0
O  O102  1  0.86617448  0.23740506  0.51570817  1  -1.177988  0.01853  -0.286967  -0.512542  0.011341  2.169161  0.016
O  O103  1  0.63383549  0.26260373  0.01570991  1  -1.177635  0.018528  -0.286951  -0.512469  0.011339  2.169086  0.016
O  O104  1  0.13383594  0.76259578  0.48429367  1  -1.177865  0.018528  -0.287079  -0.512771  0.011339  2.169182  0.016
O  O105  1  0.36615521  0.73739888  0.98428683  1  -1.178007  0.018527  -0.286928  -0.512503  0.011338  2.169144  0.016
O  O106  1  0.76160523  0.10413672  0.41666315  1  -1.300616  0.00099  -0.65384  -0.880809  0.000609  2.104113  0.001
O  O107  1  0.73838178  0.39586608  0.91666374  1  -1.300646  0.00099  -0.653849  -0.8807  0.00061  2.104211  0.001
O  O108  1  0.23839618  0.89587245  0.58333637  1  -1.300897  0.00099  -0.653941  -0.880936  0.000609  2.103985  0.001
O  O109  1  0.26160071  0.60413742  0.08333995  1  -1.300655  0.00099  -0.653852  -0.880777  0.000609  2.104123  0.001
O  O110  1  0.67407306  0.38437343  0.54702666  1  -1.100599  0.10123  -0.310853  -0.511047  0.063998  2.268422  0.09
O  O111  1  0.82593031  0.11563345  0.04703269  1  -1.100677  0.101217  -0.310899  -0.511069  0.06399  2.268614  0.09
O  O112  1  0.32594622  0.61563232  0.45297055  1  -1.100755  0.101212  -0.310931  -0.511246  0.063987  2.268425  0.09
O  O113  1  0.17405598  0.88437416  0.95296729  1  -1.100896  0.101236  -0.310869  -0.510998  0.064002  2.26832  0.09
O  O114  1  0.98625010  0.89363253  0.38946924  1  -1.302012  -8e-06  -0.660208  -0.887504  -2.8e-05  2.034733  0.0
O  O115  1  0.51374537  0.60636816  0.88946504  1  -1.302086  -8e-06  -0.660184  -0.887579  -2.8e-05  2.034658  0.0
O  O116  1  0.01375278  0.10637497  0.61053121  1  -1.301808  -8e-06  -0.660243  -0.887439  -2.8e-05  2.034828  0.0
O  O117  1  0.48624348  0.39363282  0.11053217  1  -1.302017  -8e-06  -0.660202  -0.887501  -2.8e-05  2.034722  0.0
O  O118  1  0.17712974  0.19818473  0.39643522  1  -1.20365  0.001546  -0.437336  -0.680356  0.000991  2.373293  0.001
O  O119  1  0.32286543  0.30181828  0.89644537  1  -1.204494  0.001546  -0.437465  -0.68039  0.000991  2.373372  0.001
O  O120  1  0.82288869  0.80181357  0.60356338  1  -1.203606  0.001546  -0.437338  -0.680305  0.000991  2.373258  0.001
O  O121  1  0.67712518  0.69818351  0.10355832  1  -1.20363  0.001546  -0.43745  -0.680476  0.000991  2.373442  0.001
O  O122  1  0.36883430  0.31833892  0.45733069  1  -1.136442  0.004335  -0.295851  -0.531083  0.002375  2.206627  0.005
O  O123  1  0.13116921  0.18166161  0.95733759  1  -1.136617  0.004337  -0.295902  -0.53116  0.002376  2.20663  0.005
O  O124  1  0.63118016  0.68165361  0.54267253  1  -1.136713  0.004333  -0.295814  -0.53103  0.002373  2.206745  0.005
O  O125  1  0.86881836  0.81834268  0.04266332  1  -1.136416  0.004337  -0.295835  -0.531153  0.002376  2.20661  0.005
O  O126  1  0.19178205  0.14826624  0.25975469  1  -1.191216  0.000103  -0.409  -0.690209  5.7e-05  2.375931  0.0
O  O127  1  0.30821640  0.35172775  0.75975772  1  -1.19122  0.000103  -0.409033  -0.690274  5.7e-05  2.376067  0.0
O  O128  1  0.80820993  0.85173306  0.74024391  1  -1.191243  0.000103  -0.409034  -0.69032  5.7e-05  2.375914  0.0
O  O129  1  0.69178231  0.64827233  0.24024319  1  -1.19141  0.000103  -0.409147  -0.690385  5.7e-05  2.375765  0.0
O  O130  1  0.21855966  0.25870956  0.17604453  1  -1.179926  0.000228  -0.2923  -0.520353  0.000155  2.229867  0.0
O  O131  1  0.28144044  0.24129540  0.67604578  1  -1.179895  0.000228  -0.292297  -0.520351  0.000155  2.230128  0.0
O  O132  1  0.78143213  0.74128808  0.82395407  1  -1.17996  0.000228  -0.292241  -0.520309  0.000155  2.230021  0.0
O  O133  1  0.71856253  0.75871293  0.32395467  1  -1.179994  0.000228  -0.292241  -0.520294  0.000155  2.230101  0.0
O  O134  1  0.19915699  0.48676458  0.19972263  1  -1.191114  8.2e-05  -0.383094  -0.638676  5.8e-05  2.324405  0.0
O  O135  1  0.30084680  0.01323436  0.69971943  1  -1.191043  8.2e-05  -0.383088  -0.63869  5.8e-05  2.324251  0.0
O  O136  1  0.80082770  0.51322897  0.80028106  1  -1.190887  8.2e-05  -0.383059  -0.638693  5.8e-05  2.324391  0.0
O  O137  1  0.69916097  0.98677229  0.30027962  1  -1.190778  8.2e-05  -0.383051  -0.638579  5.8e-05  2.324514  0.0
O  O138  1  0.89238058  0.51644522  0.14320804  1  -1.174242  5.7e-05  -0.35334  -0.615171  2.6e-05  2.27531  0.0
O  O139  1  0.60762199  0.98354416  0.64320777  1  -1.174235  5.7e-05  -0.353426  -0.61531  2.6e-05  2.275306  0.0
O  O140  1  0.10760713  0.48354583  0.85679194  1  -1.174338  5.7e-05  -0.353428  -0.615293  2.6e-05  2.275424  0.0
O  O141  1  0.39238208  0.01645920  0.35679406  1  -1.174237  5.7e-05  -0.35337  -0.615174  2.6e-05  2.275406  0.0
