# generated using pymatgen
data_ZnH8C12N2O5
_symmetry_space_group_name_H-M   'P 1'
_cell_length_a   8.24974909
_cell_length_b   12.03336974
_cell_length_c   12.62000000
_cell_angle_alpha   98.79552816
_cell_angle_beta   90.00000000
_cell_angle_gamma   90.00000000
_symmetry_Int_Tables_number   1
_chemical_formula_structural   ZnH8C12N2O5
_chemical_formula_sum   'Zn4 H32 C48 N8 O20'
_cell_volume   1238.08346884
_cell_formula_units_Z   4
loop_
 _symmetry_equiv_pos_site_id
 _symmetry_equiv_pos_as_xyz
  1  'x, y, z'
loop_
 _atom_site_type_symbol
 _atom_site_label
 _atom_site_symmetry_multiplicity
 _atom_site_fract_x
 _atom_site_fract_y
 _atom_site_fract_z
 _atom_site_occupancy
 _atom_site_hle17_bader_spin_density
 _atom_site_hle17_ddec_charge
 _atom_site_hle17_ddec_spin_density
 _atom_site_hle17_ddec_sum_bond_order
 _atom_site_hle17_magmom
 _atom_site_hse06_10hf_bader_spin_density
 _atom_site_hse06_10hf_ddec_charge
 _atom_site_hse06_10hf_ddec_spin_density
 _atom_site_hse06_10hf_ddec_sum_bond_order
 _atom_site_hse06_10hf_magmom
 _atom_site_hse06_bader_spin_density
 _atom_site_hse06_ddec_charge
 _atom_site_hse06_ddec_spin_density
 _atom_site_hse06_ddec_sum_bond_order
 _atom_site_hse06_magmom
 _atom_site_pbe_bader_charge
 _atom_site_pbe_bader_spin_density
 _atom_site_pbe_cm5_charge
 _atom_site_pbe_ddec_charge
 _atom_site_pbe_ddec_spin_density
 _atom_site_pbe_ddec_sum_bond_order
 _atom_site_pbe_magmom
Zn  Zn0  1  0.92694092  0.51987909  0.69396364  1  0  1.046315  0  1.829531  0  0  0.864671  0  2.286743  0  0  0.913643  0  2.230474  0  1.307303  0  0.680561  0.830396  0  2.325383  0
Zn  Zn1  1  0.42694147  0.98012076  0.80603558  1  0  1.046289  0  1.829565  0  0  0.864637  0  2.286782  0  0  0.91361  0  2.230511  0  1.307322  0  0.680555  0.830363  0  2.325421  0
Zn  Zn2  1  0.07305677  0.48012165  0.30603623  1  0  1.046294  0  1.829526  0  0  0.864644  0  2.28674  0  0  0.913616  0  2.230468  0  1.30726  0  0.680547  0.830367  0  2.325379  0
Zn  Zn3  1  0.57305864  0.01987830  0.19396404  1  0  1.046287  0  1.829565  0  0  0.864628  0  2.286782  0  0  0.913603  0  2.230511  0  1.307282  0  0.680557  0.830355  0  2.325421  0
H  H4  1  0.18247828  0.55297904  0.57943386  1  0  0.430178  0  0.874957  0  0  0.396893  0  0.94193  0  0  0.40903  0  0.924562  0  0.650435  0  0.286018  0.388329  0  0.954167  0
H  H5  1  0.68247773  0.94702081  0.92056616  1  0  0.430182  0  0.874945  0  0  0.396897  0  0.941916  0  0  0.409035  0  0.924548  0  0.650429  0  0.286036  0.388333  0  0.954153  0
H  H6  1  0.81752305  0.44702170  0.42056601  1  0  0.43021  0  0.874904  0  0  0.396929  0  0.941869  0  0  0.409067  0  0.924501  0  0.650433  0  0.286048  0.388366  0  0.954106  0
H  H7  1  0.31752360  0.05297909  0.07943438  1  0  0.430201  0  0.874927  0  0  0.396918  0  0.941895  0  0  0.409056  0  0.924525  0  0.650434  0  0.286037  0.388354  0  0.954132  0
H  H8  1  0.04495652  0.62550007  0.53855662  1  0  0.422698  0  0.877049  0  0  0.391634  0  0.941828  0  0  0.402388  0  0.926107  0  0.657482  0  0.290286  0.383986  0  0.953003  0
H  H9  1  0.54495597  0.87450062  0.96144352  1  0  0.42269  0  0.877056  0  0  0.391634  0  0.94182  0  0  0.402388  0  0.9261  0  0.657481  0  0.290287  0.383984  0  0.952998  0
H  H10  1  0.95504480  0.37450151  0.46144417  1  0  0.422723  0  0.87702  0  0  0.391669  0  0.941779  0  0  0.402422  0  0.926059  0  0.657477  0  0.290304  0.384022  0  0.952952  0
H  H11  1  0.45504414  0.12549928  0.03855622  1  0  0.422743  0  0.876989  0  0  0.391684  0  0.941755  0  0  0.402438  0  0.926035  0  0.657479  0  0.290315  0.384037  0  0.952929  0
H  H12  1  0.57221498  0.31664430  0.03619554  1  0  0.109892  0  0.919951  0  0  0.12529  0  0.970622  0  0  0.128289  0  0.968539  0  0.096104  0  0.118455  0.123037  0  0.972239  0
H  H13  1  0.07221553  0.18335566  0.46380552  1  0  0.109877  0  0.919977  0  0  0.125277  0  0.970646  0  0  0.128277  0  0.968562  0  0.096111  0  0.118453  0.123024  0  0.972265  0
H  H14  1  0.42778513  0.68335561  0.96380658  1  0  0.109883  0  0.919971  0  0  0.125278  0  0.970643  0  0  0.128278  0  0.968559  0  0.096119  0  0.118454  0.123025  0  0.972261  0
H  H15  1  0.92778337  0.81664509  0.53619514  1  0  0.10989  0  0.919963  0  0  0.125284  0  0.970634  0  0  0.128283  0  0.968551  0  0.096132  0  0.118455  0.123031  0  0.972253  0
H  H16  1  0.70092435  0.50617729  0.07475989  1  0  0.125382  0  0.935814  0  0  0.13928  0  0.986771  0  0  0.142814  0  0.985597  0  0.138863  0  0.117087  0.136739  0  0.987773  0
H  H17  1  0.20092247  0.99382425  0.42524038  1  0  0.125354  0  0.93579  0  0  0.139242  0  0.986768  0  0  0.142775  0  0.985597  0  0.138878  0  0.117068  0.1367  0  0.987772  0
H  H18  1  0.29907819  0.49382262  0.92523907  1  0  0.125399  0  0.93576  0  0  0.139286  0  0.986733  0  0  0.142823  0  0.985551  0  0.138851  0  0.117072  0.136745  0  0.987735  0
H  H19  1  0.79907521  0.00617733  0.57476120  1  0  0.125398  0  0.935738  0  0  0.139285  0  0.986719  0  0  0.142821  0  0.98554  0  0.138846  0  0.117069  0.136743  0  0.987722  0
H  H20  1  0.76209833  0.28739152  0.71530288  1  0  0.084862  0  0.95777  0  0  0.091079  0  1.027127  0  0  0.094056  0  1.024212  0  0.123423  0  0.1193  0.088892  0  1.02927  0
H  H21  1  0.26210009  0.21260844  0.78469739  1  0  0.084869  0  0.957797  0  0  0.091088  0  1.027153  0  0  0.094064  0  1.024238  0  0.123413  0  0.119311  0.088901  0  1.029295  0
H  H22  1  0.23789936  0.71260839  0.28469766  1  0  0.084875  0  0.957757  0  0  0.091122  0  1.027074  0  0  0.094099  0  1.02416  0  0.123422  0  0.119329  0.088936  0  1.029215  0
H  H23  1  0.73790244  0.78739231  0.21530248  1  0  0.084874  0  0.957803  0  0  0.091141  0  1.027097  0  0  0.094118  0  1.024181  0  0.123428  0  0.119332  0.088958  0  1.029228  0
H  H24  1  0.82253411  0.65806016  0.09468584  1  0  0.117723  0  0.981451  0  0  0.124477  0  1.04796  0  0  0.128625  0  1.045298  0  0.137263  0  0.106896  0.121415  0  1.050136  0
H  H25  1  0.32253223  0.84193802  0.40531393  1  0  0.117691  0  0.981443  0  0  0.124449  0  1.047945  0  0  0.12862  0  1.045254  0  0.13729  0  0.106893  0.121386  0  1.050126  0
H  H26  1  0.17746722  0.34193975  0.90531232  1  0  0.117705  0  0.98142  0  0  0.124457  0  1.047915  0  0  0.128627  0  1.045225  0  0.137256  0  0.106896  0.121392  0  1.050101  0
H  H27  1  0.67746424  0.15806020  0.59468715  1  0  0.117681  0  0.981507  0  0  0.124432  0  1.048005  0  0  0.128602  0  1.045315  0  0.137249  0  0.106882  0.121367  0  1.050192  0
H  H28  1  0.97470964  0.84059760  0.10504719  1  0  0.113841  0  0.923273  0  0  0.12262  0  0.984364  0  0  0.126177  0  0.98129  0  0.133217  0  0.115931  0.119957  0  0.986675  0
H  H29  1  0.47470656  0.65940141  0.39495350  1  0  0.113873  0  0.923308  0  0  0.122677  0  0.984362  0  0  0.126235  0  0.981288  0  0.133301  0  0.115959  0.120015  0  0.986673  0
H  H30  1  0.02529410  0.15940062  0.89495232  1  0  0.113858  0  0.923315  0  0  0.12266  0  0.984371  0  0  0.126217  0  0.981297  0  0.13328  0  0.115954  0.119998  0  0.986681  0
H  H31  1  0.52529113  0.34059849  0.60504704  1  0  0.113852  0  0.923289  0  0  0.122638  0  0.984371  0  0  0.126195  0  0.981298  0  0.133209  0  0.115942  0.119976  0  0.986681  0
H  H32  1  0.09307071  0.74814025  0.77132435  1  0  0.101265  0  0.932676  0  0  0.106316  0  0.997825  0  0  0.110354  0  0.993372  0  0.157273  0  0.120592  0.103302  0  1.001132  0
H  H33  1  0.59307137  0.75185960  0.72867646  1  0  0.101259  0  0.93267  0  0  0.106314  0  0.997826  0  0  0.110352  0  0.993371  0  0.157394  0  0.120588  0.103299  0  1.001133  0
H  H34  1  0.90693061  0.25185965  0.22867540  1  0  0.101291  0  0.932652  0  0  0.106333  0  0.997822  0  0  0.110372  0  0.993367  0  0.157295  0  0.120601  0.103318  0  1.001129  0
H  H35  1  0.40692995  0.24814030  0.27132408  1  0  0.101274  0  0.932651  0  0  0.106318  0  0.997823  0  0  0.110357  0  0.993368  0  0.157284  0  0.12059  0.103303  0  1.00113  0
C  C36  1  0.59399746  0.16937719  0.84216523  1  0  0.642258  0  3.936761  0  0  0.589002  0  4.234196  0  0  0.62288  0  4.22866  0  1.599584  0  0.201432  0.566118  0  4.237129  0
C  C37  1  0.09399922  0.33062276  0.65783583  1  0  0.642368  0  3.936672  0  0  0.589091  0  4.234135  0  0  0.622967  0  4.228604  0  1.599587  0  0.201494  0.566207  0  4.237067  0
C  C38  1  0.40600144  0.83062187  0.15783677  1  0  0.642433  0  3.936581  0  0  0.589135  0  4.234073  0  0  0.623013  0  4.228536  0  1.599602  0  0.201473  0.56625  0  4.237008  0
C  C39  1  0.90600210  0.66937882  0.34216495  1  0  0.642347  0  3.936636  0  0  0.589088  0  4.234071  0  0  0.62297  0  4.228528  0  1.599581  0  0.201451  0.566204  0  4.237007  0
C  C40  1  0.65914489  0.28585769  0.87266641  1  0  -0.100044  0  3.73154  0  0  -0.075533  0  3.971386  0  0  -0.087051  0  3.993945  0  -0.02541  0  -0.006997  -0.06841  0  3.956518  0
C  C41  1  0.15914423  0.21414226  0.62733306  1  0  -0.100146  0  3.731627  0  0  -0.075624  0  3.971492  0  0  -0.087144  0  3.994053  0  -0.025416  0  -0.007024  -0.068503  0  3.956626  0
C  C42  1  0.34085521  0.71414221  0.12733333  1  0  -0.100156  0  3.731634  0  0  -0.075644  0  3.971521  0  0  -0.087164  0  3.994081  0  -0.025398  0  -0.007043  -0.068522  0  3.956656  0
C  C43  1  0.84085588  0.78585933  0.37266614  1  0  -0.100089  0  3.73156  0  0  -0.075574  0  3.971414  0  0  -0.087095  0  3.993973  0  -0.025393  0  -0.007025  -0.068454  0  3.956551  0
C  C44  1  0.63993946  0.35028831  0.97404302  1  0  -0.005022  0  3.686049  0  0  -0.037644  0  3.942289  0  0  -0.032431  0  3.959572  0  -0.005181  0  -0.057204  -0.040708  0  3.930466  0
C  C45  1  0.13993880  0.14971248  0.52595737  1  0  -0.004955  0  3.686123  0  0  -0.037578  0  3.942364  0  0  -0.032364  0  3.959647  0  -0.005185  0  -0.057178  -0.040641  0  3.93054  0
C  C46  1  0.36006186  0.64971075  0.02595739  1  0  -0.004964  0  3.686095  0  0  -0.037579  0  3.942338  0  0  -0.032366  0  3.959622  0  -0.005216  0  -0.057192  -0.040644  0  3.930515  0
C  C47  1  0.86006131  0.85028911  0.47404262  1  0  -0.005005  0  3.686086  0  0  -0.037617  0  3.942319  0  0  -0.032403  0  3.959601  0  -0.005218  0  -0.057194  -0.040681  0  3.930496  0
C  C48  1  0.71001190  0.45671909  0.99509163  1  0  -0.134354  0  3.676506  0  0  -0.154711  0  3.930394  0  0  -0.162223  0  3.951114  0  0.002334  0  -0.07184  -0.149904  0  3.916437  0
C  C49  1  0.21001245  0.04328170  0.50490877  1  0  -0.13427  0  3.676489  0  0  -0.154633  0  3.930365  0  0  -0.162145  0  3.951087  0  0.002329  0  -0.071814  -0.149826  0  3.916406  0
C  C50  1  0.28998700  0.54328081  0.00490812  1  0  -0.134353  0  3.676461  0  0  -0.154698  0  3.930336  0  0  -0.162209  0  3.951059  0  0.002354  0  -0.071805  -0.14989  0  3.916376  0
C  C51  1  0.78998645  0.95671904  0.49509190  1  0  -0.134312  0  3.676429  0  0  -0.154684  0  3.930297  0  0  -0.162196  0  3.95102  0  0.002344  0  -0.071799  -0.149876  0  3.916337  0
C  C52  1  0.79301563  0.49863683  0.91249646  1  0  0.184755  0  3.740092  0  0  0.178617  0  3.982284  0  0  0.18629  0  4.001336  0  0.455237  0  0.127161  0.173572  0  3.969279  0
C  C53  1  0.29301618  0.00136396  0.58750315  1  0  0.18466  0  3.740154  0  0  0.17859  0  3.982316  0  0  0.186265  0  4.001369  0  0.455331  0  0.127185  0.173546  0  3.969308  0
C  C54  1  0.20698326  0.50136223  0.08750238  1  0  0.184702  0  3.740105  0  0  0.178599  0  3.982313  0  0  0.18627  0  4.001367  0  0.455213  0  0.127138  0.173555  0  3.969305  0
C  C55  1  0.70698271  0.99863763  0.41249685  1  0  0.184652  0  3.740104  0  0  0.178607  0  3.982246  0  0  0.18628  0  4.001298  0  0.455318  0  0.127163  0.173563  0  3.969237  0
C  C56  1  0.74359716  0.33417814  0.79527576  1  0  0.142095  0  3.673218  0  0  0.101598  0  3.919851  0  0  0.10979  0  3.93644  0  0.515634  0  0.063277  0.096337  0  3.908658  0
C  C57  1  0.24359771  0.16582266  0.70472463  1  0  0.142133  0  3.673172  0  0  0.101616  0  3.919818  0  0  0.109812  0  3.936408  0  0.515638  0  0.063255  0.096356  0  3.908626  0
C  C58  1  0.25640174  0.66582093  0.20472386  1  0  0.142055  0  3.673236  0  0  0.101538  0  3.91988  0  0  0.10973  0  3.936469  0  0.515645  0  0.063239  0.096276  0  3.908689  0
C  C59  1  0.75640361  0.83417977  0.29527548  1  0  0.142005  0  3.673261  0  0  0.101471  0  3.919895  0  0  0.109664  0  3.936485  0  0.515626  0  0.063217  0.096211  0  3.908707  0
C  C60  1  0.87465569  0.60930328  0.92581159  1  0  0.181405  0  3.747036  0  0  0.175613  0  3.989458  0  0  0.182607  0  4.009377  0  0.456527  0  0.124075  0.171047  0  3.975867  0
C  C61  1  0.37465867  0.89069826  0.57418788  1  0  0.181377  0  3.747117  0  0  0.175453  0  3.989686  0  0  0.182445  0  4.009611  0  0.456383  0  0.124003  0.170889  0  3.976094  0
C  C62  1  0.12534078  0.39069831  0.07418602  1  0  0.181359  0  3.747105  0  0  0.175426  0  3.989691  0  0  0.182418  0  4.009617  0  0.456496  0  0.124019  0.170861  0  3.9761  0
C  C63  1  0.62533902  0.10930081  0.42581412  1  0  0.181396  0  3.747051  0  0  0.17545  0  3.989618  0  0  0.182441  0  4.009544  0  0.456378  0  0.124027  0.170886  0  3.976026  0
C  C64  1  0.87930311  0.68188317  0.02355941  1  0  -0.138103  0  3.680959  0  0  -0.16072  0  3.940472  0  0  -0.1681  0  3.960294  0  -0.003304  0  -0.078251  -0.155984  0  3.927271  0
C  C65  1  0.37930244  0.81811668  0.47644060  1  0  -0.137981  0  3.680921  0  0  -0.160553  0  3.940455  0  0  -0.167948  0  3.960266  0  -0.003294  0  -0.078207  -0.155818  0  3.927253  0
C  C66  1  0.12069579  0.31811757  0.97643887  1  0  -0.138052  0  3.680943  0  0  -0.160604  0  3.940482  0  0  -0.168  0  3.960292  0  -0.003319  0  -0.078222  -0.155871  0  3.927278  0
C  C67  1  0.62069403  0.18188154  0.52356128  1  0  -0.138084  0  3.680984  0  0  -0.160636  0  3.940518  0  0  -0.168031  0  3.960327  0  -0.003802  0  -0.078242  -0.155901  0  3.927313  0
C  C68  1  0.96529724  0.78210550  0.03027731  1  0  0.010293  0  3.669  0  0  -0.022823  0  3.927935  0  0  -0.016818  0  3.943784  0  -0.030335  0  -0.053361  -0.02641  0  3.917153  0
C  C69  1  0.46529294  0.71789351  0.46972180  1  0  0.010217  0  3.669073  0  0  -0.022913  0  3.928009  0  0  -0.016911  0  3.943866  0  -0.030451  0  -0.053384  -0.026502  0  3.917225  0
C  C70  1  0.03470530  0.21789272  0.96972141  1  0  0.010221  0  3.669096  0  0  -0.022903  0  3.928016  0  0  -0.016902  0  3.943873  0  -0.030432  0  -0.053391  -0.026492  0  3.917232  0
C  C71  1  0.53470232  0.28210555  0.53027783  1  0  0.010315  0  3.669048  0  0  -0.02281  0  3.927987  0  0  -0.016805  0  3.943843  0  -0.029809  0  -0.053339  -0.026396  0  3.917203  0
C  C72  1  0.04583776  0.80768518  0.93982618  1  0  -0.093727  0  3.709279  0  0  -0.071065  0  3.948859  0  0  -0.082731  0  3.971536  0  -0.002982  0  -0.003492  -0.063864  0  3.933933  0
C  C73  1  0.54583478  0.69231384  0.56017213  1  0  -0.093757  0  3.709377  0  0  -0.071095  0  3.948986  0  0  -0.082762  0  3.971664  0  -0.00301  0  -0.003502  -0.063887  0  3.934047  0
C  C74  1  0.95416356  0.19231388  0.06017265  1  0  -0.093681  0  3.70935  0  0  -0.071022  0  3.948943  0  0  -0.082688  0  3.971621  0  -0.003007  0  -0.003495  -0.063814  0  3.934003  0
C  C75  1  0.45416412  0.30768523  0.43982670  1  0  -0.093711  0  3.709304  0  0  -0.071058  0  3.948906  0  0  -0.082725  0  3.971584  0  -0.003023  0  -0.003479  -0.063855  0  3.933975  0
C  C76  1  0.03281433  0.73204689  0.84431628  1  0  0.144432  0  3.647728  0  0  0.106129  0  3.890856  0  0  0.11446  0  3.907105  0  0.486604  0  0.064841  0.100848  0  3.87986  0
C  C77  1  0.53281136  0.76795128  0.65568350  1  0  0.144397  0  3.64781  0  0  0.106077  0  3.890963  0  0  0.114407  0  3.907212  0  0.486607  0  0.064799  0.100796  0  3.879965  0
C  C78  1  0.96718820  0.26795217  0.15568256  1  0  0.144385  0  3.64777  0  0  0.106064  0  3.89092  0  0  0.114394  0  3.90717  0  0.486636  0  0.064817  0.100783  0  3.879922  0
C  C79  1  0.46718754  0.23204694  0.34431680  1  0  0.144369  0  3.647724  0  0  0.106042  0  3.890883  0  0  0.114371  0  3.907133  0  0.486525  0  0.064789  0.100763  0  3.879886  0
C  C80  1  0.15513320  0.90866012  0.94604207  1  0  0.670878  0  3.918942  0  0  0.615151  0  4.222127  0  0  0.650482  0  4.213912  0  1.619002  0  0.214444  0.591249  0  4.226947  0
C  C81  1  0.65513144  0.59133973  0.55395794  1  0  0.670874  0  3.919023  0  0  0.61513  0  4.222243  0  0  0.650465  0  4.214027  0  1.618886  0  0.214433  0.591228  0  4.227063  0
C  C82  1  0.84486933  0.09133894  0.05395755  1  0  0.670758  0  3.919036  0  0  0.61501  0  4.222271  0  0  0.650341  0  4.214058  0  1.618889  0  0.214392  0.591106  0  4.227089  0
C  C83  1  0.34486746  0.40866101  0.44604193  1  0  0.670867  0  3.918979  0  0  0.615161  0  4.22214  0  0  0.650495  0  4.213924  0  1.619012  0  0.21445  0.59126  0  4.22696  0
N  N84  1  0.80539662  0.43746559  0.81383912  1  0  -0.336198  0  3.271013  0  0  -0.265027  0  3.530195  0  0  -0.282428  0  3.5454  0  -1.241816  0  -0.311369  -0.25334  0  3.519803  0
N  N85  1  0.30539838  0.06253521  0.68616127  1  0  -0.336212  0  3.270975  0  0  -0.265024  0  3.530122  0  0  -0.282433  0  3.545331  0  -1.241791  0  -0.311371  -0.253338  0  3.519728  0
N  N86  1  0.19459986  0.56253432  0.18616062  1  0  -0.336147  0  3.270981  0  0  -0.264961  0  3.530146  0  0  -0.282362  0  3.54535  0  -1.241815  0  -0.311341  -0.253275  0  3.519753  0
N  N87  1  0.69460052  0.93746554  0.31383860  1  0  -0.336129  0  3.270989  0  0  -0.264967  0  3.530151  0  0  -0.28237  0  3.545357  0  -1.241823  0  -0.311375  -0.253281  0  3.519758  0
N  N88  1  0.94999495  0.63574658  0.83761396  1  0  -0.344281  0  3.2665  0  0  -0.270432  0  3.532291  0  0  -0.289088  0  3.547138  0  -1.238182  0  -0.314378  -0.257879  0  3.522049  0
N  N89  1  0.44999550  0.86425328  0.66238606  1  0  -0.344189  0  3.266505  0  0  -0.270295  0  3.532333  0  0  -0.288952  0  3.547182  0  -1.238276  0  -0.314309  -0.257747  0  3.522096  0
N  N90  1  0.05000637  0.36425333  0.16238421  1  0  -0.344191  0  3.266427  0  0  -0.270268  0  3.532224  0  0  -0.288924  0  3.547074  0  -1.238151  0  -0.314326  -0.257717  0  3.521984  0
N  N91  1  0.55000703  0.13574662  0.33761527  1  0  -0.344203  0  3.266373  0  0  -0.270273  0  3.532167  0  0  -0.288928  0  3.547015  0  -1.23806  0  -0.31433  -0.257726  0  3.52193  0
O  O92  1  0.47956368  0.13765633  0.90094363  1  0  -0.66986  0  2.047308  0  0  -0.595938  0  2.296951  0  0  -0.625365  0  2.284568  0  -1.180453  0  -0.321883  -0.575261  0  2.304795  0
O  O93  1  0.97956555  0.36234446  0.59905755  1  0  -0.669889  0  2.04722  0  0  -0.595976  0  2.296888  0  0  -0.625402  0  2.284507  0  -1.180386  0  -0.321908  -0.575298  0  2.304729  0
O  O94  1  0.52043522  0.86234273  0.09905758  1  0  -0.669965  0  2.047158  0  0  -0.596042  0  2.296837  0  0  -0.62547  0  2.284453  0  -1.180387  0  -0.321919  -0.575365  0  2.304682  0
O  O95  1  0.02043456  0.63765797  0.40094415  1  0  -0.669837  0  2.04723  0  0  -0.595944  0  2.296919  0  0  -0.625371  0  2.284531  0  -1.180403  0  -0.321857  -0.575266  0  2.304762  0
O  O96  1  0.64684391  0.10872562  0.75948858  1  0  -0.604981  0  1.918935  0  0  -0.559644  0  2.149357  0  0  -0.584005  0  2.140636  0  -1.165839  0  -0.313245  -0.542486  0  2.154717  0
O  O97  1  0.14684568  0.39127517  0.74051181  1  0  -0.605037  0  1.918924  0  0  -0.559677  0  2.149326  0  0  -0.584038  0  2.140607  0  -1.165882  0  -0.313273  -0.542519  0  2.154685  0
O  O98  1  0.35315377  0.89127344  0.24051184  1  0  -0.604998  0  1.918934  0  0  -0.559637  0  2.149361  0  0  -0.583998  0  2.140642  0  -1.165832  0  -0.313241  -0.542479  0  2.154719  0
O  O99  1  0.85315564  0.60872726  0.25948910  1  0  -0.605033  0  1.918894  0  0  -0.559698  0  2.149323  0  0  -0.584056  0  2.140594  0  -1.165771  0  -0.313276  -0.542539  0  2.154677  0
O  O100  1  0.21795330  0.92302373  0.85632172  1  0  -0.663598  0  2.08611  0  0  -0.596797  0  2.362109  0  0  -0.625553  0  2.346194  0  -1.187943  0  -0.33656  -0.576603  0  2.372281  0
O  O101  1  0.71795396  0.57697613  0.64367751  1  0  -0.663602  0  2.086096  0  0  -0.596793  0  2.362098  0  0  -0.62555  0  2.346183  0  -1.187935  0  -0.336581  -0.576599  0  2.372271  0
O  O102  1  0.78204803  0.07697618  0.14367803  1  0  -0.663575  0  2.0861  0  0  -0.596764  0  2.362106  0  0  -0.62552  0  2.346191  0  -1.187927  0  -0.336564  -0.57657  0  2.372278  0
O  O103  1  0.28204737  0.42302378  0.35632066  1  0  -0.663625  0  2.086111  0  0  -0.596832  0  2.362104  0  0  -0.625588  0  2.346188  0  -1.187948  0  -0.33659  -0.576638  0  2.372275  0
O  O104  1  0.17794965  0.96568400  0.03686017  1  0  -0.606088  0  1.989424  0  0  -0.551118  0  2.208562  0  0  -0.576495  0  2.200133  0  -1.174228  0  -0.30355  -0.533526  0  2.213913  0
O  O105  1  0.67794668  0.53431586  0.46313985  1  0  -0.606084  0  1.989484  0  0  -0.551111  0  2.208635  0  0  -0.576489  0  2.200207  0  -1.174112  0  -0.303534  -0.533521  0  2.213986  0
O  O106  1  0.82205409  0.03431507  0.96313946  1  0  -0.606003  0  1.989437  0  0  -0.551022  0  2.208588  0  0  -0.576399  0  2.200162  0  -1.174124  0  -0.303504  -0.533431  0  2.213938  0
O  O107  1  0.32205101  0.46568320  0.53685898  1  0  -0.606045  0  1.989473  0  0  -0.551082  0  2.208606  0  0  -0.576459  0  2.200177  0  -1.174207  0  -0.303523  -0.533491  0  2.213958  0
O  O108  1  0.08848390  0.60449579  0.60601161  1  0  -0.832019  0  1.879324  0  0  -0.766929  0  2.078843  0  0  -0.789612  0  2.04258  0  -1.280639  0  -0.578212  -0.750856  0  2.103942  0
O  O109  1  0.58848335  0.89550491  0.89398933  1  0  -0.832006  0  1.879325  0  0  -0.766926  0  2.078847  0  0  -0.789607  0  2.042584  0  -1.280636  0  -0.57824  -0.750852  0  2.10395  0
O  O110  1  0.91151742  0.39550411  0.39398893  1  0  -0.832063  0  1.879291  0  0  -0.766975  0  2.078807  0  0  -0.789657  0  2.042544  0  -1.280632  0  -0.578247  -0.750903  0  2.103906  0
O  O111  1  0.41151676  0.10449584  0.10601134  1  0  -0.832057  0  1.879259  0  0  -0.766973  0  2.078781  0  0  -0.789655  0  2.042519  0  -1.280635  0  -0.57825  -0.750901  0  2.103884  0
