# generated using pymatgen
data_CdH9C9S2N3O
_symmetry_space_group_name_H-M   'P 1'
_cell_length_a   8.12298610
_cell_length_b   8.12296580
_cell_length_c   19.39721772
_cell_angle_alpha   92.91398442
_cell_angle_beta   92.91368866
_cell_angle_gamma   93.40523435
_symmetry_Int_Tables_number   1
_chemical_formula_structural   CdH9C9S2N3O
_chemical_formula_sum   'Cd4 H36 C36 S8 N12 O4'
_cell_volume   1274.10695622
_cell_formula_units_Z   4
loop_
 _symmetry_equiv_pos_site_id
 _symmetry_equiv_pos_as_xyz
  1  'x, y, z'
loop_
 _atom_site_type_symbol
 _atom_site_label
 _atom_site_symmetry_multiplicity
 _atom_site_fract_x
 _atom_site_fract_y
 _atom_site_fract_z
 _atom_site_occupancy
 _atom_site_pbe_bader_charge
 _atom_site_pbe_bader_spin_density
 _atom_site_pbe_cm5_charge
 _atom_site_pbe_ddec_charge
 _atom_site_pbe_ddec_spin_density
 _atom_site_pbe_ddec_sum_bond_order
 _atom_site_pbe_magmom
Cd  Cd0  1  0.03228888  0.96771869  0.25000113  1  1.213502  0  0.724646  0.839696  0  2.397028  0
Cd  Cd1  1  0.96771377  0.03228318  0.74999921  1  1.213492  0  0.724658  0.83969  0  2.39705  0
Cd  Cd2  1  0.70081771  0.29919378  0.25000181  1  1.223868  0  0.736608  0.855289  0  2.408317  0
Cd  Cd3  1  0.29918618  0.70080940  0.75000013  1  1.223824  0  0.736578  0.855241  0  2.408356  0
H  H4  1  0.95656021  0.19345325  0.96529706  1  0.091123  0  0.100069  0.121883  0  1.031952  0
H  H5  1  0.80654650  0.04343623  0.53470320  1  0.091134  0  0.10007  0.121893  0  1.031925  0
H  H6  1  0.04343627  0.80655070  0.03470474  1  0.091078  0  0.100051  0.121884  0  1.031938  0
H  H7  1  0.19344875  0.95656024  0.46529636  1  0.091074  0  0.100062  0.121868  0  1.031962  0
H  H8  1  0.19754165  0.40472903  0.97281653  1  0.118851  0  0.097004  0.097757  0  1.03959  0
H  H9  1  0.59526762  0.80246047  0.52718206  1  0.118863  0  0.097022  0.097795  0  1.039534  0
H  H10  1  0.80245853  0.59527021  0.02718318  1  0.118827  0  0.097018  0.097782  0  1.03957  0
H  H11  1  0.40472268  0.19754308  0.47281496  1  0.118696  0  0.096976  0.097712  0  1.03954  0
H  H12  1  0.30153238  0.52282638  0.09009166  1  0.086947  0  0.103403  0.122013  0  1.01314  0
H  H13  1  0.47717053  0.69847112  0.40990670  1  0.086952  0  0.103419  0.122009  0  1.013152  0
H  H14  1  0.69847028  0.47717179  0.90990860  1  0.086964  0  0.103416  0.122002  0  1.013138  0
H  H15  1  0.52282471  0.30153027  0.59009038  1  0.086994  0  0.103438  0.122042  0  1.013163  0
H  H16  1  0.82165704  0.96349321  0.10197706  1  0.098926  0  0.094539  0.146965  0  1.035301  0
H  H17  1  0.03650950  0.17833748  0.39802370  1  0.098919  0  0.094531  0.146992  0  1.035241  0
H  H18  1  0.17833450  0.03650796  0.89802458  1  0.09893  0  0.09453  0.146986  0  1.035263  0
H  H19  1  0.96349316  0.82165823  0.60197754  1  0.098931  0  0.094537  0.146975  0  1.035304  0
H  H20  1  0.75693058  0.03059657  0.01885339  1  0.045555  0  0.093129  0.142357  0  1.002889  0
H  H21  1  0.96940580  0.24306775  0.48114673  1  0.045548  0  0.093119  0.142358  0  1.00286  0
H  H22  1  0.24306713  0.96940869  0.98114743  1  0.045633  0  0.093096  0.142329  0  1.002922  0
H  H23  1  0.03059192  0.75692395  0.51885432  1  0.045664  0  0.093104  0.142353  0  1.002834  0
H  H24  1  0.68750495  0.12470312  0.09676637  1  0.10501  0  0.094689  0.150646  0  1.027371  0
H  H25  1  0.87530361  0.31249318  0.40323407  1  0.105063  0  0.094698  0.150669  0  1.027397  0
H  H26  1  0.31249522  0.87530845  0.90323464  1  0.105123  0  0.094697  0.150661  0  1.027413  0
H  H27  1  0.12469904  0.68750623  0.59676725  1  0.105024  0  0.094682  0.150648  0  1.027409  0
H  H28  1  0.15929744  0.57978799  0.21797207  1  0.062712  0  0.089405  0.135739  0  1.038465  0
H  H29  1  0.42021214  0.84070848  0.28202515  1  0.062336  0  0.089404  0.135741  0  1.03845  0
H  H30  1  0.84070397  0.42021380  0.78202618  1  0.06236  0  0.089405  0.135775  0  1.038456  0
H  H31  1  0.57978804  0.15929693  0.71797057  1  0.062741  0  0.089406  0.13575  0  1.038464  0
H  H32  1  0.32283507  0.44597049  0.21891257  1  0.101636  0  0.088567  0.132263  0  1.041353  0
H  H33  1  0.55402436  0.67716968  0.28108718  1  0.101754  0  0.088536  0.13224  0  1.04149  0
H  H34  1  0.67716512  0.55402753  0.78108867  1  0.101653  0  0.088562  0.132294  0  1.041307  0
H  H35  1  0.44597088  0.32283419  0.71891098  1  0.101737  0  0.088535  0.132246  0  1.041312  0
H  H36  1  0.13166853  0.38430561  0.25478418  1  0.114451  0  0.095021  0.147238  0  1.036845  0
H  H37  1  0.61569736  0.86833050  0.24521529  1  0.114439  0  0.095055  0.147273  0  1.036841  0
H  H38  1  0.86832671  0.61569825  0.74521553  1  0.11447  0  0.095035  0.147276  0  1.036851  0
H  H39  1  0.38430653  0.13166898  0.75478348  1  0.114497  0  0.095039  0.147266  0  1.036822  0
C  C40  1  0.38958260  0.04958061  0.16948019  1  0.59788  0  0.161747  0.295654  0  4.265629  0
C  C41  1  0.95042505  0.61042383  0.33052124  1  0.597819  0  0.161748  0.295624  0  4.2659  0
C  C42  1  0.61042005  0.95042126  0.83051964  1  0.597894  0  0.161774  0.295711  0  4.265646  0
C  C43  1  0.04957513  0.38957419  0.66947897  1  0.597851  0  0.161808  0.295694  0  4.265827  0
C  C44  1  0.78431287  0.65414648  0.16718986  1  0.602094  0  0.159854  0.289058  0  4.269796  0
C  C45  1  0.34586327  0.21570089  0.33281210  1  0.60133  0  0.159821  0.289035  0  4.269837  0
C  C46  1  0.21569843  0.34585593  0.83281067  1  0.601377  0  0.159905  0.289038  0  4.26982  0
C  C47  1  0.65413445  0.78429821  0.66718756  1  0.601314  0  0.159823  0.288997  0  4.269743  0
C  C48  1  0.93621357  0.19382136  0.07412397  1  0.409931  0  0.116853  0.207712  0  3.938987  0
C  C49  1  0.80618027  0.06378475  0.42587559  1  0.410135  0  0.116827  0.207671  0  3.93901  0
C  C50  1  0.06378661  0.80618159  0.92587685  1  0.41013  0  0.116802  0.207558  0  3.939096  0
C  C51  1  0.19381869  0.93621072  0.57412299  1  0.410144  0  0.116818  0.207659  0  3.938965  0
C  C52  1  0.00806592  0.24649397  0.01496679  1  -4e-05  0  -0.087024  -0.179722  0  3.970369  0
C  C53  1  0.75350484  0.99193260  0.48503308  1  -3.4e-05  0  -0.08702  -0.179684  0  3.970271  0
C  C54  1  0.99193796  0.75350798  0.98503409  1  -5.3e-05  0  -0.086973  -0.179622  0  3.970239  0
C  C55  1  0.24649412  0.00806164  0.51496547  1  -0.000101  0  -0.086969  -0.179629  0  3.970319  0
C  C56  1  0.14100628  0.36362805  0.01929899  1  -0.029327  0  -0.072889  -0.018637  0  3.997405  0
C  C57  1  0.63637212  0.85899320  0.48069987  1  -0.029309  0  -0.072936  -0.018748  0  3.997397  0
C  C58  1  0.85899514  0.63637251  0.98070181  1  -0.029295  0  -0.072946  -0.018751  0  3.99732  0
C  C59  1  0.36362436  0.14100335  0.51929662  1  -0.02923  0  -0.072872  -0.018603  0  3.99713  0
C  C60  1  0.19901433  0.42945259  0.08400405  1  -0.007623  0  -0.084977  -0.175341  0  3.947479  0
C  C61  1  0.57054805  0.80098505  0.41599483  1  -0.007626  0  -0.084994  -0.175302  0  3.947401  0
C  C62  1  0.80098833  0.57054805  0.91599626  1  -0.007594  0  -0.084966  -0.175277  0  3.947451  0
C  C63  1  0.42944966  0.19901157  0.58400272  1  -0.008124  0  -0.085018  -0.175427  0  3.947485  0
C  C64  1  0.12829631  0.37769345  0.14383676  1  0.393064  0  0.125295  0.235994  0  3.871437  0
C  C65  1  0.62230729  0.87170630  0.35616222  1  0.393056  0  0.12532  0.236019  0  3.871457  0
C  C66  1  0.87170635  0.62230719  0.85616356  1  0.393043  0  0.125295  0.235989  0  3.871424  0
C  C67  1  0.37769289  0.12829294  0.64383492  1  0.3936  0  0.125285  0.23601  0  3.871513  0
C  C68  1  0.79284873  0.07114176  0.07254302  1  -0.080226  0  -0.244121  -0.448564  0  3.945036  0
C  C69  1  0.92885988  0.20714753  0.42745756  1  -0.080231  0  -0.24409  -0.448615  0  3.945042  0
C  C70  1  0.20714774  0.92886095  0.92745823  1  -0.080411  0  -0.244084  -0.448552  0  3.945112  0
C  C71  1  0.07114031  0.79284802  0.57254311  1  -0.080378  0  -0.244088  -0.44859  0  3.945033  0
C  C72  1  0.18793097  0.44918478  0.21327644  1  -0.088163  0  -0.247577  -0.449513  0  3.932916  0
C  C73  1  0.55081381  0.81207093  0.28672353  1  -0.087804  0  -0.247573  -0.449527  0  3.933098  0
C  C74  1  0.81207044  0.55081702  0.78672439  1  -0.087786  0  -0.247587  -0.449629  0  3.932898  0
C  C75  1  0.44918514  0.18792824  0.71327513  1  -0.088174  0  -0.24755  -0.449541  0  3.932866  0
S  S76  1  0.23935551  0.91277510  0.14676702  1  0.061442  0  -0.13089  -0.295709  0  2.491367  0
S  S77  1  0.08723184  0.76065089  0.35323484  1  0.061275  0  -0.130924  -0.295761  0  2.491391  0
S  S78  1  0.76064838  0.08722808  0.85323338  1  0.061357  0  -0.130907  -0.295758  0  2.491301  0
S  S79  1  0.91276711  0.23934705  0.64676637  1  0.061242  0  -0.130927  -0.295763  0  2.49136  0
S  S80  1  0.65084636  0.50161466  0.14351521  1  0.039413  0  -0.129037  -0.293034  0  2.468219  0
S  S81  1  0.49838998  0.34916362  0.35648705  1  0.03986  0  -0.128967  -0.292957  0  2.468297  0
S  S82  1  0.34916371  0.49838522  0.85648473  1  0.03993  0  -0.129038  -0.293008  0  2.468263  0
S  S83  1  0.50160897  0.65083555  0.64351315  1  0.039838  0  -0.128979  -0.292952  0  2.468296  0
N  N84  1  0.49990951  0.14706969  0.18613455  1  -1.297651  0  -0.390443  -0.462521  0  3.182795  0
N  N85  1  0.85293767  0.50009937  0.31386798  1  -1.297442  0  -0.390422  -0.462427  0  3.183041  0
N  N86  1  0.50009190  0.85293704  0.81386587  1  -1.297547  0  -0.390454  -0.462503  0  3.182841  0
N  N87  1  0.14706004  0.49990096  0.68613377  1  -1.297393  0  -0.390436  -0.462454  0  3.183011  0
N  N88  1  0.88015798  0.76655056  0.18325485  1  -1.292135  0  -0.390097  -0.464604  0  3.159242  0
N  N89  1  0.23345366  0.11985046  0.31674587  1  -1.291887  0  -0.390118  -0.464646  0  3.159255  0
N  N90  1  0.11984715  0.23345147  0.81674554  1  -1.291961  0  -0.390149  -0.464606  0  3.159186  0
N  N91  1  0.76654652  0.88015003  0.68325490  1  -1.291856  0  -0.390129  -0.464629  0  3.159122  0
N  N92  1  0.00022346  0.25899716  0.13738642  1  -0.663992  0  -0.113048  0.191011  0  3.820774  0
N  N93  1  0.74100340  0.99977798  0.36261357  1  -0.664231  0  -0.113035  0.191029  0  3.820815  0
N  N94  1  0.99977796  0.74100340  0.86261438  1  -0.664093  0  -0.113031  0.191059  0  3.820735  0
N  N95  1  0.25899555  0.00022365  0.63738514  1  -0.664108  0  -0.113067  0.191022  0  3.820724  0
O  O96  1  0.93457894  0.20165221  0.19436128  1  -0.688572  0  -0.260104  -0.476157  0  2.223403  0
O  O97  1  0.79834911  0.06542226  0.30563887  1  -0.688582  0  -0.260108  -0.476142  0  2.223361  0
O  O98  1  0.06542495  0.79835097  0.80564117  1  -0.68868  0  -0.260089  -0.476114  0  2.223339  0
O  O99  1  0.20164861  0.93457560  0.69435819  1  -0.688653  0  -0.260075  -0.476117  0  2.22329  0
