# generated using pymatgen
data_ZrH10(C7O2)2
_symmetry_space_group_name_H-M   'P 1'
_cell_length_a   12.20139242
_cell_length_b   12.21399408
_cell_length_c   13.42417907
_cell_angle_alpha   102.34832216
_cell_angle_beta   115.76025898
_cell_angle_gamma   106.66126487
_symmetry_Int_Tables_number   1
_chemical_formula_structural   ZrH10(C7O2)2
_chemical_formula_sum   'Zr4 H40 C56 O16'
_cell_volume   1587.76045021
_cell_formula_units_Z   4
loop_
 _symmetry_equiv_pos_site_id
 _symmetry_equiv_pos_as_xyz
  1  'x, y, z'
loop_
 _atom_site_type_symbol
 _atom_site_label
 _atom_site_symmetry_multiplicity
 _atom_site_fract_x
 _atom_site_fract_y
 _atom_site_fract_z
 _atom_site_occupancy
 _atom_site_pbe_bader_charge
 _atom_site_pbe_bader_spin_density
 _atom_site_pbe_cm5_charge
 _atom_site_pbe_ddec_charge
 _atom_site_pbe_ddec_spin_density
 _atom_site_pbe_ddec_sum_bond_order
 _atom_site_pbe_magmom
Zr  Zr0  1  0.24634991  0.20932836  0.02056765  1  2.189959  0  1.315151  1.535065  0  3.098099  0
Zr  Zr1  1  0.18839056  0.72576400  0.47881303  1  2.186137  0  1.315804  1.535448  0  3.098148  0
Zr  Zr2  1  0.75364460  0.79066592  0.97943227  1  2.19011  0  1.315115  1.53493  0  3.097943  0
Zr  Zr3  1  0.81161873  0.27423926  0.52118787  1  2.186217  0  1.315822  1.535561  0  3.09814  0
H  H4  1  0.99524210  0.11765142  0.75486761  1  0.121551  0  0.110267  0.142992  0  1.010117  0
H  H5  1  0.36188856  0.74024682  0.74453099  1  0.133291  0  0.110977  0.144168  0  1.00858  0
H  H6  1  0.00474434  0.88233701  0.24513798  1  0.122158  0  0.11029  0.143024  0  1.01008  0
H  H7  1  0.63811142  0.25974547  0.25546314  1  0.13335  0  0.111035  0.144249  0  1.008546  0
H  H8  1  0.00022463  0.94707063  0.85248089  1  0.123633  0  0.107189  0.139983  0  1.028453  0
H  H9  1  0.09352611  0.64797138  0.64671713  1  0.117511  0  0.107104  0.139341  0  1.026874  0
H  H10  1  0.99978108  0.05292339  0.14752530  1  0.123718  0  0.107177  0.139991  0  1.028459  0
H  H11  1  0.90647617  0.35201526  0.35327440  1  0.117702  0  0.107123  0.139448  0  1.026851  0
H  H12  1  0.24550748  0.94523091  0.93542724  1  0.08786  0  0.113636  0.140674  0  0.974947  0
H  H13  1  0.00907456  0.81020451  0.56369024  1  0.088057  0  0.113481  0.139753  0  0.97575  0
H  H14  1  0.75449671  0.05476709  0.06456664  1  0.087946  0  0.11363  0.140653  0  0.975011  0
H  H15  1  0.99092058  0.18977769  0.43630334  1  0.087845  0  0.113501  0.139772  0  0.975738  0
H  H16  1  0.39358247  0.12269093  0.89655834  1  0.098284  0  0.11663  0.144022  0  0.974772  0
H  H17  1  0.22580821  0.99679934  0.60270776  1  0.099762  0  0.117671  0.145426  0  0.975282  0
H  H18  1  0.60641014  0.87730786  0.10342891  1  0.098188  0  0.116618  0.144029  0  0.974683  0
H  H19  1  0.77418152  0.00319095  0.39728734  1  0.099713  0  0.117635  0.145383  0  0.975284  0
H  H20  1  0.24268300  0.23232640  0.79097422  1  0.115667  0  0.110424  0.139448  0  1.015225  0
H  H21  1  0.44103385  0.95136437  0.70853838  1  0.104512  0  0.110748  0.13932  0  1.014578  0
H  H22  1  0.75729853  0.76767144  0.20901692  1  0.115933  0  0.110402  0.139512  0  1.015196  0
H  H23  1  0.55895786  0.04862936  0.29145788  1  0.104825  0  0.110752  0.139311  0  1.014466  0
H  H24  1  0.96036283  0.18496140  0.96137448  1  0.116817  0  0.108856  0.139421  0  1.00594  0
H  H25  1  0.22418066  0.49987853  0.53880673  1  0.101779  0  0.108821  0.138875  0  1.005525  0
H  H26  1  0.03962799  0.81504313  0.03862047  1  0.116924  0  0.108861  0.139479  0  1.005828  0
H  H27  1  0.77582475  0.50012214  0.46118938  1  0.101698  0  0.108828  0.138887  0  1.005377  0
H  H28  1  0.14140528  0.26393576  0.19830693  1  0.096838  0  0.110721  0.132937  0  0.99149  0
H  H29  1  0.06628661  0.44331593  0.30174733  1  0.086663  0  0.111285  0.133569  0  0.991718  0
H  H30  1  0.85857721  0.73606166  0.80168603  1  0.096793  0  0.110737  0.132909  0  0.991493  0
H  H31  1  0.93371650  0.55668429  0.69825202  1  0.086647  0  0.111249  0.133545  0  0.991707  0
H  H32  1  0.36805459  0.45079987  0.25532523  1  0.129911  0  0.117462  0.147168  0  0.969368  0
H  H33  1  0.19585793  0.61267980  0.24439647  1  0.108654  0  0.117404  0.146445  0  0.969475  0
H  H34  1  0.63193625  0.54919063  0.74467280  1  0.129821  0  0.117458  0.147099  0  0.969496  0
H  H35  1  0.80414070  0.38731955  0.75559666  1  0.10875  0  0.117388  0.146448  0  0.969576  0
H  H36  1  0.32654671  0.49329853  0.05593394  1  0.150403  0  0.107741  0.140499  0  1.031898  0
H  H37  1  0.43764443  0.77116280  0.44382721  1  0.141477  0  0.107558  0.140647  0  1.033169  0
H  H38  1  0.67345443  0.50669643  0.94406786  1  0.150271  0  0.107757  0.140544  0  1.031875  0
H  H39  1  0.56235726  0.22883593  0.55616702  1  0.141541  0  0.107542  0.140648  0  1.033105  0
H  H40  1  0.07330032  0.33074168  0.87414966  1  0.120453  0  0.106589  0.13985  0  1.041052  0
H  H41  1  0.45696047  0.70021482  0.62588513  1  0.152232  0  0.106367  0.138482  0  1.041539  0
H  H42  1  0.92669975  0.66925917  0.12584677  1  0.120507  0  0.106588  0.139828  0  1.041089  0
H  H43  1  0.54304524  0.29978286  0.37411022  1  0.152235  0  0.106437  0.138593  0  1.041471  0
C  C44  1  0.28110484  0.09784943  0.17723471  1  1.619279  0  0.20621  0.610216  0  4.281645  0
C  C45  1  0.92022638  0.60374953  0.32186294  1  1.607347  0  0.205706  0.610308  0  4.280313  0
C  C46  1  0.71891957  0.90217690  0.82278371  1  1.619676  0  0.206  0.609769  0  4.282157  0
C  C47  1  0.07978333  0.39625320  0.67813651  1  1.607275  0  0.205623  0.610281  0  4.280233  0
C  C48  1  0.29989709  0.04942275  0.26845910  1  0.115454  0  -0.027954  -0.140067  0  3.943025  0
C  C49  1  0.78052724  0.53127911  0.23062705  1  -0.185362  0  -0.029995  -0.143907  0  3.942009  0
C  C50  1  0.70012278  0.95061124  0.73156811  1  0.114387  0  -0.027824  -0.139824  0  3.943056  0
C  C51  1  0.21949252  0.46873168  0.76938894  1  -0.185461  0  -0.030066  -0.14395  0  3.942371  0
C  C52  1  0.31357441  0.01305171  0.34889967  1  -0.362265  0  0.003354  -0.069619  0  3.866081  0
C  C53  1  0.66368857  0.46447901  0.15015572  1  -0.055342  0  0.004681  -0.066364  0  3.866008  0
C  C54  1  0.68644544  0.98696336  0.65111383  1  -0.361564  0  0.003363  -0.069684  0  3.866229  0
C  C55  1  0.33631520  0.53552438  0.84986184  1  -0.055648  0  0.004734  -0.066336  0  3.866504  0
C  C56  1  0.52687701  0.38257866  0.04870747  1  1.708999  0  0.232962  0.652099  0  4.271649  0
C  C57  1  0.33313376  0.97781493  0.45042300  1  1.738672  0  0.231628  0.651038  0  4.272865  0
C  C58  1  0.47312158  0.61742312  0.95129950  1  1.708994  0  0.232947  0.652066  0  4.271824  0
C  C59  1  0.66686162  0.02218683  0.54958175  1  1.738836  0  0.23165  0.651154  0  4.272895  0
C  C60  1  0.07958287  0.09507628  0.79692966  1  -0.206384  0  -0.148621  -0.183058  0  4.05602  0
C  C61  1  0.29736723  0.78255097  0.70236238  1  -0.234449  0  -0.150426  -0.187548  0  4.058632  0
C  C62  1  0.92040501  0.90491731  0.20306838  1  -0.207234  0  -0.148654  -0.182999  0  4.056269  0
C  C63  1  0.70262897  0.21743509  0.29762872  1  -0.234499  0  -0.150451  -0.187513  0  4.058748  0
C  C64  1  0.08158256  0.00338407  0.84583248  1  -0.177921  0  -0.157151  -0.189538  0  4.038218  0
C  C65  1  0.15668274  0.73584622  0.65338882  1  -0.170861  0  -0.157283  -0.18612  0  4.037925  0
C  C66  1  0.91841608  0.99661161  0.15416968  1  -0.177397  0  -0.157042  -0.189488  0  4.038255  0
C  C67  1  0.84331572  0.26414455  0.34660927  1  -0.170794  0  -0.15731  -0.186398  0  4.038188  0
C  C68  1  0.21192006  0.00465422  0.89188071  1  -0.197919  0  -0.153449  -0.18006  0  4.036132  0
C  C69  1  0.11208859  0.82011451  0.60735760  1  -0.161771  0  -0.152462  -0.180321  0  4.035319  0
C  C70  1  0.78808080  0.99534557  0.10811643  1  -0.198012  0  -0.153455  -0.18005  0  4.036257  0
C  C71  1  0.88790640  0.17987741  0.39264084  1  -0.161313  0  -0.152488  -0.18029  0  4.03547  0
C  C72  1  0.28954783  0.09706175  0.87124425  1  -0.17428  0  -0.143318  -0.152082  0  4.034047  0
C  C73  1  0.22536802  0.91819125  0.62806646  1  -0.160194  0  -0.144356  -0.152991  0  4.03477  0
C  C74  1  0.71044815  0.90294196  0.12875291  1  -0.174374  0  -0.143303  -0.151955  0  4.033822  0
C  C75  1  0.77462862  0.08180099  0.37193636  1  -0.160485  0  -0.144322  -0.152964  0  4.034714  0
C  C76  1  0.20925165  0.15538685  0.81500879  1  -0.133572  0  -0.160172  -0.20483  0  4.045012  0
C  C77  1  0.33989593  0.89406854  0.68439988  1  -0.15584  0  -0.159317  -0.203231  0  4.044693  0
C  C78  1  0.79073733  0.84461062  0.18498313  1  -0.133979  0  -0.160218  -0.205112  0  4.045244  0
C  C79  1  0.66010140  0.10592385  0.31559168  1  -0.156299  0  -0.159325  -0.203219  0  4.044607  0
C  C80  1  0.06032697  0.26190932  0.01252611  1  -0.257584  0  -0.165319  -0.207311  0  4.045076  0
C  C81  1  0.24989338  0.54854726  0.48754312  1  -0.190454  0  -0.165401  -0.20798  0  4.04495  0
C  C82  1  0.93966255  0.73809435  0.98746845  1  -0.263632  0  -0.165301  -0.207411  0  4.044828  0
C  C83  1  0.75011091  0.45144709  0.51245253  1  -0.18985  0  -0.165458  -0.208068  0  4.045049  0
C  C84  1  0.15602106  0.30317531  0.13729511  1  -0.132296  0  -0.147711  -0.164905  0  4.054987  0
C  C85  1  0.16645200  0.51911077  0.36269880  1  -0.228739  0  -0.147295  -0.162424  0  4.053361  0
C  C86  1  0.84396384  0.69682318  0.86270116  1  -0.126815  0  -0.147733  -0.164855  0  4.054805  0
C  C87  1  0.83354624  0.48088911  0.63729396  1  -0.229314  0  -0.147222  -0.162334  0  4.053442  0
C  C88  1  0.27534820  0.40149141  0.16741859  1  -0.214849  0  -0.148317  -0.174531  0  4.026237  0
C  C89  1  0.23453005  0.60815302  0.33241539  1  -0.142036  0  -0.148924  -0.17613  0  4.026228  0
C  C90  1  0.72464257  0.59850275  0.83257585  1  -0.215502  0  -0.148282  -0.174387  0  4.026095  0
C  C91  1  0.76547133  0.39185296  0.66758621  1  -0.142013  0  -0.148952  -0.176206  0  4.026248  0
C  C92  1  0.25298157  0.42406397  0.06197618  1  -0.205239  0  -0.14751  -0.164132  0  4.008141  0
C  C93  1  0.36242966  0.69156351  0.43786828  1  -0.172332  0  -0.148144  -0.164808  0  4.010088  0
C  C94  1  0.74701563  0.57593022  0.93802268  1  -0.204631  0  -0.147503  -0.164229  0  4.008153  0
C  C95  1  0.63756937  0.30843958  0.56212998  1  -0.172467  0  -0.148141  -0.164764  0  4.009805  0
C  C96  1  0.12017799  0.33855737  0.96669440  1  -0.162073  0  -0.156718  -0.198658  0  4.058907  0
C  C97  1  0.37222797  0.65438755  0.53333153  1  -0.214085  0  -0.155647  -0.195901  0  4.057895  0
C  C98  1  0.87981771  0.66143714  0.03330118  1  -0.161347  0  -0.156716  -0.19856  0  4.058858  0
C  C99  1  0.62777539  0.34561150  0.46666526  1  -0.214015  0  -0.155699  -0.196036  0  4.057866  0
O  O100  1  0.16202309  0.07048208  0.09282370  1  -1.144051  0  -0.316664  -0.540303  0  2.247718  0
O  O101  1  0.97726361  0.56905726  0.40623826  1  -1.136945  0  -0.316987  -0.540785  0  2.245109  0
O  O102  1  0.83799176  0.92954240  0.90718445  1  -1.14405  0  -0.316572  -0.540043  0  2.247869  0
O  O103  1  0.02275644  0.43094993  0.59376133  1  -1.136919  0  -0.316826  -0.540663  0  2.244946  0
O  O104  1  0.38219328  0.17237712  0.18032080  1  -1.156982  0  -0.331099  -0.539384  0  2.199124  0
O  O105  1  0.99167545  0.70175205  0.31889561  1  -1.151913  0  -0.330467  -0.538821  0  2.203152  0
O  O106  1  0.61783049  0.82763628  0.81968727  1  -1.157033  0  -0.331053  -0.539265  0  2.199135  0
O  O107  1  0.00833152  0.29824649  0.68110375  1  -1.151865  0  -0.330444  -0.538833  0  2.203163  0
O  O108  1  0.44577571  0.33230315  0.08132889  1  -1.172569  0  -0.385728  -0.60804  0  2.381143  0
O  O109  1  0.25046835  0.86415099  0.41780637  1  -1.177203  0  -0.386123  -0.607765  0  2.383078  0
O  O110  1  0.55421694  0.66768649  0.91868003  1  -1.172413  0  -0.385676  -0.607959  0  2.381429  0
O  O111  1  0.74953905  0.13585922  0.58219025  1  -1.17704  0  -0.386201  -0.607922  0  2.3829  0
O  O112  1  0.50128596  0.36706538  0.94548045  1  -1.103738  0  -0.27753  -0.488187  0  2.058767  0
O  O113  1  0.42074189  0.05547823  0.55367289  1  -1.121875  0  -0.27635  -0.487436  0  2.058694  0
O  O114  1  0.49872270  0.63295055  0.05454242  1  -1.103878  0  -0.277669  -0.488321  0  2.058486  0
O  O115  1  0.57924402  0.94453083  0.44633951  1  -1.122295  0  -0.276345  -0.487428  0  2.059035  0
