# generated using pymatgen
data_Zn4H23C65N21O5
_symmetry_space_group_name_H-M   'P 1'
_cell_length_a   18.49549019
_cell_length_b   20.33275505
_cell_length_c   19.26068857
_cell_angle_alpha   104.45967450
_cell_angle_beta   107.88015101
_cell_angle_gamma   112.43303646
_symmetry_Int_Tables_number   1
_chemical_formula_structural   Zn4H23C65N21O5
_chemical_formula_sum   'Zn4 H23 C65 N21 O5'
_cell_volume   5791.22419228
_cell_formula_units_Z   1
loop_
 _symmetry_equiv_pos_site_id
 _symmetry_equiv_pos_as_xyz
  1  'x, y, z'
loop_
 _atom_site_type_symbol
 _atom_site_label
 _atom_site_symmetry_multiplicity
 _atom_site_fract_x
 _atom_site_fract_y
 _atom_site_fract_z
 _atom_site_occupancy
 _atom_site_pbe_bader_charge
 _atom_site_pbe_bader_spin_density
 _atom_site_pbe_cm5_charge
 _atom_site_pbe_ddec_charge
 _atom_site_pbe_ddec_spin_density
 _atom_site_pbe_ddec_sum_bond_order
 _atom_site_pbe_magmom
Zn  Zn0  1  0.10615102  0.50630749  0.10016145  1  1.208939  0  0.758875  0.706443  0  2.179925  0
Zn  Zn1  1  0.87572409  0.49869498  0.87766884  1  1.202516  0  0.769942  0.661086  0  2.393415  0
Zn  Zn2  1  0.88582453  0.39097576  0.98467552  1  1.20091  0  0.75024  0.666124  0  2.281715  0
Zn  Zn3  1  0.10228631  0.60967330  0.99658728  1  1.187851  0  0.745592  0.631135  0  2.357646  0
H  H4  1  0.14559058  0.36978912  0.12388999  1  0.100578  0  0.128323  0.118446  0  0.979003  0
H  H5  1  0.53854901  0.00198823  0.32037690  1  0.093612  0  0.120097  0.130186  0  0.969579  0
H  H6  1  0.09826806  0.99610667  0.13556261  1  0.105238  0  0.124214  0.149241  0  0.961221  0
H  H7  1  0.80220983  0.23124029  0.82954622  1  0.102193  0  0.127355  0.116216  0  0.99401  0
H  H8  1  0.32101270  0.67436838  0.01442695  1  0.105055  0  0.130091  0.123425  0  0.973175  0
H  H9  1  0.71314252  0.35336043  0.70081007  1  0.108025  0  0.133185  0.125241  0  0.965848  0
H  H10  1  0.26609000  0.48247751  0.08722596  1  0.090356  0  0.123688  0.115683  0  0.984347  0
H  H11  1  0.15300267  0.50068056  0.89278877  1  0.143311  0  0.125207  0.120818  0  1.00866  0
H  H12  1  0.87312097  0.22766838  0.94784796  1  0.089523  0  0.128956  0.119779  0  0.982288  0
H  H13  1  0.25954041  0.65016856  0.27459525  1  0.148666  0  0.122429  0.123279  0  1.020538  0
H  H14  1  0.82059729  0.28492470  0.15558142  1  0.630484  0  0.355468  0.395016  0  0.836318  0
H  H15  1  0.80471143  0.59918530  0.96871824  1  0.13688  0  0.126054  0.117245  0  1.008582  0
H  H16  1  0.79299397  0.24130400  0.38298088  1  0.628629  0  0.301509  0.350589  0  0.967457  0
H  H17  1  0.21252605  0.47257079  0.60666385  1  0.610937  0  0.340428  0.367536  0  0.868506  0
H  H18  1  0.44360493  0.83135380  0.42564035  1  0.619998  0  0.325069  0.35549  0  0.903326  0
H  H19  1  0.12248226  0.18329028  0.16457745  1  0.620801  0  0.329106  0.357058  0  0.8972  0
H  H20  1  0.10076475  0.76887134  0.06007064  1  0.122863  0  0.127204  0.116747  0  1.006191  0
H  H21  1  0.21673055  0.77910364  0.13314842  1  0.078524  0  0.121482  0.10886  0  1.002153  0
H  H22  1  0.83869274  0.47214349  0.11473153  1  0.103154  0  0.127052  0.123603  0  0.992392  0
H  H23  1  0.87739317  0.28034322  0.51538072  1  0.108455  0  0.104697  0.12785  0  1.018081  0
H  H24  1  0.12882092  0.43359034  0.47221221  1  0.065287  0  0.106796  0.124357  0  0.997695  0
H  H25  1  0.87772505  0.38749852  0.72986254  1  0.102024  0  0.12206  0.109425  0  1.018679  0
H  H26  1  0.60881962  0.00784007  0.59368758  1  0.09867  0  0.123113  0.150504  0  0.960677  0
C  C27  1  0.08000645  0.34614890  0.07720350  1  0.433256  0  0.024014  -0.039535  0  3.932575  0
C  C28  1  0.04274216  0.46439143  0.22120171  1  0.587124  0  0.093124  0.088334  0  4.13801  0
C  C29  1  0.21194402  0.73567729  0.15742426  1  0.436018  0  0.013873  -0.050683  0  3.960394  0
C  C30  1  0.94211644  0.42188470  0.78073127  1  0.43003  0  0.023161  -0.025723  0  3.921822  0
C  C31  1  0.83851720  0.49899380  0.07269016  1  0.450389  0  0.024435  -0.022794  0  3.89555  0
C  C32  1  0.27404701  0.74399780  0.22811835  1  0.134139  0  -0.024088  0.047831  0  4.181412  0
C  C33  1  0.80300541  0.54739552  0.05891268  1  0.156291  0  -0.020989  0.040423  0  4.190551  0
C  C34  1  0.97635551  0.40243441  0.22483562  1  0.189865  0  -0.02885  -0.10138  0  4.211229  0
C  C35  1  0.96646228  0.73598185  0.97479400  1  0.139239  0  -0.004529  0.024523  0  4.138952  0
C  C36  1  0.41147005  0.58853582  0.06759195  1  -0.425752  0  -0.026696  -0.061058  0  4.081598  0
C  C37  1  0.48220084  0.59150799  0.07984471  1  0.210016  0  -0.044509  -0.056702  0  4.33476  0
C  C38  1  0.02134289  0.42684062  0.78443975  1  0.144789  0  -0.019638  0.058304  0  4.174327  0
C  C39  1  0.55745004  0.59193483  0.09064897  1  -0.216558  0  -0.022533  -0.011702  0  4.245386  0
C  C40  1  0.62449189  0.58860831  0.09739460  1  0.160003  0  -0.023885  -0.017055  0  4.241992  0
C  C41  1  0.69236197  0.58005983  0.09590209  1  0.020288  0  -0.038775  -0.045208  0  4.323474  0
C  C42  1  0.78601895  0.27211216  0.81121998  1  0.447774  0  0.02976  -0.02122  0  3.926642  0
C  C43  1  0.74949185  0.56704623  0.08721800  1  -0.21292  0  -0.027601  -0.068185  0  4.058084  0
C  C44  1  0.91774403  0.30977124  0.42880950  1  0.539254  0  0.080187  0.269  0  4.078663  0
C  C45  1  0.98943200  0.35540995  0.41722009  1  0.145833  0  -0.016193  0.043758  0  4.116051  0
C  C46  1  0.07446817  0.39887994  0.48223702  1  -0.045561  0  -0.108242  -0.273607  0  4.008226  0
C  C47  1  0.08880159  0.40088618  0.55790385  1  0.488521  0  0.073624  0.249703  0  4.104433  0
C  C48  1  0.01668024  0.35920282  0.57093660  1  0.140791  0  -0.009673  0.060516  0  4.112269  0
C  C49  1  0.74342404  0.26426448  0.73268539  1  0.171147  0  -0.022545  0.033552  0  4.183921  0
C  C50  1  0.93264439  0.31246901  0.50522738  1  -0.03139  0  -0.104553  -0.262578  0  3.959145  0
C  C51  1  0.97868248  0.36387423  0.34501715  1  -0.287593  0  -0.033594  -0.046459  0  4.126715  0
C  C52  1  0.02639328  0.37254865  0.64955497  1  0.102222  0  -0.042002  -0.068286  0  4.117637  0
C  C53  1  0.03074585  0.39398563  0.71657379  1  -0.416717  0  -0.054304  -0.112823  0  4.128465  0
C  C54  1  0.29395985  0.62711197  0.03165619  1  0.458635  0  0.024699  -0.039539  0  3.94007  0
C  C55  1  0.97726933  0.38051390  0.28800905  1  -0.041484  0  -0.070336  -0.129114  0  4.230763  0
C  C56  1  0.59504925  0.00702450  0.53423978  1  0.028347  0  -0.086139  -0.239349  0  3.897644  0
C  C57  1  0.63723582  0.07666845  0.52638784  1  0.101761  0  0.016761  0.138641  0  4.10168  0
C  C58  1  0.62048740  0.07277125  0.44751467  1  0.075992  0  -0.003581  -0.021588  0  4.077232  0
C  C59  1  0.55378891  0.00329642  0.38016763  1  0.047099  0  -0.062827  -0.121069  0  3.918722  0
C  C60  1  0.33021147  0.58201990  0.05594660  1  0.120356  0  -0.027758  0.028534  0  4.216373  0
C  C61  1  0.50495068  0.93637297  0.38876929  1  0.123769  0  -0.015148  0.013194  0  4.145408  0
C  C62  1  0.53070235  0.93780103  0.46719852  1  0.514808  0  0.10511  0.297502  0  4.050435  0
C  C63  1  0.68681604  0.14771094  0.59641512  1  0.160044  0  -0.049132  -0.125509  0  4.11073  0
C  C64  1  0.42824225  0.86865050  0.32601753  1  0.017408  0  -0.055244  -0.132611  0  4.163891  0
C  C65  1  0.35629491  0.81004443  0.28225475  1  -0.409274  0  -0.035595  -0.075884  0  4.141028  0
C  C66  1  0.74042355  0.33445108  0.74517078  1  0.436298  0  0.028496  -0.032416  0  3.947065  0
C  C67  1  0.71345589  0.20207487  0.65982535  1  -0.476222  0  -0.033426  -0.061223  0  4.118747  0
C  C68  1  0.03938417  0.00019449  0.11176740  1  0.067478  0  -0.081254  -0.229957  0  3.893004  0
C  C69  1  0.95724443  0.93167345  0.06467585  1  0.072757  0  0.019206  0.132014  0  4.10667  0
C  C70  1  0.88041146  0.93811475  0.03794994  1  0.169863  0  0.018391  -0.021769  0  4.012836  0
C  C71  1  0.23547767  0.67001840  0.22980539  1  0.449253  0  0.026339  -0.026282  0  3.890111  0
C  C72  1  0.88896242  0.01244383  0.04857599  1  0.105874  0  0.025835  0.0173  0  4.017302  0
C  C73  1  0.97287080  0.08015513  0.08615569  1  0.096651  0  -0.000545  -0.010581  0  4.105422  0
C  C74  1  0.04742743  0.07337433  0.12316334  1  0.523927  0  0.101751  0.28981  0  4.071932  0
C  C75  1  0.95354741  0.85863664  0.03798662  1  0.060494  0  -0.032499  -0.093326  0  4.090156  0
C  C76  1  0.98504946  0.15105912  0.08102503  1  -0.168746  0  -0.055024  -0.138132  0  4.192567  0
C  C77  1  0.99832143  0.20820405  0.06556593  1  -0.157124  0  -0.022325  -0.045471  0  4.120123  0
C  C78  1  0.26532388  0.52840658  0.06844942  1  0.457505  0  0.018928  -0.039351  0  3.950897  0
C  C79  1  0.95703347  0.80029519  0.00727172  1  -0.343222  0  -0.029805  -0.059202  0  4.110235  0
C  C80  1  0.08336532  0.47981082  0.86394767  1  0.386218  0  0.019663  -0.02795  0  3.889259  0
C  C81  1  0.94068527  0.27371418  0.98638635  1  0.45616  0  0.024798  -0.03359  0  3.920784  0
C  C82  1  0.82202194  0.56453888  0.99794266  1  0.420143  0  0.028161  -0.022556  0  3.906002  0
C  C83  1  0.00664716  0.27088045  0.04447883  1  0.130805  0  -0.023751  0.040976  0  4.184356  0
C  C84  1  0.82072304  0.63774240  0.84941958  1  0.838825  0  0.174935  0.203182  0  4.045715  0
C  C85  1  0.13070621  0.51548642  0.27908910  1  0.801583  0  0.176764  0.228062  0  4.051828  0
C  C86  1  0.67034976  0.13743083  0.43463995  1  0.839403  0  0.194  0.266975  0  4.040203  0
C  C87  1  0.79625694  0.87010050  0.99836266  1  0.858835  0  0.16933  0.226759  0  4.057577  0
C  C88  1  0.81407137  0.02107182  0.01856064  1  0.837805  0  0.177782  0.242492  0  4.027608  0
C  C89  1  0.90632154  0.36716503  0.14710545  1  1.041821  0  0.194655  0.352739  0  4.121018  0
C  C90  1  0.04001367  0.72744712  0.00626665  1  0.479506  0  0.03058  -0.027458  0  3.925696  0
C  C91  1  0.90720263  0.66452233  0.90529225  1  0.552555  0  0.111862  0.098073  0  4.087425  0
N  N92  1  0.05808904  0.38958047  0.04217264  1  -0.773555  0  -0.271805  -0.178625  0  3.560266  0
N  N93  1  0.80698268  0.34111463  0.86514746  1  -0.817279  0  -0.272468  -0.191485  0  3.570797  0
N  N94  1  0.21538849  0.60256811  0.03128524  1  -0.806632  0  -0.270944  -0.181766  0  3.584373  0
N  N95  1  0.77885125  0.38039416  0.82404957  1  -0.776444  0  -0.269233  -0.195592  0  3.468924  0
N  N96  1  0.19749890  0.54155476  0.05377180  1  -0.793705  0  -0.273803  -0.223775  0  3.580195  0
N  N97  1  0.04354332  0.50556183  0.90360659  1  -0.812049  0  -0.285264  -0.211605  0  3.624297  0
N  N98  1  0.97169628  0.34530573  0.98605984  1  -0.779097  0  -0.268842  -0.201453  0  3.474529  0
N  N99  1  0.15777180  0.62229411  0.16456543  1  -0.797565  0  -0.273855  -0.179525  0  3.555962  0
N  N100  1  0.74842997  0.61311307  0.80316828  1  -1.085832  0  -0.292688  -0.317034  0  2.651585  0
N  N101  1  0.20488463  0.55639614  0.32487611  1  -1.153197  0  -0.317503  -0.370275  0  2.712476  0
N  N102  1  0.71153178  0.18734159  0.42024784  1  -1.187111  0  -0.300553  -0.384317  0  2.837302  0
N  N103  1  0.86389257  0.52799549  0.97695487  1  -0.813744  0  -0.289577  -0.191088  0  3.668318  0
N  N104  1  0.72716606  0.81411922  0.96711533  1  -1.085235  0  -0.299391  -0.332963  0  2.655763  0
N  N105  1  0.75464776  0.03115705  0.99546589  1  -1.094571  0  -0.305061  -0.344001  0  2.649887  0
N  N106  1  0.92927364  0.40467721  0.10267055  1  -0.786946  0  -0.266688  -0.261634  0  3.534987  0
N  N107  1  0.02552719  0.65742548  0.96063536  1  -0.786344  0  -0.254159  -0.157672  0  3.553202  0
N  N108  1  0.94330446  0.61763812  0.89792624  1  -0.713047  0  -0.245718  -0.218633  0  3.404079  0
N  N109  1  0.01323607  0.46535642  0.14760848  1  -0.711477  0  -0.255287  -0.253223  0  3.467185  0
N  N110  1  0.14265907  0.66233818  0.11909222  1  -0.782087  0  -0.279361  -0.205681  0  3.517381  0
N  N111  1  0.87399828  0.48727613  0.02227669  1  -0.798455  0  -0.278988  -0.20386  0  3.590861  0
N  N112  1  0.95676962  0.46936513  0.85184301  1  -0.812504  0  -0.291461  -0.195505  0  3.694329  0
O  O113  1  0.82543036  0.30527234  0.11529204  1  -1.143921  0  -0.33549  -0.443058  0  2.238682  0
O  O114  1  0.83663448  0.26731686  0.36534191  1  -1.145975  0  -0.366046  -0.457364  0  2.279644  0
O  O115  1  0.16977453  0.44450891  0.62298254  1  -1.123083  0  -0.35618  -0.444863  0  2.257553  0
O  O116  1  0.48990705  0.87326032  0.47834621  1  -1.131055  0  -0.334946  -0.409317  0  2.245781  0
O  O117  1  0.12821812  0.13746176  0.16559100  1  -1.128972  0  -0.335557  -0.41034  0  2.242871  0
