# generated using pymatgen
data_ErH6(C2N3)3
_symmetry_space_group_name_H-M   'P 1'
_cell_length_a   9.23884835
_cell_length_b   9.23886389
_cell_length_c   12.58290522
_cell_angle_alpha   91.49458051
_cell_angle_beta   91.49436468
_cell_angle_gamma   119.03041108
_symmetry_Int_Tables_number   1
_chemical_formula_structural   ErH6(C2N3)3
_chemical_formula_sum   'Er4 H24 C24 N36'
_cell_volume   937.85148757
_cell_formula_units_Z   4
loop_
 _symmetry_equiv_pos_site_id
 _symmetry_equiv_pos_as_xyz
  1  'x, y, z'
loop_
 _atom_site_type_symbol
 _atom_site_label
 _atom_site_symmetry_multiplicity
 _atom_site_fract_x
 _atom_site_fract_y
 _atom_site_fract_z
 _atom_site_occupancy
 _atom_site_hle17_bader_spin_density
 _atom_site_hle17_ddec_charge
 _atom_site_hle17_ddec_spin_density
 _atom_site_hle17_ddec_sum_bond_order
 _atom_site_hle17_magmom
 _atom_site_hse06_10hf_bader_spin_density
 _atom_site_hse06_10hf_ddec_charge
 _atom_site_hse06_10hf_ddec_spin_density
 _atom_site_hse06_10hf_ddec_sum_bond_order
 _atom_site_hse06_10hf_magmom
 _atom_site_hse06_bader_spin_density
 _atom_site_hse06_ddec_charge
 _atom_site_hse06_ddec_spin_density
 _atom_site_hse06_ddec_sum_bond_order
 _atom_site_hse06_magmom
 _atom_site_pbe_bader_spin_density
 _atom_site_pbe_cm5_charge
 _atom_site_pbe_ddec_charge
 _atom_site_pbe_ddec_spin_density
 _atom_site_pbe_ddec_sum_bond_order
 _atom_site_pbe_magmom
Er  Er0  1  0.52052990  0.25834722  0.42780997  1  0  1.829639  0  2.138089  0  0  1.60121  0  2.684742  0  0  1.677822  0  2.607449  0  0  1.768594  1.545388  0  2.739987  0
Er  Er1  1  0.74165031  0.47946976  0.07218982  1  0  1.829603  0  2.138111  0  0  1.601155  0  2.684788  0  0  1.677754  0  2.607509  0  0  1.768569  1.54535  0  2.740012  0
Er  Er2  1  0.47946748  0.74165031  0.57219092  1  0  1.829593  0  2.138068  0  0  1.601154  0  2.684744  0  0  1.677731  0  2.607487  0  0  1.768579  1.545338  0  2.739984  0
Er  Er3  1  0.25835007  0.52053397  0.92780966  1  0  1.829632  0  2.138048  0  0  1.601184  0  2.684723  0  0  1.677783  0  2.607448  0  0  1.768598  1.54539  0  2.739938  0
H  H4  1  0.22105653  0.29221086  0.23710102  1  0  0.107524  0  0.957674  0  0  0.116017  0  1.020165  0  0  0.11797  0  1.020193  0  0  0.12221  0.114642  0  1.020151  0
H  H5  1  0.70778709  0.77894283  0.26289766  1  0  0.107554  0  0.957664  0  0  0.116012  0  1.020196  0  0  0.117972  0  1.020218  0  0  0.122208  0.11464  0  1.020179  0
H  H6  1  0.77893940  0.70779038  0.76289754  1  0  0.107569  0  0.957664  0  0  0.116046  0  1.020171  0  0  0.118001  0  1.020197  0  0  0.122218  0.11467  0  1.020157  0
H  H7  1  0.29220884  0.22105842  0.73710249  1  0  0.107525  0  0.957673  0  0  0.116018  0  1.020166  0  0  0.117974  0  1.020191  0  0  0.12221  0.114642  0  1.020153  0
H  H8  1  0.13009626  0.53694611  0.27329074  1  0  0.112484  0  0.95271  0  0  0.1203  0  1.012851  0  0  0.122606  0  1.012356  0  0  0.122246  0.119103  0  1.012516  0
H  H9  1  0.46305388  0.86990622  0.22671009  1  0  0.11248  0  0.952737  0  0  0.120285  0  1.012892  0  0  0.122593  0  1.012399  0  0  0.122233  0.119094  0  1.012552  0
H  H10  1  0.86990015  0.46305390  0.72670939  1  0  0.112459  0  0.952771  0  0  0.120307  0  1.012869  0  0  0.122604  0  1.01239  0  0  0.12225  0.119112  0  1.012531  0
H  H11  1  0.53694710  0.13009874  0.77329023  1  0  0.112472  0  0.952717  0  0  0.120289  0  1.012856  0  0  0.122596  0  1.01236  0  0  0.122249  0.119094  0  1.012519  0
H  H12  1  0.90096130  0.25657412  0.33725651  1  0  0.102103  0  0.97215  0  0  0.107436  0  1.040855  0  0  0.109749  0  1.040119  0  0  0.120661  0.105692  0  1.041825  0
H  H13  1  0.74341996  0.09904152  0.16274274  1  0  0.102107  0  0.972143  0  0  0.107477  0  1.040781  0  0  0.109786  0  1.040045  0  0  0.120712  0.105732  0  1.041752  0
H  H14  1  0.09904028  0.74342093  0.66274362  1  0  0.102093  0  0.972157  0  0  0.107453  0  1.040808  0  0  0.109765  0  1.040071  0  0  0.120682  0.105708  0  1.041781  0
H  H15  1  0.25658103  0.90096345  0.83725996  1  0  0.102048  0  0.972194  0  0  0.107403  0  1.04087  0  0  0.109718  0  1.040131  0  0  0.12065  0.105663  0  1.041839  0
H  H16  1  0.97480761  0.01077449  0.40033762  1  0  0.102841  0  0.963161  0  0  0.110512  0  1.027869  0  0  0.113031  0  1.026894  0  0  0.119194  0.108778  0  1.028622  0
H  H17  1  0.98922069  0.02519292  0.09966196  1  0  0.102817  0  0.96318  0  0  0.110521  0  1.027859  0  0  0.113037  0  1.026888  0  0  0.119199  0.108783  0  1.028617  0
H  H18  1  0.02519193  0.98922304  0.59966173  1  0  0.102906  0  0.963123  0  0  0.110591  0  1.027824  0  0  0.113107  0  1.026849  0  0  0.119212  0.108852  0  1.028581  0
H  H19  1  0.01077620  0.97480584  0.90033816  1  0  0.102874  0  0.963134  0  0  0.110558  0  1.027831  0  0  0.113071  0  1.026858  0  0  0.119211  0.108818  0  1.028587  0
H  H20  1  0.15559796  0.89167806  0.16140352  1  0  0.112363  0  0.965678  0  0  0.119181  0  1.030141  0  0  0.121958  0  1.028684  0  0  0.123415  0.117097  0  1.031509  0
H  H21  1  0.10832322  0.84440022  0.33859692  1  0  0.112353  0  0.965696  0  0  0.119185  0  1.030142  0  0  0.121965  0  1.028684  0  0  0.123417  0.117103  0  1.031507  0
H  H22  1  0.84440158  0.10831947  0.83859822  1  0  0.112357  0  0.96569  0  0  0.119181  0  1.030149  0  0  0.121957  0  1.028693  0  0  0.123418  0.117096  0  1.031518  0
H  H23  1  0.89168016  0.15559855  0.66140332  1  0  0.112348  0  0.965686  0  0  0.119166  0  1.030151  0  0  0.121946  0  1.028691  0  0  0.123407  0.117083  0  1.031516  0
H  H24  1  0.36055021  0.08526124  0.00486531  1  0  0.101388  0  0.982335  0  0  0.110716  0  1.044996  0  0  0.112526  0  1.045207  0  0  0.121434  0.108904  0  1.045809  0
H  H25  1  0.91473569  0.63944813  0.49513681  1  0  0.101433  0  0.982321  0  0  0.110764  0  1.044952  0  0  0.11257  0  1.045166  0  0  0.12144  0.108949  0  1.045767  0
H  H26  1  0.63945137  0.91473381  0.99513641  1  0  0.10139  0  0.982336  0  0  0.110719  0  1.044967  0  0  0.112529  0  1.045178  0  0  0.121429  0.108884  0  1.045807  0
H  H27  1  0.08526433  0.36054816  0.50486411  1  0  0.101421  0  0.982348  0  0  0.110751  0  1.04498  0  0  0.112557  0  1.045194  0  0  0.121445  0.108913  0  1.045823  0
C  C28  1  0.26338648  0.39036197  0.29839697  1  0  0.025218  0  3.668939  0  0  -0.009807  0  3.936693  0  0  -0.006463  0  3.953221  0  0  0.01928  -0.011823  0  3.925499  0
C  C29  1  0.60963811  0.73661330  0.20160342  1  0  0.02519  0  3.668806  0  0  -0.009813  0  3.93657  0  0  -0.00648  0  3.953098  0  0  0.019264  -0.011834  0  3.925378  0
C  C30  1  0.73661005  0.60964051  0.70160242  1  0  0.025167  0  3.668813  0  0  -0.009851  0  3.936597  0  0  -0.006518  0  3.953125  0  0  0.019276  -0.011871  0  3.925406  0
C  C31  1  0.39036167  0.26338918  0.79839762  1  0  0.025198  0  3.668866  0  0  -0.009829  0  3.936628  0  0  -0.006488  0  3.95315  0  0  0.019265  -0.011848  0  3.925437  0
C  C32  1  0.21759105  0.51161048  0.31677120  1  0  0.012633  0  3.693412  0  0  -0.014327  0  3.961102  0  0  -0.012784  0  3.976556  0  0  0.013739  -0.015333  0  3.949964  0
C  C33  1  0.48838750  0.78241215  0.18323024  1  0  0.012595  0  3.693322  0  0  -0.014352  0  3.961032  0  0  -0.012811  0  3.976486  0  0  0.013733  -0.015362  0  3.949897  0
C  C34  1  0.78241138  0.48839077  0.68322907  1  0  0.012635  0  3.693256  0  0  -0.014345  0  3.960954  0  0  -0.012795  0  3.976401  0  0  0.013726  -0.015352  0  3.949822  0
C  C35  1  0.51161180  0.21759157  0.81677001  1  0  0.012662  0  3.69327  0  0  -0.01429  0  3.960953  0  0  -0.012746  0  3.9764  0  0  0.013751  -0.015297  0  3.949816  0
C  C36  1  0.83051396  0.14755772  0.38223796  1  0  0.004013  0  3.723818  0  0  -0.027204  0  3.989526  0  0  -0.02411  0  4.006197  0  0  0.015856  -0.029534  0  3.978996  0
C  C37  1  0.85243790  0.16948938  0.11776208  1  0  0.004081  0  3.723726  0  0  -0.027157  0  3.989449  0  0  -0.024058  0  4.006117  0  0  0.015829  -0.029489  0  3.97892  0
C  C38  1  0.16948654  0.85243733  0.61776137  1  0  0.004063  0  3.723744  0  0  -0.027166  0  3.989468  0  0  -0.024063  0  4.006129  0  0  0.015857  -0.029497  0  3.978944  0
C  C39  1  0.14756525  0.83051559  0.88224066  1  0  0.004129  0  3.723652  0  0  -0.027106  0  3.989347  0  0  -0.024004  0  4.00601  0  0  0.015893  -0.029438  0  3.978822  0
C  C40  1  0.86705623  0.02518628  0.41385559  1  0  -0.000147  0  3.716323  0  0  -0.026308  0  3.97912  0  0  -0.025529  0  3.995277  0  0  0.010301  -0.026872  0  3.968114  0
C  C41  1  0.97480913  0.13294456  0.08614417  1  0  -0.000153  0  3.716184  0  0  -0.026361  0  3.979019  0  0  -0.025576  0  3.995173  0  0  0.010301  -0.026918  0  3.968012  0
C  C42  1  0.13294210  0.97480877  0.58614289  1  0  -0.000259  0  3.716262  0  0  -0.026454  0  3.979086  0  0  -0.025668  0  3.995233  0  0  0.010258  -0.027007  0  3.968077  0
C  C43  1  0.02519125  0.86705916  0.91385849  1  0  -0.000179  0  3.71615  0  0  -0.026361  0  3.978972  0  0  -0.025573  0  3.995122  0  0  0.010291  -0.026917  0  3.967964  0
C  C44  1  0.27419099  0.00444872  0.16884806  1  0  -0.00044  0  3.697424  0  0  -0.027433  0  3.963457  0  0  -0.026492  0  3.978937  0  0  0.011397  -0.028094  0  3.953272  0
C  C45  1  0.99555195  0.72580689  0.33115255  1  0  -0.000485  0  3.69733  0  0  -0.027477  0  3.963356  0  0  -0.026539  0  3.978838  0  0  0.011364  -0.028135  0  3.953163  0
C  C46  1  0.72581059  0.99554633  0.83115367  1  0  -0.000465  0  3.69747  0  0  -0.027443  0  3.963477  0  0  -0.026507  0  3.978966  0  0  0.011384  -0.028099  0  3.953281  0
C  C47  1  0.00445191  0.27419064  0.66884688  1  0  -0.000492  0  3.697496  0  0  -0.027487  0  3.963542  0  0  -0.026545  0  3.979013  0  0  0.011378  -0.028144  0  3.953346  0
C  C48  1  0.37680007  0.09994202  0.09055186  1  0  0.027513  0  3.685877  0  0  -0.009642  0  3.951504  0  0  -0.005901  0  3.968284  0  0  0.020308  -0.011601  0  3.939854  0
C  C49  1  0.90005764  0.62320058  0.40944876  1  0  0.027493  0  3.685817  0  0  -0.00964  0  3.951456  0  0  -0.005899  0  3.968232  0  0  0.020313  -0.011601  0  3.939798  0
C  C50  1  0.62320224  0.90005674  0.90944836  1  0  0.027499  0  3.685769  0  0  -0.009642  0  3.951415  0  0  -0.005897  0  3.968193  0  0  0.020326  -0.011587  0  3.939783  0
C  C51  1  0.09994190  0.37679695  0.59055138  1  0  0.027471  0  3.68583  0  0  -0.009672  0  3.951475  0  0  -0.005926  0  3.968245  0  0  0.020289  -0.011615  0  3.939838  0
N  N52  1  0.38116731  0.41334091  0.37369404  1  0  -0.317968  0  3.261789  0  0  -0.274047  0  3.555522  0  0  -0.288105  0  3.576901  0  0  -0.311145  -0.264138  0  3.540598  0
N  N53  1  0.58665602  0.61883181  0.12630615  1  0  -0.317932  0  3.261771  0  0  -0.273995  0  3.555476  0  0  -0.288048  0  3.576861  0  0  -0.311121  -0.264087  0  3.540554  0
N  N54  1  0.61883066  0.58665786  0.62630372  1  0  -0.317969  0  3.261838  0  0  -0.274054  0  3.555572  0  0  -0.288099  0  3.576953  0  0  -0.311155  -0.26414  0  3.540647  0
N  N55  1  0.41334207  0.38116944  0.87369483  1  0  -0.317957  0  3.261803  0  0  -0.274038  0  3.555538  0  0  -0.288089  0  3.57691  0  0  -0.31114  -0.264128  0  3.540609  0
N  N56  1  0.40674571  0.54480963  0.43451107  1  0  -0.224475  0  3.363342  0  0  -0.183134  0  3.65209  0  0  -0.193995  0  3.677915  0  0  -0.266334  -0.175205  0  3.633949  0
N  N57  1  0.45518840  0.59325317  0.06548928  1  0  -0.224554  0  3.363418  0  0  -0.183213  0  3.652179  0  0  -0.194079  0  3.678008  0  0  -0.266396  -0.175287  0  3.63404  0
N  N58  1  0.59325118  0.45518913  0.56548746  1  0  -0.224435  0  3.363441  0  0  -0.183096  0  3.652197  0  0  -0.193969  0  3.678032  0  0  -0.266317  -0.175166  0  3.634061  0
N  N59  1  0.54481138  0.40674932  0.93451096  1  0  -0.224454  0  3.363439  0  0  -0.183111  0  3.652193  0  0  -0.193979  0  3.678019  0  0  -0.266328  -0.175184  0  3.634048  0
N  N60  1  0.30972172  0.60619117  0.40255183  1  0  -0.311192  0  3.162512  0  0  -0.271884  0  3.441017  0  0  -0.282924  0  3.461311  0  0  -0.296788  -0.264372  0  3.427469  0
N  N61  1  0.39380831  0.69027884  0.09744800  1  0  -0.311086  0  3.162476  0  0  -0.271783  0  3.440992  0  0  -0.282827  0  3.461291  0  0  -0.296721  -0.264273  0  3.427448  0
N  N62  1  0.69027409  0.39380759  0.59744747  1  0  -0.311201  0  3.162629  0  0  -0.271906  0  3.44116  0  0  -0.282946  0  3.46146  0  0  -0.296802  -0.264394  0  3.427618  0
N  N63  1  0.60619315  0.30972489  0.90255229  1  0  -0.311198  0  3.16253  0  0  -0.271885  0  3.44104  0  0  -0.28293  0  3.461331  0  0  -0.296805  -0.264379  0  3.427489  0
N  N64  1  0.68141420  0.11195646  0.42006850  1  0  -0.312542  0  3.256201  0  0  -0.270097  0  3.549471  0  0  -0.283573  0  3.569703  0  0  -0.309512  -0.260257  0  3.535758  0
N  N65  1  0.88804361  0.31858915  0.07993257  1  0  -0.312655  0  3.256286  0  0  -0.270218  0  3.549577  0  0  -0.283701  0  3.569814  0  0  -0.309552  -0.260379  0  3.535862  0
N  N66  1  0.31858702  0.88804231  0.57993011  1  0  -0.3125  0  3.256207  0  0  -0.270061  0  3.549494  0  0  -0.283537  0  3.569724  0  0  -0.309505  -0.260222  0  3.535787  0
N  N67  1  0.11196015  0.68141705  0.92007179  1  0  -0.312515  0  3.256225  0  0  -0.270074  0  3.549516  0  0  -0.283565  0  3.569757  0  0  -0.309536  -0.260245  0  3.535811  0
N  N68  1  0.62964774  0.97285650  0.47264035  1  0  -0.217222  0  3.34076  0  0  -0.179714  0  3.637064  0  0  -0.190094  0  3.661021  0  0  -0.258011  -0.17176  0  3.619915  0
N  N69  1  0.02714273  0.37035402  0.02736036  1  0  -0.217121  0  3.340587  0  0  -0.179603  0  3.636874  0  0  -0.18999  0  3.660828  0  0  -0.257963  -0.171656  0  3.619729  0
N  N70  1  0.37035059  0.02713855  0.52735575  1  0  -0.217193  0  3.340641  0  0  -0.179686  0  3.636953  0  0  -0.190076  0  3.660913  0  0  -0.258009  -0.171733  0  3.619814  0
N  N71  1  0.97286259  0.62965095  0.97264480  1  0  -0.217242  0  3.34078  0  0  -0.179734  0  3.637091  0  0  -0.190118  0  3.661046  0  0  -0.258001  -0.171784  0  3.619946  0
N  N72  1  0.73884350  0.91788796  0.47054872  1  0  -0.311024  0  3.147901  0  0  -0.276038  0  3.433472  0  0  -0.286051  0  3.452539  0  0  -0.291197  -0.268759  0  3.420739  0
N  N73  1  0.08211107  0.26115856  0.02945176  1  0  -0.311067  0  3.147849  0  0  -0.276083  0  3.433437  0  0  -0.286098  0  3.452504  0  0  -0.291235  -0.268805  0  3.420706  0
N  N74  1  0.26115651  0.08210833  0.52944982  1  0  -0.311094  0  3.147846  0  0  -0.276091  0  3.433409  0  0  -0.286116  0  3.45248  0  0  -0.291221  -0.268818  0  3.420683  0
N  N75  1  0.91788919  0.73884268  0.97054846  1  0  -0.311094  0  3.147842  0  0  -0.2761  0  3.433415  0  0  -0.286119  0  3.452483  0  0  -0.291221  -0.268823  0  3.420685  0
N  N76  1  0.35177625  0.07548847  0.26418530  1  0  -0.319293  0  3.147761  0  0  -0.280081  0  3.428364  0  0  -0.290116  0  3.446363  0  0  -0.29143  -0.273351  0  3.417004  0
N  N77  1  0.92451154  0.64822139  0.23581448  1  0  -0.319239  0  3.147615  0  0  -0.28002  0  3.428221  0  0  -0.290053  0  3.446225  0  0  -0.291375  -0.273292  0  3.416866  0
N  N78  1  0.64822618  0.92451277  0.73581577  1  0  -0.319231  0  3.147716  0  0  -0.280023  0  3.428325  0  0  -0.290051  0  3.446326  0  0  -0.291395  -0.273289  0  3.416965  0
N  N79  1  0.07548631  0.35177490  0.76418402  1  0  -0.319195  0  3.147759  0  0  -0.279987  0  3.428363  0  0  -0.290015  0  3.446362  0  0  -0.291373  -0.273252  0  3.417003  0
N  N80  1  0.49532954  0.20791027  0.24399118  1  0  -0.215467  0  3.335047  0  0  -0.175126  0  3.623047  0  0  -0.185304  0  3.647352  0  0  -0.25781  -0.16807  0  3.606687  0
N  N81  1  0.79209045  0.50466872  0.25600940  1  0  -0.215428  0  3.335068  0  0  -0.175096  0  3.623077  0  0  -0.185268  0  3.647381  0  0  -0.257799  -0.168037  0  3.606713  0
N  N82  1  0.50467445  0.79208974  0.75600830  1  0  -0.215441  0  3.334998  0  0  -0.175104  0  3.623022  0  0  -0.185282  0  3.647336  0  0  -0.257816  -0.168052  0  3.60667  0
N  N83  1  0.20790848  0.49532757  0.74399071  1  0  -0.215474  0  3.3351  0  0  -0.17515  0  3.623135  0  0  -0.185319  0  3.647435  0  0  -0.257809  -0.168091  0  3.606776  0
N  N84  1  0.51387501  0.22669643  0.13944623  1  0  -0.307922  0  3.236799  0  0  -0.260505  0  3.522429  0  0  -0.274171  0  3.54319  0  0  -0.306378  -0.250409  0  3.507364  0
N  N85  1  0.77330289  0.48612407  0.36055434  1  0  -0.308012  0  3.23677  0  0  -0.260604  0  3.522414  0  0  -0.274271  0  3.543167  0  0  -0.306435  -0.250505  0  3.507344  0
N  N86  1  0.48612621  0.77330233  0.86055317  1  0  -0.307979  0  3.236658  0  0  -0.260558  0  3.52231  0  0  -0.274233  0  3.543074  0  0  -0.30643  -0.250471  0  3.507243  0
N  N87  1  0.22669556  0.51387346  0.63944578  1  0  -0.307946  0  3.23676  0  0  -0.260525  0  3.522395  0  0  -0.274193  0  3.543147  0  0  -0.306405  -0.250432  0  3.507328  0
