# generated using pymatgen
data_FeAg3H27C51(NO)6
_symmetry_space_group_name_H-M   'P 1'
_cell_length_a   15.20048105
_cell_length_b   15.20048815
_cell_length_c   16.79197669
_cell_angle_alpha   89.99997236
_cell_angle_beta   89.99988956
_cell_angle_gamma   120.00005053
_symmetry_Int_Tables_number   1
_chemical_formula_structural   FeAg3H27C51(NO)6
_chemical_formula_sum   'Fe2 Ag6 H54 C102 N12 O12'
_cell_volume   3360.06052615
_cell_formula_units_Z   2
loop_
 _symmetry_equiv_pos_site_id
 _symmetry_equiv_pos_as_xyz
  1  'x, y, z'
loop_
 _atom_site_type_symbol
 _atom_site_label
 _atom_site_symmetry_multiplicity
 _atom_site_fract_x
 _atom_site_fract_y
 _atom_site_fract_z
 _atom_site_occupancy
 _atom_site_pbe_bader_charge
 _atom_site_pbe_bader_spin_density
 _atom_site_pbe_cm5_charge
 _atom_site_pbe_ddec_charge
 _atom_site_pbe_ddec_spin_density
 _atom_site_pbe_ddec_sum_bond_order
 _atom_site_pbe_magmom
Fe  Fe0  1  0.33333251  0.66666563  0.32063900  1  1.601458  3.797517  0.774273  1.144122  4.078967  2.699646  3.773
Fe  Fe1  1  0.66666717  0.33333427  0.67936248  1  1.601426  3.797483  0.774191  1.143978  4.078909  2.699627  3.773
Ag  Ag2  1  0.75245719  0.59802116  0.77758664  1  0.652932  -0.011944  0.535628  0.497648  -0.0268  2.066373  -0.01
Ag  Ag3  1  0.84556252  0.24754510  0.77758664  1  0.653636  -0.011945  0.535631  0.49764  -0.0268  2.066345  -0.01
Ag  Ag4  1  0.40198216  0.15443936  0.77758585  1  0.652965  -0.01195  0.535625  0.497641  -0.026798  2.066358  -0.01
Ag  Ag5  1  0.24754059  0.40198064  0.22241723  1  0.652918  -0.011943  0.53562  0.497674  -0.026795  2.06627  -0.01
Ag  Ag6  1  0.15443488  0.75245708  0.22241604  1  0.653502  -0.011948  0.535612  0.497681  -0.026807  2.066365  -0.01
Ag  Ag7  1  0.59802091  0.84556241  0.22241444  1  0.65305  -0.011953  0.535603  0.497629  -0.026805  2.06638  -0.01
H  H8  1  0.00383280  0.54959897  0.28616511  1  0.048975  0.00094  0.088298  0.106919  0.001023  1.07995  0.0
H  H9  1  0.21842909  0.52802620  0.10710978  1  0.1375  -0.00025  0.102246  0.112433  -0.000557  1.012117  0.0
H  H10  1  0.92347419  0.43713973  0.20667340  1  0.057554  -0.000413  0.098778  0.100661  -0.000343  1.009718  0.0
H  H11  1  0.13639813  0.43248010  0.98297519  1  0.050251  -0.000535  0.103246  0.103611  -0.000139  0.997457  0.0
H  H12  1  0.84157475  0.34406205  0.08369630  1  0.081056  -0.000582  0.101541  0.101534  -0.000314  0.99989  0.0
H  H13  1  0.17536907  0.64745108  0.52219552  1  0.085262  -0.000137  0.109065  0.117976  -0.000358  0.998031  0.0
H  H14  1  0.93604539  0.60546900  0.36207137  1  0.0376  -0.00028  0.100899  0.100496  -0.000282  1.008055  0.0
H  H15  1  0.07770187  0.66158500  0.63697423  1  0.073477  -0.000125  0.104531  0.106063  0.000185  0.993419  0.0
H  H16  1  0.83945926  0.62004285  0.47448169  1  0.089641  -0.000637  0.102056  0.104  -0.000601  1.035069  0.0
H  H17  1  0.54576607  0.99616524  0.28616514  1  0.05392  0.00093  0.0883  0.106944  0.001023  1.07998  0.0
H  H18  1  0.30959866  0.78156951  0.10711024  1  0.079985  -0.000372  0.102251  0.112449  -0.000556  1.012111  0.0
H  H19  1  0.51366374  0.07652413  0.20667324  1  0.059453  -0.000423  0.098792  0.100679  -0.000343  1.009717  0.0
H  H20  1  0.29608309  0.86359899  0.98297436  1  0.035802  -0.000557  0.103231  0.103622  -0.000139  0.997415  0.0
H  H21  1  0.50248716  0.15842247  0.08369545  1  0.083338  -0.000577  0.101535  0.101546  -0.000314  0.999953  0.0
H  H22  1  0.47208152  0.82462921  0.52219701  1  0.083675  -0.000116  0.109092  0.117992  -0.000358  0.998065  0.0
H  H23  1  0.66942152  0.06395104  0.36207172  1  0.025578  -0.000285  0.100859  0.100419  -0.000282  1.008017  0.0
H  H24  1  0.58388173  0.92229850  0.63697611  1  0.082757  -0.000113  0.104537  0.106055  0.000185  0.993352  0.0
H  H25  1  0.78058153  0.16053953  0.47448005  1  0.092891  -0.000634  0.102055  0.104016  -0.000601  1.03505  0.0
H  H26  1  0.45040081  0.45423476  0.28616594  1  0.051575  0.000936  0.088289  0.106922  0.001023  1.079969  0.0
H  H27  1  0.47197194  0.69040071  0.10710892  1  0.085615  -0.000385  0.102246  0.112448  -0.000557  1.012133  0.0
H  H28  1  0.56285823  0.48633361  0.20667191  1  0.061476  -0.000415  0.098789  0.100656  -0.000343  1.009691  0.0
H  H29  1  0.56752085  0.70392111  0.98297535  1  0.049886  -0.000535  0.103219  0.103555  -0.000139  0.997451  0.0
H  H30  1  0.65593859  0.49751484  0.08369465  1  0.081276  -0.000585  0.101521  0.101554  -0.000313  0.999925  0.0
H  H31  1  0.35254899  0.52791820  0.52219718  1  0.084035  -0.000137  0.109084  0.118011  -0.000358  0.998053  0.0
H  H32  1  0.39452719  0.33057563  0.36207131  1  0.028639  -0.00029  0.100877  0.100471  -0.000282  1.00808  0.0
H  H33  1  0.33841561  0.41611708  0.63697525  1  0.078555  -0.000115  0.104527  0.106059  0.000185  0.993404  0.0
H  H34  1  0.37995529  0.21941697  0.47448098  1  0.088966  -0.000636  0.10205  0.104024  -0.000601  1.035011  0.0
H  H35  1  0.99616405  0.45040114  0.71383280  1  0.049023  0.000939  0.088307  0.106914  0.001023  1.080051  0.0
H  H36  1  0.78156487  0.47196494  0.89289350  1  0.137528  -0.000249  0.102236  0.112488  -0.000557  1.012008  0.0
H  H37  1  0.07652162  0.56286010  0.79332809  1  0.057517  -0.000413  0.098795  0.100702  -0.000343  1.00958  0.0
H  H38  1  0.86359300  0.56751125  0.01702809  1  0.050493  -0.000534  0.103213  0.10355  -0.00014  0.997444  0.0
H  H39  1  0.15841946  0.65593543  0.91630756  1  0.080909  -0.000582  0.101506  0.101591  -0.000314  0.999946  0.0
H  H40  1  0.82461859  0.35253452  0.47780239  1  0.085093  -0.000137  0.109081  0.117982  -0.000358  0.998035  0.0
H  H41  1  0.06394367  0.39452180  0.63792535  1  0.03783  -0.00028  0.100845  0.100357  -0.000282  1.008012  0.0
H  H42  1  0.92228430  0.33839683  0.36302249  1  0.073996  -0.000125  0.104515  0.105986  0.000185  0.9935  0.0
H  H43  1  0.16053301  0.37994736  0.52551623  1  0.089759  -0.000637  0.10208  0.104079  -0.000601  1.034892  0.0
H  H44  1  0.45423766  0.00383719  0.71383218  1  0.053892  0.00093  0.088319  0.106921  0.001023  1.080025  0.0
H  H45  1  0.69040192  0.21843738  0.89289304  1  0.079885  -0.000372  0.102234  0.112515  -0.000557  1.012001  0.0
H  H46  1  0.48633733  0.92348096  0.79332825  1  0.059547  -0.000422  0.098809  0.100679  -0.000342  1.009629  0.0
H  H47  1  0.70392268  0.13640928  0.01702713  1  0.035623  -0.000557  0.103207  0.103551  -0.000139  0.997412  0.0
H  H48  1  0.49751750  0.84158165  0.91630723  1  0.083455  -0.000577  0.101508  0.101597  -0.000314  0.999911  0.0
H  H49  1  0.52791499  0.17538044  0.47780209  1  0.083697  -0.000116  0.109082  0.117981  -0.000358  0.998065  0.0
H  H50  1  0.33057803  0.93605557  0.63792619  1  0.024493  -0.000284  0.100834  0.100334  -0.000282  1.008028  0.0
H  H51  1  0.41611136  0.07771457  0.36302299  1  0.082641  -0.000113  0.104531  0.106004  0.000185  0.993533  0.0
H  H52  1  0.21941491  0.83946625  0.52551727  1  0.092861  -0.000634  0.102104  0.104154  -0.000601  1.034883  0.0
H  H53  1  0.54959842  0.54576165  0.71383198  1  0.044739  0.000962  0.088322  0.106919  0.001023  1.080031  0.0
H  H54  1  0.52803220  0.30959605  0.89289316  1  0.085476  -0.000385  0.102215  0.112475  -0.000557  1.012006  0.0
H  H55  1  0.43713857  0.51365733  0.79332660  1  0.061538  -0.000414  0.098805  0.100674  -0.000343  1.009609  0.0
H  H56  1  0.43248865  0.29607949  0.01702793  1  0.049654  -0.000535  0.103196  0.103523  -0.000139  0.997453  0.0
H  H57  1  0.34406572  0.50248438  0.91630684  1  0.08186  -0.000585  0.101493  0.101587  -0.000313  0.999909  0.0
H  H58  1  0.64746598  0.47208484  0.47780371  1  0.083851  -0.000137  0.109087  0.118008  -0.000358  0.998009  0.0
H  H59  1  0.60547788  0.66942283  0.63792541  1  0.028692  -0.000291  0.100863  0.100368  -0.000282  1.008024  0.0
H  H60  1  0.66160351  0.58388707  0.36302326  1  0.078711  -0.000115  0.104529  0.106013  0.000185  0.993506  0.0
H  H61  1  0.62005165  0.78058487  0.52551633  1  0.0891  -0.000636  0.102081  0.104078  -0.000601  1.034835  0.0
C  C62  1  0.12539237  0.61587677  0.37173205  1  0.718528  -0.099235  0.091938  0.327861  -0.10074  4.108678  -0.058
C  C63  1  0.08324928  0.57306744  0.29629428  1  -0.104755  0.02213  -0.163856  -0.438307  0.002866  4.099479  0.021
C  C64  1  0.13172723  0.54307989  0.23878464  1  0.705623  -0.103682  0.079447  0.313748  -0.106415  4.10687  -0.061
C  C65  1  0.07783513  0.48947948  0.16618872  1  0.018667  -0.044794  -0.018626  0.018393  -0.046173  3.972898  -0.021
C  C66  1  0.13601112  0.48650460  0.10135235  1  -0.047859  -0.032542  -0.097078  -0.125897  -0.033201  4.002225  -0.017
C  C67  1  0.97079371  0.43735046  0.15779644  1  -0.090038  -0.026471  -0.095485  -0.122351  -0.027656  3.999945  -0.013
C  C68  1  0.09063008  0.43390993  0.03240459  1  0.020342  -0.012069  -0.082938  -0.104511  -0.013244  3.995204  -0.003
C  C69  1  0.92410650  0.38416597  0.08911131  1  -0.040852  -0.016739  -0.088404  -0.119289  -0.018094  4.015568  -0.006
C  C70  1  0.98340854  0.38122553  0.02511998  1  0.020463  -0.06274  -0.018167  0.013058  -0.066547  4.132465  -0.04
C  C71  1  0.93820481  0.32973243  0.95403390  1  0.819366  -0.021632  0.201527  0.287176  -0.018561  4.013484  -0.004
C  C72  1  0.06277333  0.62468281  0.43478900  1  0.021447  -0.018748  -0.009159  0.026793  -0.020792  3.952649  -0.005
C  C73  1  0.10170723  0.64173512  0.51329610  1  -0.098856  -0.027903  -0.085993  -0.109951  -0.027798  3.977435  -0.016
C  C74  1  0.96732028  0.61676368  0.42204582  1  -0.015197  -0.029596  -0.088749  -0.117533  -0.030427  3.990663  -0.016
C  C75  1  0.04794614  0.64987770  0.57645012  1  0.009558  -0.002606  -0.079623  -0.111209  -0.004962  3.99404  0.002
C  C76  1  0.91283642  0.62560403  0.48455012  1  -0.003522  -0.008275  -0.077504  -0.095956  -0.009713  3.955528  -0.002
C  C77  1  0.95258678  0.64222014  0.56270229  1  0.097771  -0.051868  -0.007697  0.026548  -0.055264  4.105889  -0.033
C  C78  1  0.89783472  0.65102474  0.62681569  1  0.810964  -0.014976  0.214726  0.308898  -0.012964  3.964281  -0.002
C  C79  1  0.49048346  0.87460579  0.37173227  1  0.73453  -0.099268  0.09192  0.327828  -0.100736  4.108575  -0.057
C  C80  1  0.48981887  0.91674953  0.29629445  1  -0.114615  0.022076  -0.163838  -0.438287  0.002865  4.099431  0.021
C  C81  1  0.41135332  0.86827180  0.23878492  1  0.696361  -0.10392  0.07943  0.313695  -0.106419  4.106848  -0.061
C  C82  1  0.41164473  0.92216309  0.16618833  1  -0.047841  -0.044611  -0.018632  0.018414  -0.046169  3.972911  -0.021
C  C83  1  0.35049453  0.86398690  0.10135208  1  -0.005353  -0.032586  -0.097082  -0.125952  -0.0332  4.002312  -0.017
C  C84  1  0.46655677  0.02920522  0.15779578  1  -0.022361  -0.026476  -0.09544  -0.122302  -0.027658  3.999917  -0.013
C  C85  1  0.34328155  0.90936728  0.03240367  1  -0.003156  -0.011858  -0.082879  -0.104454  -0.013244  3.995071  -0.003
C  C86  1  0.46005954  0.07589083  0.08911000  1  -0.038037  -0.016793  -0.088407  -0.119326  -0.01809  4.015706  -0.006
C  C87  1  0.39781858  0.01658969  0.02511819  1  0.070093  -0.062714  -0.018237  0.012952  -0.066548  4.132418  -0.04
C  C88  1  0.39152832  0.06179335  0.95403146  1  0.806387  -0.021661  0.201588  0.287346  -0.018558  4.013452  -0.004
C  C89  1  0.56190920  0.93722571  0.43478969  1  -0.005362  -0.018645  -0.009164  0.02672  -0.020791  3.952672  -0.005
C  C90  1  0.54002633  0.89829185  0.51329685  1  -0.104279  -0.028049  -0.086002  -0.109922  -0.027796  3.977583  -0.016
C  C91  1  0.64944170  0.03267835  0.42204682  1  0.002057  -0.029665  -0.088713  -0.117418  -0.030422  3.990528  -0.016
C  C92  1  0.60192998  0.95205286  0.57645016  1  0.019168  -0.002515  -0.079635  -0.111212  -0.004961  3.993973  0.002
C  C93  1  0.71276740  0.08716329  0.48454982  1  0.019008  -0.008233  -0.077543  -0.096025  -0.009714  3.955561  -0.002
C  C94  1  0.68963195  0.04741365  0.56270205  1  0.096201  -0.05176  -0.007638  0.026614  -0.055261  4.105823  -0.033
C  C95  1  0.75318979  0.10216644  0.62681653  1  0.802156  -0.015075  0.214736  0.308884  -0.012964  3.964242  -0.002
C  C96  1  0.38412239  0.50951586  0.37173125  1  0.755171  -0.098995  0.091966  0.327958  -0.100733  4.108611  -0.057
C  C97  1  0.42693158  0.51018054  0.29629459  1  -0.133912  0.021947  -0.163851  -0.438327  0.002865  4.099369  0.021
C  C98  1  0.45691813  0.58864469  0.23878315  1  0.705595  -0.103706  0.079466  0.31373  -0.10642  4.106875  -0.061
C  C99  1  0.51051804  0.58835518  0.16618772  1  -0.056623  -0.044692  -0.018665  0.018337  -0.046172  3.973054  -0.021
C  C100  1  0.51349359  0.64950673  0.10135198  1  -0.001115  -0.032496  -0.097103  -0.125968  -0.033205  4.002374  -0.017
C  C101  1  0.56264722  0.53344327  0.15779499  1  -0.019546  -0.026474  -0.095455  -0.122239  -0.02766  3.999892  -0.013
C  C102  1  0.56608964  0.65672219  0.03240412  1  -0.01705  -0.011956  -0.082902  -0.104423  -0.013241  3.995111  -0.003
C  C103  1  0.61583341  0.53994226  0.08911035  1  -0.048642  -0.01678  -0.088362  -0.119404  -0.018092  4.015639  -0.006
C  C104  1  0.61877537  0.60218526  0.02511906  1  0.069289  -0.062812  -0.018181  0.013089  -0.066554  4.132299  -0.04
C  C105  1  0.67026896  0.60847427  0.95403169  1  0.807066  -0.021574  0.201635  0.287389  -0.018559  4.013422  -0.004
C  C106  1  0.37531709  0.43809062  0.43478937  1  0.010308  -0.018857  -0.009145  0.026842  -0.020791  3.952525  -0.005
C  C107  1  0.35826492  0.45997268  0.51329711  1  -0.091511  -0.027882  -0.086011  -0.110012  -0.027795  3.977518  -0.016
C  C108  1  0.38323512  0.35055673  0.42204639  1  -0.011304  -0.02958  -0.088751  -0.117563  -0.030422  3.990694  -0.016
C  C109  1  0.35012310  0.39806917  0.57645050  1  0.000801  -0.002631  -0.079618  -0.111202  -0.004961  3.994054  0.002
C  C110  1  0.37439505  0.28723179  0.48454947  1  0.006807  -0.008285  -0.077522  -0.096002  -0.009714  3.955539  -0.002
C  C111  1  0.35778032  0.31036715  0.56270109  1  0.096005  -0.051893  -0.007658  0.026609  -0.055257  4.10587  -0.033
C  C112  1  0.34897527  0.24680983  0.62681507  1  0.810389  -0.014953  0.21471  0.308866  -0.012964  3.964202  -0.002
C  C113  1  0.87460711  0.38412597  0.62826884  1  0.71843  -0.099226  0.091948  0.327981  -0.10072  4.108675  -0.057
C  C114  1  0.91675189  0.42693623  0.70370304  1  -0.104883  0.02212  -0.163864  -0.438279  0.00286  4.099699  0.021
C  C115  1  0.86827387  0.45691990  0.76121089  1  0.705673  -0.103663  0.079447  0.313735  -0.106394  4.106956  -0.061
C  C116  1  0.92215628  0.51051291  0.83381158  1  0.018804  -0.044801  -0.018587  0.018425  -0.04618  3.973057  -0.021
C  C117  1  0.86398170  0.51348768  0.89864974  1  -0.048022  -0.032528  -0.097181  -0.126129  -0.033191  4.002222  -0.017
C  C118  1  0.02919843  0.56264645  0.84220564  1  -0.089778  -0.026464  -0.09549  -0.122304  -0.027647  3.999993  -0.013
C  C119  1  0.90936257  0.56607990  0.96759988  1  0.020028  -0.01208  -0.082791  -0.104286  -0.013247  3.994966  -0.003
C  C120  1  0.07588688  0.61582839  0.91089256  1  -0.040773  -0.016749  -0.088335  -0.119453  -0.018106  4.015786  -0.006
C  C121  1  0.01658626  0.61876873  0.97488448  1  0.020312  -0.062727  -0.018171  0.013138  -0.066534  4.132634  -0.04
C  C122  1  0.06178386  0.67025874  0.04596639  1  0.819257  -0.021637  0.201471  0.287149  -0.018568  4.0133  -0.004
C  C123  1  0.93721722  0.37531175  0.56521070  1  0.021358  -0.018743  -0.009129  0.026579  -0.020797  3.952729  -0.005
C  C124  1  0.89828164  0.35825322  0.48670241  1  -0.098713  -0.027898  -0.086032  -0.109929  -0.027796  3.977477  -0.016
C  C125  1  0.03266877  0.38322711  0.57795090  1  -0.015731  -0.029591  -0.088736  -0.117265  -0.030418  3.990487  -0.016
C  C126  1  0.95204208  0.35010998  0.42354780  1  0.008964  -0.002609  -0.079633  -0.1112  -0.004961  3.993898  0.002
C  C127  1  0.08715509  0.37438694  0.51544899  1  -0.003158  -0.008278  -0.077519  -0.096144  -0.009717  3.955516  -0.002
C  C128  1  0.04740286  0.35776744  0.43729622  1  0.097614  -0.051869  -0.007676  0.026692  -0.055258  4.105794  -0.033
C  C129  1  0.10215274  0.34896369  0.37318282  1  0.810919  -0.014972  0.214773  0.309013  -0.012967  3.964227  -0.002
C  C130  1  0.50951905  0.12539391  0.62826981  1  0.734434  -0.099247  0.091985  0.327982  -0.100716  4.108748  -0.057
C  C131  1  0.51018375  0.08324875  0.70370287  1  -0.114306  0.02207  -0.16389  -0.43828  0.002861  4.099688  0.021
C  C132  1  0.58864608  0.13172706  0.76121002  1  0.696053  -0.103904  0.07952  0.313814  -0.106397  4.106986  -0.061
C  C133  1  0.58835774  0.07784719  0.83381137  1  -0.047819  -0.044616  -0.018628  0.018345  -0.046177  3.97299  -0.021
C  C134  1  0.64950747  0.13601988  0.89864941  1  -0.005458  -0.032584  -0.097191  -0.126141  -0.033194  4.002227  -0.017
C  C135  1  0.53344814  0.97080524  0.84220511  1  -0.022261  -0.026466  -0.09545  -0.12216  -0.027646  3.999745  -0.013
C  C136  1  0.65671876  0.09063857  0.96759961  1  -0.003036  -0.011855  -0.082779  -0.104278  -0.013243  3.995026  -0.003
C  C137  1  0.53994143  0.92411568  0.91089209  1  -0.037977  -0.016809  -0.088342  -0.119503  -0.018106  4.015686  -0.006
C  C138  1  0.60218353  0.98341568  0.97488389  1  0.070023  -0.062704  -0.018234  0.01303  -0.066534  4.132794  -0.04
C  C139  1  0.60847659  0.93821711  0.04596586  1  0.80628  -0.021665  0.20145  0.287156  -0.018566  4.013323  -0.004
C  C140  1  0.43809440  0.06278343  0.56521180  1  -0.00475  -0.018653  -0.009149  0.026595  -0.020796  3.952685  -0.005
C  C141  1  0.45997084  0.10171845  0.48670225  1  -0.104961  -0.028047  -0.086012  -0.109903  -0.027794  3.977474  -0.016
C  C142  1  0.35055765  0.96733110  0.57795169  1  0.003454  -0.029659  -0.0887  -0.11719  -0.030417  3.990424  -0.016
C  C143  1  0.39806653  0.04795678  0.42354775  1  0.019227  -0.002515  -0.079667  -0.111273  -0.004961  3.993956  0.002
C  C144  1  0.28723139  0.91284408  0.51544988  1  0.019559  -0.008239  -0.077565  -0.096298  -0.009718  3.955473  -0.002
C  C145  1  0.31036248  0.95259544  0.43729705  1  0.095619  -0.051754  -0.007671  0.026732  -0.055256  4.105702  -0.033
C  C146  1  0.24680935  0.89784584  0.37318376  1  0.801994  -0.015077  0.214836  0.30909  -0.012966  3.964085  -0.002
C  C147  1  0.61587635  0.49048234  0.62826964  1  0.755371  -0.098988  0.091939  0.327891  -0.100734  4.108819  -0.058
C  C148  1  0.57306378  0.48981579  0.70370273  1  -0.126998  0.021917  -0.163886  -0.438265  0.002863  4.09961  0.021
C  C149  1  0.54307929  0.41135220  0.76121119  1  0.705505  -0.103704  0.079447  0.313731  -0.106417  4.106865  -0.061
C  C150  1  0.48948817  0.41164213  0.83381198  1  -0.056955  -0.044671  -0.018602  0.018356  -0.046154  3.973081  -0.021
C  C151  1  0.48651111  0.35049210  0.89865070  1  -0.000158  -0.032492  -0.097133  -0.126059  -0.033203  4.002222  -0.017
C  C152  1  0.43735466  0.46655048  0.84220590  1  -0.019248  -0.026477  -0.095489  -0.122175  -0.027658  3.999825  -0.013
C  C153  1  0.43392153  0.34328465  0.96760153  1  -0.017394  -0.011944  -0.082767  -0.104258  -0.013226  3.995061  -0.003
C  C154  1  0.38417561  0.46006014  0.91089471  1  -0.049155  -0.016769  -0.088372  -0.119564  -0.018085  4.015877  -0.006
C  C155  1  0.38123684  0.39782185  0.97488659  1  0.068696  -0.0628  -0.018233  0.013016  -0.066538  4.132548  -0.04
C  C156  1  0.32974345  0.39153001  0.04597515  1  0.807915  -0.021558  0.201702  0.287397  -0.018545  4.013441  -0.004
C  C157  1  0.62469120  0.56190725  0.56521212  1  0.01155  -0.018868  -0.009179  0.026707  -0.020793  3.952586  -0.005
C  C158  1  0.64174901  0.54003007  0.48670319  1  -0.092131  -0.027888  -0.085958  -0.109912  -0.027799  3.977412  -0.016
C  C159  1  0.61677580  0.64944377  0.57795153  1  -0.011768  -0.029581  -0.088717  -0.117248  -0.030423  3.990367  -0.016
C  C160  1  0.64989225  0.60193348  0.42354801  1  0.000548  -0.002626  -0.079705  -0.11132  -0.00496  3.99405  0.002
C  C161  1  0.62561510  0.71276947  0.51544844  1  0.005833  -0.008285  -0.07757  -0.096212  -0.009714  3.955488  -0.002
C  C162  1  0.64223492  0.68963692  0.43729682  1  0.096689  -0.051897  -0.007686  0.026642  -0.055261  4.105789  -0.033
C  C163  1  0.65103744  0.75319019  0.37318106  1  0.810429  -0.014952  0.214859  0.309117  -0.012963  3.964209  -0.002
N  N164  1  0.85416614  0.66008634  0.68067657  1  -1.207451  -0.036616  -0.370818  -0.399796  -0.037259  3.279118  -0.027
N  N165  1  0.90280701  0.28770517  0.89395406  1  -1.236073  -0.047907  -0.373607  -0.410412  -0.048357  3.351853  -0.035
N  N166  1  0.80591875  0.14583434  0.68067732  1  -1.211349  -0.036602  -0.37082  -0.399784  -0.037256  3.279144  -0.027
N  N167  1  0.38489948  0.09719117  0.89395277  1  -1.225486  -0.047931  -0.373648  -0.410536  -0.048352  3.351883  -0.035
N  N168  1  0.33991266  0.19407819  0.68067593  1  -1.208002  -0.036611  -0.370825  -0.399802  -0.037257  3.279075  -0.027
N  N169  1  0.71229430  0.61510154  0.89395356  1  -1.22102  -0.047936  -0.373695  -0.410596  -0.048352  3.35199  -0.035
N  N170  1  0.14582360  0.33989982  0.31931896  1  -1.207186  -0.036625  -0.370861  -0.399958  -0.03727  3.278951  -0.027
N  N171  1  0.09718634  0.71229448  0.10605160  1  -1.23591  -0.047936  -0.373671  -0.410539  -0.048389  3.351404  -0.035
N  N172  1  0.19407465  0.85417447  0.31932000  1  -1.211207  -0.036615  -0.370919  -0.400026  -0.037271  3.278845  -0.027
N  N173  1  0.61510868  0.90281341  0.10604991  1  -1.225337  -0.047962  -0.373616  -0.410463  -0.048384  3.351433  -0.035
N  N174  1  0.66009836  0.80592090  0.31931901  1  -1.208063  -0.036616  -0.370882  -0.399952  -0.037262  3.27906  -0.027
N  N175  1  0.28771388  0.38489775  0.10604853  1  -1.221441  -0.047911  -0.373733  -0.41054  -0.048326  3.351942  -0.035
O  O176  1  0.21844633  0.64674525  0.39092029  1  -1.11735  0.030947  -0.310183  -0.482854  0.007487  2.372851  0.025
O  O177  1  0.22439659  0.56015450  0.24624883  1  -1.128527  0.020076  -0.324133  -0.517132  0.002994  2.437056  0.017
O  O178  1  0.42829968  0.78155226  0.39092067  1  -1.122352  0.031074  -0.310171  -0.482796  0.007488  2.372757  0.025
O  O179  1  0.33575796  0.77560265  0.24624928  1  -1.131066  0.020184  -0.324155  -0.517128  0.002995  2.437097  0.017
O  O180  1  0.35325393  0.57170036  0.39092079  1  -1.120388  0.031007  -0.310138  -0.48284  0.007488  2.372864  0.025
O  O181  1  0.43984202  0.66423866  0.24624683  1  -1.128946  0.020079  -0.324172  -0.517132  0.00299  2.437106  0.017
O  O182  1  0.78155533  0.35325662  0.60907703  1  -1.117357  0.030941  -0.310154  -0.482824  0.007481  2.372705  0.025
O  O183  1  0.77560600  0.43984907  0.75375146  1  -1.128539  0.020079  -0.324149  -0.517131  0.002996  2.437152  0.017
O  O184  1  0.57170228  0.21844536  0.60907664  1  -1.122284  0.031056  -0.310177  -0.48284  0.00748  2.372705  0.025
O  O185  1  0.66424192  0.22439442  0.75375161  1  -1.131173  0.020183  -0.324144  -0.517144  0.002994  2.437174  0.017
O  O186  1  0.64674537  0.42829992  0.60907713  1  -1.120416  0.031004  -0.310128  -0.482821  0.007484  2.372831  0.025
O  O187  1  0.56015098  0.33575608  0.75375048  1  -1.129  0.020089  -0.324124  -0.517095  0.002998  2.437069  0.017
