# generated using pymatgen
data_LaH24C26Cl3O11
_symmetry_space_group_name_H-M   'P 1'
_cell_length_a   8.78882712
_cell_length_b   10.05088781
_cell_length_c   17.91030000
_cell_angle_alpha   76.78498063
_cell_angle_beta   76.42543498
_cell_angle_gamma   70.51611433
_symmetry_Int_Tables_number   1
_chemical_formula_structural   LaH24C26Cl3O11
_chemical_formula_sum   'La2 H48 C52 Cl6 O22'
_cell_volume   1430.21263549
_cell_formula_units_Z   2
loop_
 _symmetry_equiv_pos_site_id
 _symmetry_equiv_pos_as_xyz
  1  'x, y, z'
loop_
 _atom_site_type_symbol
 _atom_site_label
 _atom_site_symmetry_multiplicity
 _atom_site_fract_x
 _atom_site_fract_y
 _atom_site_fract_z
 _atom_site_occupancy
 _atom_site_hle17_bader_spin_density
 _atom_site_hle17_ddec_charge
 _atom_site_hle17_ddec_spin_density
 _atom_site_hle17_ddec_sum_bond_order
 _atom_site_hle17_magmom
 _atom_site_hse06_10hf_bader_spin_density
 _atom_site_hse06_10hf_ddec_charge
 _atom_site_hse06_10hf_ddec_spin_density
 _atom_site_hse06_10hf_ddec_sum_bond_order
 _atom_site_hse06_10hf_magmom
 _atom_site_hse06_bader_spin_density
 _atom_site_hse06_ddec_charge
 _atom_site_hse06_ddec_spin_density
 _atom_site_hse06_ddec_sum_bond_order
 _atom_site_hse06_magmom
 _atom_site_pbe_bader_charge
 _atom_site_pbe_bader_spin_density
 _atom_site_pbe_cm5_charge
 _atom_site_pbe_ddec_charge
 _atom_site_pbe_ddec_spin_density
 _atom_site_pbe_ddec_sum_bond_order
 _atom_site_pbe_magmom
La  La0  1  0.74732838  0.49576004  0.50605478  1  0  2.039543  0  1.819882  0  0  1.907571  0  2.330207  0  0  2.012035  0  2.234693  0  2.239538  0  1.403398  1.829772  0  2.396288  0
La  La1  1  0.25266688  0.50424620  0.49394692  1  0  2.039492  0  1.82003  0  0  1.907513  0  2.330352  0  0  2.011977  0  2.234834  0  2.239484  0  1.403352  1.829688  0  2.396483  0
H  H2  1  0.98636437  0.11902452  0.51826296  1  0  0.103218  0  0.963843  0  0  0.106859  0  1.036097  0  0  0.109535  0  1.034121  0  0.109614  0  0.115617  0.105022  0  1.037443  0
H  H3  1  0.01363576  0.88097423  0.48173300  1  0  0.103223  0  0.963866  0  0  0.106888  0  1.036118  0  0  0.109571  0  1.034124  0  0.109768  0  0.115647  0.105052  0  1.03746  0
H  H4  1  0.13991349  0.07925018  0.43448683  1  0  0.11681  0  0.92437  0  0  0.125075  0  0.986314  0  0  0.127988  0  0.983629  0  0.11174  0  0.122179  0.122947  0  0.988363  0
H  H5  1  0.86008899  0.92074857  0.56550998  1  0  0.116856  0  0.924289  0  0  0.125097  0  0.986281  0  0  0.128009  0  0.983597  0  0.111804  0  0.122215  0.122972  0  0.988328  0
H  H6  1  0.96768708  0.14846397  0.62994982  1  0  0.127749  0  0.986002  0  0  0.134848  0  1.050268  0  0  0.139156  0  1.04739  0  0.122762  0  0.109783  0.131778  0  1.052405  0
H  H7  1  0.03231395  0.85153906  0.37004827  1  0  0.127739  0  0.986032  0  0  0.134883  0  1.050245  0  0  0.139193  0  1.047365  0  0.122798  0  0.109788  0.131811  0  1.052384  0
H  H8  1  0.95718833  0.13557639  0.76912163  1  0  0.111093  0  0.940229  0  0  0.120971  0  1.0006  0  0  0.123891  0  0.999348  0  0.077928  0  0.102744  0.118802  0  1.001615  0
H  H9  1  0.04281423  0.86442557  0.23087642  1  0  0.111102  0  0.940227  0  0  0.120996  0  1.000574  0  0  0.123921  0  0.999317  0  0.078188  0  0.102765  0.118827  0  1.001589  0
H  H10  1  0.42513470  0.81200437  0.75910908  1  0  0.088731  0  0.975314  0  0  0.098564  0  1.041773  0  0  0.100973  0  1.040451  0  0.051268  0  0.093727  0.096713  0  1.042975  0
H  H11  1  0.57486067  0.18799117  0.24088951  1  0  0.088715  0  0.97534  0  0  0.098563  0  1.041775  0  0  0.100971  0  1.040455  0  0.051224  0  0.093708  0.096715  0  1.042972  0
H  H12  1  0.44027568  0.82720714  0.61617487  1  0  0.127074  0  0.943781  0  0  0.134661  0  1.006389  0  0  0.139252  0  1.002894  0  0.111776  0  0.111022  0.131336  0  1.008998  0
H  H13  1  0.55972014  0.17279054  0.38382284  1  0  0.127082  0  0.943777  0  0  0.134689  0  1.006378  0  0  0.13928  0  1.002882  0  0.111796  0  0.111053  0.131365  0  1.008984  0
H  H14  1  0.40860583  0.16739200  0.65010802  1  0  0.101934  0  0.928217  0  0  0.108999  0  0.996114  0  0  0.110315  0  0.996109  0  0.095839  0  0.116934  0.107975  0  0.996395  0
H  H15  1  0.59139980  0.83260781  0.34988773  1  0  0.102035  0  0.928211  0  0  0.109045  0  0.996093  0  0  0.110361  0  0.996086  0  0.095972  0  0.116935  0.10802  0  0.996376  0
H  H16  1  0.50903548  0.08878909  0.56604053  1  0  0.133915  0  0.911397  0  0  0.139875  0  0.976434  0  0  0.143209  0  0.973283  0  0.141765  0  0.129756  0.137274  0  0.979199  0
H  H17  1  0.49097213  0.91121180  0.43395653  1  0  0.133884  0  0.911445  0  0  0.139815  0  0.976434  0  0  0.143146  0  0.97329  0  0.141576  0  0.129736  0.137215  0  0.979199  0
H  H18  1  0.49736624  0.23643354  0.73647485  1  0  0.098552  0  0.976514  0  0  0.109628  0  1.038228  0  0  0.112811  0  1.036575  0  0.065939  0  0.100627  0.107247  0  1.03968  0
H  H19  1  0.50263011  0.76356948  0.26352043  1  0  0.098558  0  0.976554  0  0  0.109659  0  1.038231  0  0  0.112843  0  1.036576  0  0.066033  0  0.10062  0.107281  0  1.039684  0
H  H20  1  0.53207678  0.22494641  0.87070108  1  0  0.098226  0  0.955626  0  0  0.107457  0  1.020172  0  0  0.110589  0  1.017734  0  0.074241  0  0.097463  0.105257  0  1.021874  0
H  H21  1  0.46790633  0.77505768  0.12929504  1  0  0.098236  0  0.955558  0  0  0.107485  0  1.020097  0  0  0.110612  0  1.017676  0  0.074219  0  0.097459  0.105277  0  1.021809  0
H  H22  1  0.84917281  0.79220761  0.87245827  1  0  0.103226  0  0.951157  0  0  0.112744  0  1.013848  0  0  0.115616  0  1.012269  0  0.116228  0  0.0995  0.110659  0  1.015097  0
H  H23  1  0.15082253  0.20780184  0.12754133  1  0  0.103283  0  0.951142  0  0  0.11276  0  1.013884  0  0  0.115631  0  1.012307  0  0.116132  0  0.099546  0.110679  0  1.015119  0
H  H24  1  0.81163642  0.80303891  0.73742726  1  0  0.099528  0  0.959314  0  0  0.111459  0  1.01906  0  0  0.114891  0  1.01723  0  0.04568  0  0.102047  0.109048  0  1.020452  0
H  H25  1  0.18836667  0.19696840  0.26257060  1  0  0.099445  0  0.959284  0  0  0.11141  0  1.019013  0  0  0.114845  0  1.01718  0  0.045762  0  0.10202  0.108999  0  1.020404  0
H  H26  1  0.63589566  0.63997344  0.75946643  1  0  0.082144  0  0.932238  0  0  0.095783  0  0.994104  0  0  0.097178  0  0.992392  0  0.080411  0  0.111572  0.094868  0  0.995222  0
H  H27  1  0.36410250  0.36002424  0.24053659  1  0  0.082117  0  0.932208  0  0  0.095802  0  0.994028  0  0  0.097202  0  0.992322  0  0.080532  0  0.111557  0.094881  0  0.995156  0
H  H28  1  0.52314628  0.51301267  0.79149883  1  0  0.08073  0  0.949137  0  0  0.085701  0  1.024373  0  0  0.087629  0  1.022369  0  0.078317  0  0.100535  0.084449  0  1.025587  0
H  H29  1  0.47685765  0.48698180  0.20850617  1  0  0.080708  0  0.949091  0  0  0.085667  0  1.024348  0  0  0.087597  0  1.022347  0  0.078318  0  0.100502  0.08441  0  1.025564  0
H  H30  1  0.56546799  0.64886294  0.88152720  1  0  0.107031  0  0.961327  0  0  0.116301  0  1.023953  0  0  0.119436  0  1.022824  0  0.09473  0  0.103065  0.113997  0  1.025109  0
H  H31  1  0.43454070  0.35113474  0.11847684  1  0  0.10704  0  0.961279  0  0  0.116329  0  1.023899  0  0  0.119468  0  1.022761  0  0.094559  0  0.103059  0.114025  0  1.025055  0
H  H32  1  0.58157269  0.66451719  0.01389294  1  0  0.106865  0  0.944197  0  0  0.116004  0  1.006268  0  0  0.119344  0  1.004053  0  0.093164  0  0.102059  0.113887  0  1.007224  0
H  H33  1  0.41843826  0.33547728  0.98611070  1  0  0.106897  0  0.944243  0  0  0.116063  0  1.006272  0  0  0.119402  0  1.004058  0  0.093208  0  0.102103  0.113929  0  1.007248  0
H  H34  1  0.97869178  0.27026799  0.02324814  1  0  0.102745  0  0.963454  0  0  0.108321  0  1.033495  0  0  0.111665  0  1.030997  0  0.105674  0  0.095004  0.105936  0  1.035281  0
H  H35  1  0.02131270  0.72971791  0.97675511  1  0  0.10274  0  0.963546  0  0  0.108311  0  1.033587  0  0  0.111647  0  1.031111  0  0.105671  0  0.094985  0.105928  0  1.035367  0
H  H36  1  0.96567618  0.25519040  0.88859839  1  0  0.111812  0  0.954513  0  0  0.118246  0  1.022354  0  0  0.122227  0  1.019545  0  0.12471  0  0.100836  0.115433  0  1.024274  0
H  H37  1  0.03432262  0.74480193  0.11140524  1  0  0.111895  0  0.954429  0  0  0.118262  0  1.022336  0  0  0.122244  0  1.019525  0  0.124613  0  0.100829  0.115459  0  1.024247  0
H  H38  1  0.83940720  0.33343170  0.28077312  1  0  0.060951  0  0.936387  0  0  0.073703  0  1.003757  0  0  0.073481  0  1.004496  0  0.07531  0  0.099438  0.073923  0  1.003334  0
H  H39  1  0.16059294  0.66656705  0.71922898  1  0  0.060962  0  0.936475  0  0  0.073707  0  1.003844  0  0  0.073485  0  1.004587  0  0.075234  0  0.099469  0.073928  0  1.003423  0
H  H40  1  0.98474764  0.32482785  0.33810361  1  0  0.061151  0  0.922614  0  0  0.079495  0  0.979598  0  0  0.079338  0  0.979786  0  0.029498  0  0.108835  0.079406  0  0.979831  0
H  H41  1  0.01525294  0.67517303  0.66189873  1  0  0.061117  0  0.922622  0  0  0.079466  0  0.979612  0  0  0.07931  0  0.979799  0  0.029504  0  0.108832  0.079378  0  0.979844  0
H  H42  1  0.92857791  0.56014232  0.24650760  1  0  0.065755  0  0.936661  0  0  0.077931  0  1.003575  0  0  0.078546  0  1.002699  0  0.078834  0  0.102726  0.077488  0  1.004016  0
H  H43  1  0.07142222  0.43985643  0.75349562  1  0  0.065817  0  0.936633  0  0  0.077991  0  1.003525  0  0  0.078609  0  1.002648  0  0.078758  0  0.102759  0.07755  0  1.003966  0
H  H44  1  0.71585043  0.59588862  0.28764855  1  0  0.053761  0  0.934484  0  0  0.069231  0  0.998916  0  0  0.069417  0  0.998154  0  0.065005  0  0.101007  0.069008  0  0.999596  0
H  H45  1  0.28414781  0.40411227  0.71235293  1  0  0.05378  0  0.934471  0  0  0.069238  0  0.998895  0  0  0.069423  0  0.998132  0  0.065005  0  0.101008  0.069015  0  0.999574  0
H  H46  1  0.98106726  0.58887031  0.35408733  1  0  0.395993  0  0.899384  0  0  0.371048  0  0.970944  0  0  0.382074  0  0.956445  0  0.670306  0  0.310935  0.363204  0  0.979362  0
H  H47  1  0.01892783  0.41112951  0.64591633  1  0  0.395948  0  0.899463  0  0  0.370996  0  0.971025  0  0  0.382021  0  0.956523  0  0.670281  0  0.310899  0.363164  0  0.979435  0
H  H48  1  0.64002437  0.38290756  0.38338908  1  0  0.396065  0  0.883115  0  0  0.37295  0  0.953409  0  0  0.382865  0  0.942791  0  0.653678  0  0.318248  0.365926  0  0.960786  0
H  H49  1  0.35998235  0.61708904  0.61661533  1  0  0.396069  0  0.883241  0  0  0.372926  0  0.953589  0  0  0.382848  0  0.942954  0  0.653604  0  0.318242  0.365902  0  0.960956  0
C  C50  1  0.15762975  0.24179142  0.48749623  1  0  0.689707  0  3.83936  0  0  0.643909  0  4.141661  0  0  0.678016  0  4.136561  0  1.56828  0  0.217829  0.62051  0  4.144049  0
C  C51  1  0.84236001  0.75821374  0.51250233  1  0  0.689646  0  3.8397  0  0  0.643849  0  4.142006  0  0  0.677954  0  4.136908  0  1.568259  0  0.217793  0.620452  0  4.144394  0
C  C52  1  0.11649560  0.10399721  0.49359673  1  0  -0.093121  0  3.625349  0  0  -0.146683  0  3.882054  0  0  -0.144205  0  3.881331  0  0.404773  0  -0.065009  -0.148536  0  3.882575  0
C  C53  1  0.88350381  0.89600368  0.50640071  1  0  -0.093037  0  3.625232  0  0  -0.146662  0  3.881977  0  0  -0.144179  0  3.881247  0  0.404519  0  -0.065007  -0.148518  0  3.882497  0
C  C54  1  0.20483321  0.98622532  0.61399696  1  0  0.260382  0  3.792245  0  0  0.251706  0  4.052315  0  0  0.262049  0  4.068113  0  0.428368  0  0.079321  0.24452  0  4.042135  0
C  C55  1  0.79516628  0.01377878  0.38600174  1  0  0.26036  0  3.792237  0  0  0.251678  0  4.052299  0  0  0.26202  0  4.0681  0  0.428594  0  0.079259  0.244491  0  4.04212  0
C  C56  1  0.07004818  0.07468935  0.65657801  1  0  -0.187351  0  3.731362  0  0  -0.2077  0  3.983535  0  0  -0.212521  0  4.002197  0  -0.006418  0  -0.108719  -0.204834  0  3.971936  0
C  C57  1  0.92995446  0.92531582  0.34341962  1  0  -0.187379  0  3.731285  0  0  -0.207759  0  3.983427  0  0  -0.212583  0  4.002092  0  -0.00638  0  -0.108721  -0.204893  0  3.971831  0
C  C58  1  0.06272159  0.06699168  0.73612891  1  0  -0.101002  0  3.77018  0  0  -0.12125  0  4.019017  0  0  -0.121906  0  4.039611  0  -0.01496  0  -0.098514  -0.120858  0  4.005298  0
C  C59  1  0.93727557  0.93301242  0.26386782  1  0  -0.100968  0  3.770389  0  0  -0.121224  0  4.019212  0  0  -0.12189  0  4.039804  0  -0.015351  0  -0.098546  -0.120831  0  4.005493  0
C  C60  1  0.18964556  0.97099794  0.77256758  1  0  0.099802  0  3.844033  0  0  0.110704  0  4.11025  0  0  0.111397  0  4.133906  0  0.031634  0  -0.007147  0.110086  0  4.094365  0
C  C61  1  0.81035539  0.02900188  0.22743038  1  0  0.099772  0  3.844309  0  0  0.110661  0  4.110536  0  0  0.111366  0  4.134176  0  0.031939  0  -0.007121  0.110042  0  4.094652  0
C  C62  1  0.32504567  0.88340603  0.73003406  1  0  -0.123347  0  3.806079  0  0  -0.14611  0  4.061626  0  0  -0.147176  0  4.082437  0  0.010752  0  -0.105364  -0.145515  0  4.047492  0
C  C63  1  0.67495060  0.11659379  0.26996388  1  0  -0.123401  0  3.806146  0  0  -0.146178  0  4.061709  0  0  -0.147246  0  4.082517  0  0.01054  0  -0.105415  -0.145584  0  4.047574  0
C  C64  1  0.33326786  0.89119999  0.65073951  1  0  -0.15875  0  3.733651  0  0  -0.181411  0  3.994379  0  0  -0.184118  0  4.009684  0  -0.021506  0  -0.100636  -0.17957  0  3.984148  0
C  C65  1  0.66673507  0.10880090  0.34925753  1  0  -0.158698  0  3.733659  0  0  -0.181398  0  3.994405  0  0  -0.184105  0  4.009711  0  -0.021466  0  -0.100608  -0.179556  0  3.984173  0
C  C66  1  0.60066724  0.25136029  0.57769250  1  0  0.698084  0  3.829203  0  0  0.647639  0  4.136275  0  0  0.68291  0  4.128961  0  1.564393  0  0.220522  0.623254  0  4.14057  0
C  C67  1  0.39934036  0.74864060  0.42230735  1  0  0.697982  0  3.829532  0  0  0.647602  0  4.136414  0  0  0.682871  0  4.129111  0  1.564341  0  0.220473  0.623228  0  4.140685  0
C  C68  1  0.52929635  0.12863618  0.61394307  1  0  -0.088941  0  3.628035  0  0  -0.144235  0  3.886609  0  0  -0.141979  0  3.887428  0  0.428173  0  -0.059676  -0.145891  0  3.886501  0
C  C69  1  0.47070847  0.87136257  0.38605403  1  0  -0.089191  0  3.628413  0  0  -0.144222  0  3.88669  0  0  -0.141957  0  3.887497  0  0.428201  0  -0.059711  -0.145885  0  3.886581  0
C  C70  1  0.65056876  0.01852042  0.72857028  1  0  0.274626  0  3.801181  0  0  0.261814  0  4.06573  0  0  0.27352  0  4.081515  0  0.450433  0  0.082244  0.253933  0  4.054767  0
C  C71  1  0.34942993  0.98148261  0.27142753  1  0  0.274423  0  3.801561  0  0  0.261806  0  4.065928  0  0  0.273514  0  4.081715  0  0.450369  0  0.082227  0.253921  0  4.054968  0
C  C72  1  0.57334394  0.13814834  0.76570665  1  0  -0.17853  0  3.74795  0  0  -0.197607  0  3.998961  0  0  -0.202968  0  4.018679  0  0.004637  0  -0.107667  -0.193932  0  3.98587  0
C  C73  1  0.42665124  0.86185469  0.23429045  1  0  -0.178603  0  3.74818  0  0  -0.197762  0  3.999163  0  0  -0.203123  0  4.018882  0  0.004527  0  -0.10773  -0.19409  0  3.986073  0
C  C74  1  0.59358905  0.13230153  0.84156199  1  0  -0.104175  0  3.780249  0  0  -0.127738  0  4.032969  0  0  -0.127367  0  4.052269  0  -0.006509  0  -0.098617  -0.128304  0  4.02048  0
C  C75  1  0.40640000  0.86770577  0.15843582  1  0  -0.104056  0  3.780327  0  0  -0.127658  0  4.032978  0  0  -0.127295  0  4.052272  0  -0.006654  0  -0.098555  -0.128218  0  4.020482  0
C  C76  1  0.69176016  0.00800151  0.87991439  1  0  0.11131  0  3.824028  0  0  0.121197  0  4.092406  0  0  0.121893  0  4.115275  0  0.042341  0  -0.002154  0.120493  0  4.077059  0
C  C77  1  0.30822888  0.99200579  0.12008287  1  0  0.111116  0  3.824497  0  0  0.121105  0  4.092727  0  0  0.121816  0  4.115571  0  0.042521  0  -0.00218  0.120404  0  4.077377  0
C  C78  1  0.77131192  0.88883024  0.84274936  1  0  -0.110924  0  3.788752  0  0  -0.131932  0  4.038639  0  0  -0.13252  0  4.059995  0  -0.035689  0  -0.098088  -0.131688  0  4.024663  0
C  C79  1  0.22868136  0.11117493  0.15724823  1  0  -0.110816  0  3.788916  0  0  -0.131844  0  4.038782  0  0  -0.132437  0  4.060136  0  -0.035487  0  -0.098133  -0.131599  0  4.02481  0
C  C80  1  0.74997550  0.89452620  0.76751533  1  0  -0.171241  0  3.7594  0  0  -0.193417  0  4.018736  0  0  -0.198797  0  4.038265  0  0.00222  0  -0.105186  -0.189989  0  4.005942  0
C  C81  1  0.25002157  0.10547469  0.23248294  1  0  -0.171165  0  3.759442  0  0  -0.193395  0  4.018689  0  0  -0.198776  0  4.03822  0  0.001959  0  -0.105144  -0.189966  0  4.005894  0
C  C82  1  0.67676349  0.50345129  0.67826694  1  0  0.687267  0  3.846035  0  0  0.638887  0  4.146757  0  0  0.671372  0  4.142306  0  1.585891  0  0.21535  0.616776  0  4.148873  0
C  C83  1  0.32323205  0.49655067  0.32173584  1  0  0.687247  0  3.84601  0  0  0.638941  0  4.146613  0  0  0.671431  0  4.142162  0  1.585936  0  0.215356  0.616831  0  4.148721  0
C  C84  1  0.64307508  0.52706640  0.76195750  1  0  -0.058662  0  3.642504  0  0  -0.115044  0  3.903302  0  0  -0.110902  0  3.902729  0  0.429377  0  -0.062067  -0.117919  0  3.903368  0
C  C85  1  0.35692579  0.47293021  0.23804590  1  0  -0.05864  0  3.64245  0  0  -0.115087  0  3.90321  0  0  -0.110969  0  3.90266  0  0.429216  0  -0.062094  -0.117956  0  3.903278  0
C  C86  1  0.76660745  0.45078081  0.87583860  1  0  0.252256  0  3.809161  0  0  0.243454  0  4.070023  0  0  0.253613  0  4.087184  0  0.473413  0  0.075292  0.236339  0  4.058327  0
C  C87  1  0.23339890  0.54921687  0.12416404  1  0  0.252337  0  3.809015  0  0  0.243494  0  4.069865  0  0  0.253647  0  4.087027  0  0.472874  0  0.075342  0.236378  0  4.058172  0
C  C88  1  0.65778277  0.56568421  0.91106995  1  0  -0.187883  0  3.769147  0  0  -0.205995  0  4.020546  0  0  -0.21223  0  4.042879  0  -0.058885  0  -0.109797  -0.201936  0  4.005817  0
C  C89  1  0.34222782  0.43431132  0.08893303  1  0  -0.187917  0  3.769225  0  0  -0.206056  0  4.020661  0  0  -0.212289  0  4.042992  0  -0.058685  0  -0.109791  -0.201996  0  4.005928  0
C  C90  1  0.66589827  0.57471922  0.98672303  1  0  -0.105179  0  3.775404  0  0  -0.12696  0  4.02542  0  0  -0.127609  0  4.046232  0  0.045302  0  -0.096688  -0.126045  0  4.010592  0
C  C91  1  0.33411305  0.42527418  0.01327958  1  0  -0.10514  0  3.775546  0  0  -0.126963  0  4.025567  0  0  -0.127612  0  4.046381  0  0.044941  0  -0.096747  -0.126033  0  4.01074  0
C  C92  1  0.78065861  0.46850632  0.02653719  1  0  0.114116  0  3.805786  0  0  0.12529  0  4.072234  0  0  0.126162  0  4.095305  0  -0.0595  0  -0.001273  0.124349  0  4.056735  0
C  C93  1  0.21935117  0.53148815  0.97346658  1  0  0.114005  0  3.806049  0  0  0.125204  0  4.072474  0  0  0.126076  0  4.095544  0  -0.059193  0  -0.001288  0.124265  0  4.056969  0
C  C94  1  0.88948494  0.35329052  0.99174271  1  0  -0.111334  0  3.79159  0  0  -0.135733  0  4.046218  0  0  -0.136144  0  4.066562  0  0.059649  0  -0.099271  -0.135184  0  4.03248  0
C  C95  1  0.11052206  0.64670181  0.00825887  1  0  -0.111284  0  3.791837  0  0  -0.135684  0  4.046437  0  0  -0.136096  0  4.066777  0  0.060085  0  -0.099235  -0.135135  0  4.032702  0
C  C96  1  0.88235542  0.34478296  0.91637237  1  0  -0.161958  0  3.75699  0  0  -0.185725  0  4.017165  0  0  -0.190048  0  4.035521  0  -0.086674  0  -0.103804  -0.182868  0  4.004464  0
C  C97  1  0.11764741  0.65521472  0.08362955  1  0  -0.161977  0  3.756866  0  0  -0.185681  0  4.017032  0  0  -0.190003  0  4.035388  0  -0.086762  0  -0.103775  -0.182835  0  4.004328  0
C  C98  1  0.86073095  0.38156489  0.32534676  1  0  0.093303  0  3.645901  0  0  0.032539  0  3.922819  0  0  0.039638  0  3.929592  0  0.425977  0  -0.078052  0.02745  0  3.91838  0
C  C99  1  0.13926882  0.61843493  0.67465691  1  0  0.093419  0  3.645928  0  0  0.032618  0  3.922841  0  0  0.039717  0  3.929613  0  0.425833  0  -0.078074  0.027527  0  3.918403  0
C  C100  1  0.84073309  0.54015084  0.29957781  1  0  0.093614  0  3.653103  0  0  0.032675  0  3.933673  0  0  0.04031  0  3.938868  0  0.386277  0  -0.080387  0.027617  0  3.929515  0
C  C101  1  0.15926434  0.45984898  0.70042447  1  0  0.093424  0  3.653423  0  0  0.032531  0  3.93394  0  0  0.040167  0  3.939137  0  0.386363  0  -0.080451  0.027477  0  3.929777  0
Cl  Cl102  1  0.18036570  0.95865171  0.87177645  1  0  -0.11876  0  1.378593  0  0  -0.098513  0  1.61111  0  0  -0.102764  0  1.607087  0  -0.249345  0  -0.018562  -0.095546  0  1.614109  0
Cl  Cl103  1  0.81963779  0.04134062  0.12822162  1  0  -0.118759  0  1.378668  0  0  -0.098504  0  1.611185  0  0  -0.10276  0  1.607157  0  -0.249458  0  -0.018578  -0.095535  0  1.614182  0
Cl  Cl104  1  0.71498508  0.00032417  0.97444274  1  0  -0.119079  0  1.381925  0  0  -0.103584  0  1.616508  0  0  -0.10771  0  1.612547  0  -0.229726  0  -0.02143  -0.100337  0  1.618407  0
Cl  Cl105  1  0.28499460  0.99968314  0.02555894  1  0  -0.119034  0  1.382085  0  0  -0.103576  0  1.616636  0  0  -0.107707  0  1.612668  0  -0.229539  0  -0.021437  -0.100329  0  1.618534  0
Cl  Cl106  1  0.78796784  0.47739903  0.12159532  1  0  -0.121233  0  1.334803  0  0  -0.098868  0  1.561862  0  0  -0.102871  0  1.55785  0  -0.259315  0  -0.00397  -0.096009  0  1.564749  0
Cl  Cl107  1  0.21204024  0.52259009  0.87840822  1  0  -0.121225  0  1.334843  0  0  -0.098869  0  1.561889  0  0  -0.102871  0  1.557876  0  -0.259492  0  -0.003968  -0.096011  0  1.564777  0
O  O108  1  0.50788477  0.36503228  0.54232967  1  0  -0.748143  0  2.073094  0  0  -0.695282  0  2.344545  0  0  -0.734814  0  2.338661  0  -1.228545  0  -0.427453  -0.666514  0  2.34724  0
O  O109  1  0.49211202  0.63497289  0.45767143  1  0  -0.748059  0  2.073268  0  0  -0.695268  0  2.344744  0  0  -0.734797  0  2.338864  0  -1.228516  0  -0.427438  -0.666506  0  2.347432  0
O  O110  1  0.03956093  0.35975143  0.48493067  1  0  -0.749868  0  2.062817  0  0  -0.697883  0  2.332691  0  0  -0.737055  0  2.327438  0  -1.230703  0  -0.418447  -0.669329  0  2.334679  0
O  O111  1  0.96043388  0.64025267  0.51506689  1  0  -0.749863  0  2.062873  0  0  -0.697894  0  2.332794  0  0  -0.737071  0  2.327542  0  -1.230548  0  -0.418467  -0.669337  0  2.334782  0
O  O112  1  0.82237087  0.45147729  0.64442813  1  0  -0.650089  0  2.050028  0  0  -0.596949  0  2.288467  0  0  -0.627128  0  2.281829  0  -1.196444  0  -0.337936  -0.575537  0  2.291928  0
O  O113  1  0.17762737  0.54852359  0.35557614  1  0  -0.650021  0  2.049929  0  0  -0.596921  0  2.288329  0  0  -0.627102  0  2.28169  0  -1.196533  0  -0.337898  -0.575502  0  2.291787  0
O  O114  1  0.74498671  0.24289552  0.58093436  1  0  -0.625009  0  2.013923  0  0  -0.579924  0  2.260458  0  0  -0.609895  0  2.253589  0  -1.183942  0  -0.337623  -0.55867  0  2.264471  0
O  O115  1  0.25500910  0.75710216  0.41906335  1  0  -0.62496  0  2.013836  0  0  -0.579968  0  2.260375  0  0  -0.609944  0  2.25351  0  -1.183844  0  -0.337605  -0.558707  0  2.264374  0
O  O116  1  0.55583764  0.54364822  0.64234064  1  0  -0.677461  0  1.998402  0  0  -0.627889  0  2.241721  0  0  -0.658681  0  2.23608  0  -1.209389  0  -0.344898  -0.605939  0  2.244606  0
O  O117  1  0.44416258  0.45635373  0.35766048  1  0  -0.677472  0  1.998393  0  0  -0.627921  0  2.241628  0  0  -0.658701  0  2.235964  0  -1.209403  0  -0.344909  -0.605979  0  2.244533  0
O  O118  1  0.74968699  0.36057736  0.39706683  1  0  -0.590763  0  2.118056  0  0  -0.536758  0  2.360657  0  0  -0.559967  0  2.351793  0  -1.157585  0  -0.43494  -0.5199  0  2.366091  0
O  O119  1  0.25031657  0.63941818  0.60293752  1  0  -0.590866  0  2.118189  0  0  -0.536801  0  2.360751  0  0  -0.56001  0  2.351876  0  -1.157443  0  -0.434971  -0.519938  0  2.366191  0
O  O120  1  0.22190701  0.98515866  0.53572750  1  0  -0.252746  0  2.324682  0  0  -0.188145  0  2.560216  0  0  -0.203985  0  2.562116  0  -1.076221  0  -0.177537  -0.176821  0  2.558593  0
O  O121  1  0.77809195  0.01484008  0.46427083  1  0  -0.252779  0  2.324716  0  0  -0.188118  0  2.560199  0  0  -0.203958  0  2.5621  0  -1.076357  0  -0.177498  -0.17679  0  2.558576  0
O  O122  1  0.77144279  0.43282956  0.80126039  1  0  -0.261584  0  2.338595  0  0  -0.194533  0  2.572192  0  0  -0.21063  0  2.573945  0  -1.079685  0  -0.181872  -0.182872  0  2.570472  0
O  O123  1  0.22855933  0.56717026  0.19874357  1  0  -0.261746  0  2.338595  0  0  -0.19461  0  2.572151  0  0  -0.210691  0  2.573903  0  -1.079156  0  -0.181901  -0.182947  0  2.57043  0
O  O124  1  0.86162967  0.59862961  0.36147390  1  0  -0.607344  0  2.099884  0  0  -0.553594  0  2.345561  0  0  -0.577517  0  2.334083  0  -1.189686  0  -0.436067  -0.53578  0  2.35109  0
O  O125  1  0.13836659  0.40137021  0.63853130  1  0  -0.60725  0  2.100142  0  0  -0.553507  0  2.345824  0  0  -0.577432  0  2.334345  0  -1.189514  0  -0.435996  -0.535705  0  2.351331  0
O  O126  1  0.30299654  0.24057713  0.48380969  1  0  -0.624665  0  1.952649  0  0  -0.581619  0  2.193177  0  0  -0.611522  0  2.186537  0  -1.180046  0  -0.344201  -0.560364  0  2.197142  0
O  O127  1  0.69700069  0.75943018  0.51618885  1  0  -0.624613  0  1.952878  0  0  -0.581587  0  2.193439  0  0  -0.611487  0  2.186801  0  -1.180158  0  -0.34419  -0.560336  0  2.197403  0
O  O128  1  0.63672910  0.01061305  0.65523804  1  0  -0.259904  0  2.36973  0  0  -0.192095  0  2.60421  0  0  -0.209258  0  2.607444  0  -1.095161  0  -0.176521  -0.179933  0  2.601661  0
O  O129  1  0.36328057  0.98939212  0.34475599  1  0  -0.259571  0  2.369876  0  0  -0.191995  0  2.60431  0  0  -0.209161  0  2.607547  0  -1.09503  0  -0.176394  -0.179829  0  2.601758  0
