# generated using pymatgen
data_ZnH18C14N2O5
_symmetry_space_group_name_H-M   'P 1'
_cell_length_a   7.13261697
_cell_length_b   10.04219154
_cell_length_c   10.84881308
_cell_angle_alpha   112.72163528
_cell_angle_beta   102.85088684
_cell_angle_gamma   103.40260845
_symmetry_Int_Tables_number   1
_chemical_formula_structural   ZnH18C14N2O5
_chemical_formula_sum   'Zn2 H36 C28 N4 O10'
_cell_volume   653.74830224
_cell_formula_units_Z   2
loop_
 _symmetry_equiv_pos_site_id
 _symmetry_equiv_pos_as_xyz
  1  'x, y, z'
loop_
 _atom_site_type_symbol
 _atom_site_label
 _atom_site_symmetry_multiplicity
 _atom_site_fract_x
 _atom_site_fract_y
 _atom_site_fract_z
 _atom_site_occupancy
 _atom_site_hle17_bader_spin_density
 _atom_site_hle17_ddec_charge
 _atom_site_hle17_ddec_spin_density
 _atom_site_hle17_ddec_sum_bond_order
 _atom_site_hle17_magmom
 _atom_site_hse06_10hf_bader_spin_density
 _atom_site_hse06_10hf_ddec_charge
 _atom_site_hse06_10hf_ddec_spin_density
 _atom_site_hse06_10hf_ddec_sum_bond_order
 _atom_site_hse06_10hf_magmom
 _atom_site_hse06_bader_spin_density
 _atom_site_hse06_ddec_charge
 _atom_site_hse06_ddec_spin_density
 _atom_site_hse06_ddec_sum_bond_order
 _atom_site_hse06_magmom
 _atom_site_pbe_bader_spin_density
 _atom_site_pbe_cm5_charge
 _atom_site_pbe_ddec_charge
 _atom_site_pbe_ddec_spin_density
 _atom_site_pbe_ddec_sum_bond_order
 _atom_site_pbe_magmom
Zn  Zn0  1  0.39588599  0.64618755  0.29232580  1  0  1.085404  0  1.656367  0  0  0.896192  0  2.086909  0  0  0.947565  0  2.03272  0  0  0.689866  0.859915  0  2.124187  0
Zn  Zn1  1  0.60411450  0.35381258  0.70767408  1  0  1.085402  0  1.656378  0  0  0.896174  0  2.086923  0  0  0.947553  0  2.03273  0  0  0.689865  0.859894  0  2.124186  0
H  H2  1  0.56979655  0.71380524  0.57169212  1  0  0.435728  0  0.870245  0  0  0.401697  0  0.939455  0  0  0.413228  0  0.92264  0  0  0.291029  0.393448  0  0.951488  0
H  H3  1  0.50198079  0.85834214  0.57152914  1  0  0.437164  0  0.868013  0  0  0.403077  0  0.937395  0  0  0.414613  0  0.920561  0  0  0.292353  0.394883  0  0.949345  0
H  H4  1  0.43020538  0.28619489  0.42830796  1  0  0.435796  0  0.870171  0  0  0.401772  0  0.939369  0  0  0.413303  0  0.922554  0  0  0.291058  0.393526  0  0.951398  0
H  H5  1  0.49801970  0.14165799  0.42847074  1  0  0.437176  0  0.867995  0  0  0.403091  0  0.93737  0  0  0.414628  0  0.920536  0  0  0.292351  0.394897  0  0.94932  0
H  H6  1  0.09096848  0.08600477  0.26026670  1  0  0.09036  0  0.958362  0  0  0.100785  0  1.021437  0  0  0.104418  0  1.019012  0  0  0.10135  0.098133  0  1.023258  0
H  H7  1  0.66986019  0.17403754  0.26027106  1  0  0.08949  0  0.958685  0  0  0.099905  0  1.021958  0  0  0.103544  0  1.019469  0  0  0.100332  0.097273  0  1.02381  0
H  H8  1  0.90902519  0.91399307  0.73973506  1  0  0.090359  0  0.958446  0  0  0.100797  0  1.021502  0  0  0.104432  0  1.019072  0  0  0.101361  0.098146  0  1.023325  0
H  H9  1  0.33014227  0.82596374  0.73972859  1  0  0.089483  0  0.95869  0  0  0.099913  0  1.02195  0  0  0.103553  0  1.019459  0  0  0.100337  0.097279  0  1.023804  0
H  H10  1  0.12946026  0.18718529  0.91533810  1  0  0.089953  0  0.986549  0  0  0.09863  0  1.05532  0  0  0.101535  0  1.053796  0  0  0.101641  0.096593  0  1.056366  0
H  H11  1  0.28523730  0.72823013  0.91518023  1  0  0.090895  0  0.984524  0  0  0.099496  0  1.053386  0  0  0.10245  0  1.051759  0  0  0.102165  0.097463  0  1.054433  0
H  H12  1  0.87054079  0.81281602  0.08466596  1  0  0.089974  0  0.986551  0  0  0.098655  0  1.05531  0  0  0.101559  0  1.053789  0  0  0.10166  0.096617  0  1.056359  0
H  H13  1  0.71476517  0.27177115  0.08482034  1  0  0.090887  0  0.984514  0  0  0.099494  0  1.053377  0  0  0.102447  0  1.05175  0  0  0.102154  0.097461  0  1.054429  0
H  H14  1  0.67758838  0.44211669  0.31311389  1  0  0.073545  0  0.949488  0  0  0.087362  0  1.014935  0  0  0.087693  0  1.015719  0  0  0.102621  0.08705  0  1.01446  0
H  H15  1  0.13506847  0.87086176  0.31315984  1  0  0.073656  0  0.948713  0  0  0.087712  0  1.014086  0  0  0.088014  0  1.014877  0  0  0.10301  0.087416  0  1.013618  0
H  H16  1  0.32241265  0.55788459  0.68688740  1  0  0.073547  0  0.949487  0  0  0.087348  0  1.014954  0  0  0.087677  0  1.015738  0  0  0.102637  0.087037  0  1.014478  0
H  H17  1  0.86493200  0.12913836  0.68683818  1  0  0.073618  0  0.948809  0  0  0.087689  0  1.014175  0  0  0.08799  0  1.014968  0  0  0.102996  0.087388  0  1.013709  0
H  H18  1  0.78010886  0.60878052  0.47931059  1  0  0.084123  0  0.962346  0  0  0.097492  0  1.02663  0  0  0.098524  0  1.026523  0  0  0.105349  0.096633  0  1.026872  0
H  H19  1  0.19912110  0.87027571  0.47934416  1  0  0.084478  0  0.963361  0  0  0.098897  0  1.026415  0  0  0.10004  0  1.026162  0  0  0.105875  0.097977  0  1.026717  0
H  H20  1  0.21989308  0.39121962  0.52069042  1  0  0.08413  0  0.962341  0  0  0.097502  0  1.026614  0  0  0.098535  0  1.026506  0  0  0.105351  0.096646  0  1.026864  0
H  H21  1  0.80087794  0.12972440  0.52065366  1  0  0.084451  0  0.963374  0  0  0.098868  0  1.026444  0  0  0.100009  0  1.026195  0  0  0.105862  0.097945  0  1.026748  0
H  H22  1  0.86660959  0.85835913  0.48570017  1  0  0.072344  0  0.935023  0  0  0.090147  0  0.994349  0  0  0.090616  0  0.994401  0  0  0.104773  0.08966  0  0.994451  0
H  H23  1  0.11904878  0.62723343  0.48571101  1  0  0.072143  0  0.934518  0  0  0.090028  0  0.993788  0  0  0.090462  0  0.993816  0  0  0.10459  0.089537  0  0.993977  0
H  H24  1  0.13339144  0.14164214  0.51429926  1  0  0.072353  0  0.934993  0  0  0.09012  0  0.99436  0  0  0.090589  0  0.99441  0  0  0.104766  0.089629  0  0.994469  0
H  H25  1  0.88095368  0.37276784  0.51428864  1  0  0.072135  0  0.934537  0  0  0.090012  0  0.993808  0  0  0.090447  0  0.993838  0  0  0.104585  0.089518  0  0.993998  0
H  H26  1  0.81053943  0.87512011  0.32649741  1  0  0.069334  0  0.943902  0  0  0.085679  0  1.004797  0  0  0.085724  0  1.00589  0  0  0.10312  0.085554  0  1.004098  0
H  H27  1  0.01562368  0.45124776  0.32657210  1  0  0.069977  0  0.943911  0  0  0.085282  0  1.005955  0  0  0.085348  0  1.006959  0  0  0.103477  0.085153  0  1.005302  0
H  H28  1  0.18945996  0.12487769  0.67349964  1  0  0.069325  0  0.943849  0  0  0.085667  0  1.004749  0  0  0.085708  0  1.005839  0  0  0.103121  0.085539  0  1.004051  0
H  H29  1  0.98437824  0.54875236  0.67342706  1  0  0.070008  0  0.943897  0  0  0.085274  0  1.005979  0  0  0.08534  0  1.006985  0  0  0.103471  0.085142  0  1.005326  0
H  H30  1  0.66655374  0.64275591  0.09978055  1  0  0.075749  0  0.957685  0  0  0.087229  0  1.026509  0  0  0.088386  0  1.025696  0  0  0.103169  0.086333  0  1.027162  0
H  H31  1  0.93242755  0.45720561  0.09962381  1  0  0.076599  0  0.957851  0  0  0.087714  0  1.026501  0  0  0.08888  0  1.025654  0  0  0.103174  0.0868  0  1.027139  0
H  H32  1  0.33344476  0.35724305  0.90021770  1  0  0.075753  0  0.957697  0  0  0.087235  0  1.026518  0  0  0.088391  0  1.025703  0  0  0.103162  0.086335  0  1.027173  0
H  H33  1  0.06757150  0.54279451  0.90037585  1  0  0.076622  0  0.957838  0  0  0.087736  0  1.026486  0  0  0.088907  0  1.025642  0  0  0.103172  0.086817  0  1.027126  0
H  H34  1  0.60307256  0.46049479  0.09561233  1  0  0.078873  0  0.954615  0  0  0.089915  0  1.0245  0  0  0.091003  0  1.024063  0  0  0.104242  0.089004  0  1.024953  0
H  H35  1  0.99194411  0.63542189  0.09577245  1  0  0.078614  0  0.955467  0  0  0.089116  0  1.025677  0  0  0.090215  0  1.025176  0  0  0.104132  0.088181  0  1.02618  0
H  H36  1  0.39692595  0.53950418  0.90438685  1  0  0.078883  0  0.954619  0  0  0.089922  0  1.024516  0  0  0.091009  0  1.024075  0  0  0.104239  0.089006  0  1.024971  0
H  H37  1  0.00805440  0.36457708  0.90422580  1  0  0.07864  0  0.955448  0  0  0.089134  0  1.025657  0  0  0.090238  0  1.025161  0  0  0.104141  0.088195  0  1.02616  0
C  C38  1  0.24936918  0.31929171  0.20293790  1  0  0.635468  0  3.915322  0  0  0.578325  0  4.218453  0  0  0.612763  0  4.209848  0  0  0.207763  0.555069  0  4.223401  0
C  C39  1  0.45321469  0.88356593  0.20285487  1  0  0.636492  0  3.91611  0  0  0.579611  0  4.219129  0  0  0.614139  0  4.210433  0  0  0.207394  0.556273  0  4.224271  0
C  C40  1  0.75063132  0.68070843  0.79706382  1  0  0.635449  0  3.915342  0  0  0.578313  0  4.218476  0  0  0.612737  0  4.20987  0  0  0.207773  0.555049  0  4.223427  0
C  C41  1  0.54678238  0.11643304  0.79714410  1  0  0.636452  0  3.916205  0  0  0.579558  0  4.219244  0  0  0.614086  0  4.210549  0  0  0.207366  0.556216  0  4.2244  0
C  C42  1  0.12370481  0.15375091  0.09827577  1  0  -0.058009  0  3.752346  0  0  -0.034828  0  3.984499  0  0  -0.041373  0  4.007247  0  0  -0.016417  -0.030621  0  3.969154  0
C  C43  1  0.47442016  0.94446018  0.09824139  1  0  -0.058303  0  3.750077  0  0  -0.034642  0  3.981415  0  0  -0.041184  0  4.00416  0  0  -0.015243  -0.030346  0  3.966035  0
C  C44  1  0.87629390  0.84625154  0.90172743  1  0  -0.057985  0  3.752344  0  0  -0.03484  0  3.984551  0  0  -0.041332  0  4.007229  0  0  -0.016399  -0.030627  0  3.969207  0
C  C45  1  0.52558196  0.05554341  0.90176086  1  0  -0.058286  0  3.750003  0  0  -0.034626  0  3.981356  0  0  -0.041169  0  4.004103  0  0  -0.015271  -0.030341  0  3.965998  0
C  C46  1  0.05125114  0.04755546  0.14601864  1  0  -0.077399  0  3.744204  0  0  -0.099277  0  3.9932  0  0  -0.100916  0  4.014227  0  0  -0.086082  -0.098043  0  3.978939  0
C  C47  1  0.59498723  0.09835956  0.14601464  1  0  -0.076391  0  3.745424  0  0  -0.098172  0  3.993879  0  0  -0.099782  0  4.014962  0  0  -0.085661  -0.096997  0  3.97954  0
C  C48  1  0.94874109  0.95244237  0.85398107  1  0  -0.0774  0  3.744271  0  0  -0.099291  0  3.993276  0  0  -0.100944  0  4.014285  0  0  -0.086083  -0.098067  0  3.979027  0
C  C49  1  0.40501094  0.90164173  0.85398715  1  0  -0.076363  0  3.745454  0  0  -0.098153  0  3.993899  0  0  -0.099764  0  4.014984  0  0  -0.085653  -0.096975  0  3.979565  0
C  C50  1  0.07120292  0.10433702  0.95138479  1  0  -0.065068  0  3.726561  0  0  -0.090739  0  3.979681  0  0  -0.091454  0  4.000669  0  0  -0.083641  -0.090132  0  3.965359  0
C  C51  1  0.37986697  0.84711557  0.95132458  1  0  -0.065625  0  3.725216  0  0  -0.091197  0  3.977664  0  0  -0.091946  0  3.998696  0  0  -0.084287  -0.090597  0  3.963206  0
C  C52  1  0.92879272  0.89566197  0.04861674  1  0  -0.065141  0  3.726693  0  0  -0.090812  0  3.979844  0  0  -0.091544  0  4.000818  0  0  -0.083683  -0.090212  0  3.965524  0
C  C53  1  0.62013262  0.15288570  0.04867465  1  0  -0.065597  0  3.725122  0  0  -0.091176  0  3.977579  0  0  -0.091925  0  3.998608  0  0  -0.084248  -0.090585  0  3.963137  0
C  C54  1  0.78793216  0.56077140  0.37196725  1  0  -0.049158  0  3.589292  0  0  -0.101361  0  3.836523  0  0  -0.098869  0  3.849129  0  0  -0.080472  -0.102944  0  3.827899  0
C  C55  1  0.08375812  0.81105185  0.37201821  1  0  -0.048385  0  3.58695  0  0  -0.101676  0  3.836764  0  0  -0.099022  0  3.849101  0  0  -0.080358  -0.103321  0  3.828244  0
C  C56  1  0.21206922  0.43922757  0.62803235  1  0  -0.049157  0  3.589337  0  0  -0.101357  0  3.836549  0  0  -0.098855  0  3.849161  0  0  -0.080493  -0.102953  0  3.82794  0
C  C57  1  0.91624039  0.18894712  0.62798096  1  0  -0.048313  0  3.586999  0  0  -0.101649  0  3.836817  0  0  -0.098993  0  3.849151  0  0  -0.08033  -0.103284  0  3.828292  0
C  C58  1  0.86733190  0.80894299  0.37632918  1  0  -0.034978  0  3.595662  0  0  -0.087534  0  3.844504  0  0  -0.084526  0  3.857363  0  0  -0.075493  -0.089426  0  3.835618  0
C  C59  1  0.00869902  0.56722961  0.37631375  1  0  -0.034404  0  3.595259  0  0  -0.085675  0  3.843782  0  0  -0.082539  0  3.856552  0  0  -0.07446  -0.08771  0  3.835094  0
C  C60  1  0.13266768  0.19105827  0.62366819  1  0  -0.034941  0  3.595573  0  0  -0.087452  0  3.844376  0  0  -0.084432  0  3.857242  0  0  -0.075474  -0.089348  0  3.835497  0
C  C61  1  0.99130201  0.43277166  0.62368568  1  0  -0.034424  0  3.595305  0  0  -0.085667  0  3.843781  0  0  -0.082532  0  3.85655  0  0  -0.074469  -0.087699  0  3.835094  0
C  C62  1  0.71800364  0.57722992  0.15216732  1  0  -0.0401  0  3.587217  0  0  -0.094248  0  3.835708  0  0  -0.09133  0  3.847173  0  0  -0.078743  -0.096168  0  3.827847  0
C  C63  1  0.93354346  0.57506074  0.15218013  1  0  -0.040444  0  3.589021  0  0  -0.092201  0  3.836291  0  0  -0.089026  0  3.847375  0  0  -0.078928  -0.094235  0  3.828672  0
C  C64  1  0.28199775  0.42276906  0.84783320  1  0  -0.04013  0  3.587201  0  0  -0.094292  0  3.835676  0  0  -0.091369  0  3.847182  0  0  -0.078753  -0.096208  0  3.82781  0
C  C65  1  0.06645703  0.42493939  0.84781974  1  0  -0.040526  0  3.589024  0  0  -0.092276  0  3.83626  0  0  -0.089134  0  3.847378  0  0  -0.078954  -0.094312  0  3.828662  0
N  N66  1  0.71717922  0.64862833  0.29998985  1  0  -0.230761  0  3.218468  0  0  -0.133491  0  3.456639  0  0  -0.151921  0  3.476655  0  0  -0.334997  -0.120673  0  3.442631  0
N  N67  1  0.08232127  0.65124705  0.29999504  1  0  -0.230903  0  3.218481  0  0  -0.136655  0  3.460269  0  0  -0.155254  0  3.480465  0  0  -0.336079  -0.123758  0  3.446161  0
N  N68  1  0.28282072  0.35137063  0.70000862  1  0  -0.230761  0  3.218517  0  0  -0.133462  0  3.456633  0  0  -0.151921  0  3.476677  0  0  -0.334994  -0.120637  0  3.442604  0
N  N69  1  0.91767832  0.34875422  0.70000419  1  0  -0.230899  0  3.218466  0  0  -0.136602  0  3.460157  0  0  -0.155185  0  3.480337  0  0  -0.336059  -0.123706  0  3.44605  0
O  O70  1  0.32639730  0.35880221  0.33392967  1  0  -0.629767  0  2.00976  0  0  -0.573646  0  2.246213  0  0  -0.597576  0  2.235308  0  0  -0.312883  -0.55681  0  2.253168  0
O  O71  1  0.50834133  0.97495339  0.33392941  1  0  -0.631285  0  2.009566  0  0  -0.574934  0  2.245794  0  0  -0.598831  0  2.234712  0  0  -0.313105  -0.558269  0  2.252894  0
O  O72  1  0.67360717  0.64120023  0.66607344  1  0  -0.629774  0  2.00989  0  0  -0.573628  0  2.246317  0  0  -0.597555  0  2.235419  0  0  -0.312907  -0.556787  0  2.253273  0
O  O73  1  0.49165037  0.02504329  0.66607166  1  0  -0.631271  0  2.009622  0  0  -0.574928  0  2.245869  0  0  -0.598827  0  2.234796  0  0  -0.313104  -0.558249  0  2.252945  0
O  O74  1  0.26700651  0.41593863  0.15175496  1  0  -0.631594  0  2.052714  0  0  -0.550442  0  2.31596  0  0  -0.579072  0  2.303639  0  0  -0.310796  -0.530355  0  2.323606  0
O  O75  1  0.38298104  0.73576374  0.15158499  1  0  -0.63062  0  2.052979  0  0  -0.551288  0  2.31774  0  0  -0.580322  0  2.305729  0  0  -0.310773  -0.531084  0  2.325286  0
O  O76  1  0.73299435  0.58405921  0.84824692  1  0  -0.631597  0  2.052703  0  0  -0.55045  0  2.31597  0  0  -0.579092  0  2.303664  0  0  -0.310809  -0.530354  0  2.323606  0
O  O77  1  0.61701836  0.26423408  0.84841298  1  0  -0.630592  0  2.053018  0  0  -0.551253  0  2.31779  0  0  -0.580286  0  2.305779  0  0  -0.310743  -0.531035  0  2.325305  0
O  O78  1  0.50548544  0.75526882  0.50953406  1  0  -0.867203  0  1.930114  0  0  -0.802285  0  2.169388  0  0  -0.824208  0  2.129226  0  0  -0.582991  -0.78684  0  2.197594  0
O  O79  1  0.49451648  0.24473130  0.49046510  1  0  -0.867278  0  1.930045  0  0  -0.802363  0  2.169318  0  0  -0.824285  0  2.129154  0  0  -0.583021  -0.78692  0  2.197522  0
