# generated using pymatgen
data_Ag3H12C16S2N8Cl3O14
_symmetry_space_group_name_H-M   'P 1'
_cell_length_a   7.99226233
_cell_length_b   14.30583675
_cell_length_c   24.85027403
_cell_angle_alpha   89.99982126
_cell_angle_beta   90.00007554
_cell_angle_gamma   90.00001400
_symmetry_Int_Tables_number   1
_chemical_formula_structural   Ag3H12C16S2N8Cl3O14
_chemical_formula_sum   'Ag12 H48 C64 S8 N32 Cl12 O56'
_cell_volume   2841.28093540
_cell_formula_units_Z   4
loop_
 _symmetry_equiv_pos_site_id
 _symmetry_equiv_pos_as_xyz
  1  'x, y, z'
loop_
 _atom_site_type_symbol
 _atom_site_label
 _atom_site_symmetry_multiplicity
 _atom_site_fract_x
 _atom_site_fract_y
 _atom_site_fract_z
 _atom_site_occupancy
 _atom_site_pbe_bader_charge
 _atom_site_pbe_bader_spin_density
 _atom_site_pbe_cm5_charge
 _atom_site_pbe_ddec_charge
 _atom_site_pbe_ddec_spin_density
 _atom_site_pbe_ddec_sum_bond_order
 _atom_site_pbe_magmom
Ag  Ag0  1  0.31199490  0.50111718  0.24999967  1  0.642429  0  0.473876  0.331894  0  1.91614  0
Ag  Ag1  1  0.18800091  0.00111640  0.75000102  1  0.642443  0  0.473874  0.331903  0  1.916176  0
Ag  Ag2  1  0.68800338  0.49888320  0.75000068  1  0.642436  0  0.47386  0.331839  0  1.916204  0
Ag  Ag3  1  0.81199611  0.99888258  0.24999973  1  0.642432  0  0.47388  0.331865  0  1.916183  0
Ag  Ag4  1  0.79433687  0.33029891  0.47789520  1  0.692097  0  0.493783  0.480164  0  1.788079  0
Ag  Ag5  1  0.70565880  0.83029820  0.52210471  1  0.69206  0  0.493816  0.480196  0  1.788045  0
Ag  Ag6  1  0.20566737  0.66970094  0.97789570  1  0.692057  0  0.493795  0.480243  0  1.788102  0
Ag  Ag7  1  0.29433101  0.16970132  0.02210469  1  0.692085  0  0.493783  0.480178  0  1.788043  0
Ag  Ag8  1  0.20566266  0.66970077  0.52210475  1  0.692072  0  0.4938  0.480174  0  1.788099  0
Ag  Ag9  1  0.29433698  0.16970149  0.47789605  1  0.692064  0  0.493794  0.480183  0  1.788063  0
Ag  Ag10  1  0.79433090  0.33029805  0.02210465  1  0.692078  0  0.493801  0.480216  0  1.788065  0
Ag  Ag11  1  0.70566726  0.83029976  0.97789606  1  0.692074  0  0.493827  0.480278  0  1.788049  0
H  H12  1  0.78570590  0.49758188  0.40303672  1  0.136934  0  0.126119  0.120389  0  1.015378  0
H  H13  1  0.71429610  0.99758426  0.59696128  1  0.13686  0  0.126096  0.120383  0  1.015355  0
H  H14  1  0.21429427  0.50241697  0.90303752  1  0.136893  0  0.126137  0.120431  0  1.015414  0
H  H15  1  0.28570404  0.00241975  0.09696358  1  0.136911  0  0.126105  0.120414  0  1.015445  0
H  H16  1  0.21429613  0.50241570  0.59696202  1  0.136908  0  0.126097  0.120375  0  1.015404  0
H  H17  1  0.28570343  0.00241542  0.40303787  1  0.136911  0  0.126103  0.12038  0  1.01539  0
H  H18  1  0.78570776  0.49758061  0.09696364  1  0.136872  0  0.126128  0.120392  0  1.015458  0
H  H19  1  0.71429674  0.99758343  0.90303758  1  0.13692  0  0.126119  0.120387  0  1.015418  0
H  H20  1  0.41544503  0.28591397  0.30560612  1  0.141611  0  0.122765  0.105713  0  1.003913  0
H  H21  1  0.08455341  0.78591440  0.69439407  1  0.141629  0  0.12277  0.105715  0  1.003885  0
H  H22  1  0.58455223  0.71408541  0.80560790  1  0.141688  0  0.122771  0.105701  0  1.003919  0
H  H23  1  0.91544713  0.21408698  0.19439343  1  0.141626  0  0.122738  0.105681  0  1.003993  0
H  H24  1  0.58455450  0.71408431  0.69439383  1  0.141641  0  0.122789  0.105729  0  1.003863  0
H  H25  1  0.91544486  0.21408598  0.30560669  1  0.141648  0  0.122783  0.105738  0  1.003876  0
H  H26  1  0.41544604  0.28591287  0.19439205  1  0.141634  0  0.122767  0.105738  0  1.003973  0
H  H27  1  0.08455114  0.78591410  0.80560773  1  0.141664  0  0.122769  0.105714  0  1.003915  0
H  H28  1  0.60147135  0.22739710  0.38050156  1  0.156904  0  0.122908  0.106815  0  1.014192  0
H  H29  1  0.89852677  0.72739799  0.61949894  1  0.15692  0  0.12291  0.106851  0  1.014142  0
H  H30  1  0.39852873  0.77260187  0.88050316  1  0.157147  0  0.122915  0.106824  0  1.014134  0
H  H31  1  0.10146720  0.27260380  0.11949786  1  0.157089  0  0.122874  0.106751  0  1.014169  0
H  H32  1  0.39852693  0.77260048  0.61949880  1  0.156936  0  0.122925  0.106861  0  1.014142  0
H  H33  1  0.10147275  0.27260169  0.38050142  1  0.156923  0  0.122895  0.106773  0  1.014206  0
H  H34  1  0.60146955  0.22739711  0.11949719  1  0.157118  0  0.122881  0.106772  0  1.014162  0
H  H35  1  0.89852732  0.72739798  0.88050330  1  0.157142  0  0.122903  0.106822  0  1.014131  0
H  H36  1  0.48529419  0.66202724  0.43499028  1  0.159975  0  0.124336  0.118787  0  1.01397  0
H  H37  1  0.01470670  0.16202814  0.56500972  1  0.160014  0  0.124332  0.118762  0  1.013999  0
H  H38  1  0.51469861  0.33797074  0.93498788  1  0.159932  0  0.12433  0.118801  0  1.013972  0
H  H39  1  0.98529956  0.83797185  0.06501282  1  0.159971  0  0.124343  0.118847  0  1.013905  0
H  H40  1  0.51470784  0.33797104  0.56500967  1  0.160014  0  0.124326  0.118762  0  1.014012  0
H  H41  1  0.98529158  0.83796805  0.43499063  1  0.16002  0  0.124327  0.118746  0  1.014054  0
H  H42  1  0.48530092  0.66202964  0.06501167  1  0.159919  0  0.124324  0.118763  0  1.014014  0
H  H43  1  0.01470122  0.16202923  0.93498794  1  0.15995  0  0.124347  0.118814  0  1.013969  0
H  H44  1  0.96651585  0.64420242  0.42135272  1  0.16479  0  0.122685  0.109149  0  1.012841  0
H  H45  1  0.53348474  0.14420185  0.57864712  1  0.164771  0  0.122681  0.109149  0  1.012811  0
H  H46  1  0.03347564  0.35579634  0.92135452  1  0.164756  0  0.122716  0.109233  0  1.012796  0
H  H47  1  0.46652158  0.85579387  0.07864635  1  0.164767  0  0.122713  0.109262  0  1.012727  0
H  H48  1  0.03348493  0.35579866  0.57864683  1  0.164766  0  0.122671  0.109146  0  1.012809  0
H  H49  1  0.46651479  0.85579853  0.42135243  1  0.164772  0  0.12269  0.109172  0  1.012789  0
H  H50  1  0.96652389  0.64420474  0.07864624  1  0.164789  0  0.122727  0.109271  0  1.012719  0
H  H51  1  0.53347795  0.14420371  0.92135401  1  0.164761  0  0.122711  0.109232  0  1.012755  0
H  H52  1  0.99520713  0.59511852  0.32428060  1  0.174054  0  0.117362  0.100134  0  1.020397  0
H  H53  1  0.50479468  0.09511812  0.67571973  1  0.174033  0  0.117355  0.100113  0  1.020369  0
H  H54  1  0.00479145  0.40488146  0.82428391  1  0.17411  0  0.117345  0.10014  0  1.020514  0
H  H55  1  0.49520578  0.90488057  0.17571687  1  0.174078  0  0.117365  0.100165  0  1.020412  0
H  H56  1  0.00479364  0.40488256  0.67571895  1  0.174041  0  0.117368  0.100115  0  1.020376  0
H  H57  1  0.49520735  0.90488226  0.32428022  1  0.174042  0  0.117369  0.100136  0  1.020362  0
H  H58  1  0.99520932  0.59512032  0.17571645  1  0.174112  0  0.117337  0.10015  0  1.020504  0
H  H59  1  0.50479374  0.09511911  0.82428348  1  0.174085  0  0.117342  0.100142  0  1.020442  0
C  C60  1  0.70359392  0.44988811  0.38156817  1  0.58892  0  0.057531  0.041386  0  3.864829  0
C  C61  1  0.79640930  0.94988899  0.61843112  1  0.588978  0  0.057539  0.041383  0  3.864841  0
C  C62  1  0.29640366  0.55010946  0.88156892  1  0.588877  0  0.057543  0.041395  0  3.864734  0
C  C63  1  0.20359343  0.05011211  0.11843209  1  0.58885  0  0.057511  0.041238  0  3.864909  0
C  C64  1  0.29640686  0.55011087  0.61843098  1  0.588926  0  0.057562  0.041387  0  3.864768  0
C  C65  1  0.20359273  0.05011069  0.38156883  1  0.588892  0  0.057558  0.041426  0  3.864795  0
C  C66  1  0.70359587  0.44988883  0.11843143  1  0.58895  0  0.057517  0.041367  0  3.864794  0
C  C67  1  0.79640610  0.94989107  0.88156867  1  0.588862  0  0.05757  0.041489  0  3.864675  0
C  C68  1  0.59481113  0.48059526  0.34179753  1  0.397149  0  0.115628  0.081826  0  3.95867  0
C  C69  1  0.90518835  0.98059663  0.65820211  1  0.397082  0  0.115602  0.081738  0  3.958692  0
C  C70  1  0.40518378  0.51940462  0.84179677  1  0.397122  0  0.115628  0.081836  0  3.958528  0
C  C71  1  0.09481579  0.01940704  0.15820389  1  0.397229  0  0.115646  0.081919  0  3.958693  0
C  C72  1  0.40518965  0.51940232  0.65820242  1  0.397105  0  0.115595  0.081728  0  3.958565  0
C  C73  1  0.09481368  0.01940445  0.34179784  1  0.397124  0  0.115611  0.081768  0  3.958618  0
C  C74  1  0.59481450  0.48059366  0.15820318  1  0.39714  0  0.115625  0.081852  0  3.958645  0
C  C75  1  0.90518373  0.98059613  0.84179687  1  0.397091  0  0.115596  0.081731  0  3.958667  0
C  C76  1  0.49650223  0.33342249  0.32789357  1  0.566302  0  0.070125  0.092592  0  3.849791  0
C  C77  1  0.00349497  0.83342304  0.67210613  1  0.566294  0  0.070126  0.092631  0  3.849935  0
C  C78  1  0.50349512  0.66657816  0.82789460  1  0.566276  0  0.070169  0.092639  0  3.849765  0
C  C79  1  0.99650172  0.16658056  0.17210641  1  0.56629  0  0.070188  0.09262  0  3.849843  0
C  C80  1  0.50349604  0.66657579  0.67210598  1  0.566319  0  0.070087  0.092571  0  3.84983  0
C  C81  1  0.99650455  0.16657664  0.32789382  1  0.5663  0  0.070117  0.09257  0  3.849865  0
C  C82  1  0.49650191  0.33342012  0.17210495  1  0.566262  0  0.070142  0.092526  0  3.849818  0
C  C83  1  0.00349530  0.83342192  0.82789475  1  0.56631  0  0.070179  0.092627  0  3.849781  0
C  C84  1  0.60079819  0.30084338  0.36890806  1  0.489392  0  0.063201  0.056796  0  3.864636  0
C  C85  1  0.89920247  0.80084420  0.63109190  1  0.489344  0  0.063089  0.056568  0  3.864611  0
C  C86  1  0.39920184  0.69915356  0.86891020  1  0.489182  0  0.063112  0.056735  0  3.864725  0
C  C87  1  0.10079656  0.19915613  0.13109095  1  0.489102  0  0.063215  0.056843  0  3.864654  0
C  C88  1  0.39920259  0.69915560  0.63109189  1  0.489344  0  0.063127  0.056618  0  3.864614  0
C  C89  1  0.10079831  0.19915548  0.36890845  1  0.48935  0  0.063136  0.056716  0  3.864649  0
C  C90  1  0.60079644  0.30084472  0.13109016  1  0.48914  0  0.063208  0.056857  0  3.864635  0
C  C91  1  0.89920046  0.80084635  0.86891021  1  0.489144  0  0.063132  0.056759  0  3.864662  0
C  C92  1  0.38750443  0.62050174  0.35677104  1  0.352978  0  0.113148  0.077452  0  3.953783  0
C  C93  1  0.11249769  0.12050292  0.64322944  1  0.352918  0  0.113283  0.077434  0  3.953802  0
C  C94  1  0.61249304  0.37950156  0.85676740  1  0.353353  0  0.113288  0.077584  0  3.954119  0
C  C95  1  0.88750515  0.87950293  0.14323282  1  0.35335  0  0.113191  0.077519  0  3.954121  0
C  C96  1  0.61249760  0.37949725  0.64322891  1  0.352926  0  0.113249  0.077441  0  3.953894  0
C  C97  1  0.88750559  0.87949815  0.35677172  1  0.35295  0  0.113222  0.077531  0  3.954011  0
C  C98  1  0.38750774  0.62049812  0.14323255  1  0.353371  0  0.113327  0.077658  0  3.954021  0
C  C99  1  0.11249563  0.12049885  0.85676713  1  0.353232  0  0.113232  0.077501  0  3.954091  0
C  C100  1  0.37529524  0.64860201  0.41020181  1  0.615711  0  0.062684  0.046062  0  3.859109  0
C  C101  1  0.12470689  0.14860209  0.58979822  1  0.615719  0  0.062668  0.046147  0  3.859067  0
C  C102  1  0.62469495  0.35139541  0.91020104  1  0.615675  0  0.062606  0.045991  0  3.85893  0
C  C103  1  0.87530448  0.85139566  0.08979963  1  0.615721  0  0.062594  0.045941  0  3.859051  0
C  C104  1  0.62470679  0.35139767  0.58979814  1  0.615707  0  0.062691  0.046119  0  3.859084  0
C  C105  1  0.87529514  0.85139619  0.41020173  1  0.615664  0  0.062696  0.04609  0  3.859203  0
C  C106  1  0.37530583  0.64860497  0.08979851  1  0.6157  0  0.062683  0.046133  0  3.858995  0
C  C107  1  0.12469630  0.14860472  0.91020112  1  0.615665  0  0.062579  0.045997  0  3.859023  0
C  C108  1  0.08885568  0.63802311  0.40243123  1  0.515126  0  0.06207  0.058021  0  3.86285  0
C  C109  1  0.41114520  0.13802249  0.59756923  1  0.515113  0  0.062059  0.057981  0  3.862818  0
C  C110  1  0.91113198  0.36197365  0.90243217  1  0.514829  0  0.062096  0.058015  0  3.863003  0
C  C111  1  0.58886620  0.86197103  0.09756890  1  0.515006  0  0.062094  0.057935  0  3.863082  0
C  C112  1  0.91114510  0.36197797  0.59756913  1  0.515118  0  0.062054  0.057976  0  3.86284  0
C  C113  1  0.58885683  0.86197719  0.40243113  1  0.515146  0  0.062061  0.057989  0  3.862852  0
C  C114  1  0.08886880  0.63802813  0.09756819  1  0.514802  0  0.062062  0.057965  0  3.863164  0
C  C115  1  0.41113333  0.13802726  0.90243226  1  0.515273  0  0.062082  0.058004  0  3.863081  0
C  C116  1  0.10455825  0.61067358  0.34877792  1  0.491067  0  0.06446  0.090789  0  3.860017  0
C  C117  1  0.39544262  0.11067407  0.65122218  1  0.491053  0  0.064494  0.090891  0  3.859921  0
C  C118  1  0.89544295  0.38932906  0.84877800  1  0.490916  0  0.064492  0.090846  0  3.859783  0
C  C119  1  0.60455524  0.88932755  0.15122261  1  0.490912  0  0.064442  0.09082  0  3.85982  0
C  C120  1  0.89544378  0.38932610  0.65122203  1  0.49102  0  0.064502  0.090882  0  3.860054  0
C  C121  1  0.60455941  0.88932631  0.34877777  1  0.491083  0  0.064423  0.090792  0  3.859893  0
C  C122  1  0.10455658  0.61067272  0.15122235  1  0.490914  0  0.064445  0.090786  0  3.859848  0
C  C123  1  0.39544553  0.11067213  0.84877775  1  0.490935  0  0.064511  0.090873  0  3.859694  0
S  S124  1  0.59069089  0.60505499  0.32467045  1  1.309079  0  0.312877  0.450494  0  4.067607  0
S  S125  1  0.90930968  0.10505465  0.67532947  1  1.309137  0  0.312809  0.450481  0  4.067644  0
S  S126  1  0.40930395  0.39494498  0.82466991  1  1.302103  0  0.312939  0.450552  0  4.06767  0
S  S127  1  0.09069704  0.89494753  0.17533048  1  1.302071  0  0.312882  0.450437  0  4.067865  0
S  S128  1  0.40930989  0.39494399  0.67532910  1  1.309146  0  0.312855  0.450541  0  4.067586  0
S  S129  1  0.09069109  0.89494503  0.32467089  1  1.309127  0  0.312818  0.45043  0  4.067691  0
S  S130  1  0.59069808  0.60505330  0.17532964  1  1.302117  0  0.312938  0.450541  0  4.067686  0
S  S131  1  0.90930499  0.10505495  0.82466947  1  1.302071  0  0.312907  0.45054  0  4.067743  0
N  N132  1  0.70251038  0.35921669  0.39599022  1  -1.150637  0  -0.316375  -0.153121  0  3.538594  0
N  N133  1  0.79748904  0.85921904  0.60400843  1  -1.150569  0  -0.31628  -0.152937  0  3.538383  0
N  N134  1  0.29749101  0.64078290  0.89599122  1  -1.15068  0  -0.316368  -0.153189  0  3.538681  0
N  N135  1  0.20250611  0.14078632  0.10400963  1  -1.150649  0  -0.316316  -0.153018  0  3.538538  0
N  N136  1  0.29748789  0.64078089  0.60400892  1  -1.150578  0  -0.316345  -0.15301  0  3.538452  0
N  N137  1  0.20251048  0.14078134  0.39599112  1  -1.150576  0  -0.316325  -0.15305  0  3.53849  0
N  N138  1  0.70250727  0.35921469  0.10400874  1  -1.15067  0  -0.316379  -0.153161  0  3.538555  0
N  N139  1  0.79749091  0.85921685  0.89599153  1  -1.150626  0  -0.316383  -0.153195  0  3.538595  0
N  N140  1  0.49212424  0.42433437  0.31501436  1  -1.183311  0  -0.300003  -0.18976  0  3.496498  0
N  N141  1  0.00787551  0.92433345  0.68498518  1  -1.183285  0  -0.299971  -0.18971  0  3.496538  0
N  N142  1  0.50787055  0.57566496  0.81501475  1  -1.183245  0  -0.3  -0.189713  0  3.496437  0
N  N143  1  0.99213000  0.07566728  0.18498643  1  -1.183263  0  -0.300047  -0.189786  0  3.496506  0
N  N144  1  0.50787654  0.57566461  0.68498519  1  -1.183315  0  -0.299959  -0.189635  0  3.496432  0
N  N145  1  0.99212652  0.07566623  0.31501437  1  -1.183288  0  -0.299983  -0.189681  0  3.496482  0
N  N146  1  0.49212772  0.42433403  0.18498521  1  -1.18324  0  -0.299987  -0.18971  0  3.496474  0
N  N147  1  0.00787078  0.92433450  0.81501433  1  -1.183242  0  -0.3  -0.189694  0  3.496527  0
N  N148  1  0.22355728  0.65642042  0.43301118  1  -1.154716  0  -0.311073  -0.144101  0  3.523441  0
N  N149  1  0.27644360  0.15641995  0.56698884  1  -1.154728  0  -0.311072  -0.144086  0  3.523427  0
N  N150  1  0.77643676  0.34357896  0.93301210  1  -1.154232  0  -0.311161  -0.14428  0  3.523837  0
N  N151  1  0.72356141  0.84357723  0.06698940  1  -1.154436  0  -0.311139  -0.144238  0  3.523863  0
N  N152  1  0.77644475  0.34357996  0.56698877  1  -1.154752  0  -0.311059  -0.144072  0  3.523413  0
N  N153  1  0.72355592  0.84357833  0.43301112  1  -1.154731  0  -0.311057  -0.144084  0  3.523464  0
N  N154  1  0.22356402  0.65642212  0.06698866  1  -1.154265  0  -0.311195  -0.144353  0  3.524087  0
N  N155  1  0.27643937  0.15642105  0.93301136  1  -1.1547  0  -0.311115  -0.144229  0  3.523921  0
N  N156  1  0.25552922  0.60160113  0.32578063  1  -1.186268  0  -0.306514  -0.205573  0  3.491085  0
N  N157  1  0.24447164  0.10160287  0.67421989  1  -1.186225  0  -0.306592  -0.205665  0  3.491184  0
N  N158  1  0.74445561  0.39839883  0.82578184  1  -1.186566  0  -0.306617  -0.205693  0  3.491498  0
N  N159  1  0.75554133  0.89839932  0.17421876  1  -1.186576  0  -0.306506  -0.205586  0  3.491418  0
N  N160  1  0.74447156  0.39839715  0.67421932  1  -1.186217  0  -0.306624  -0.205662  0  3.491372  0
N  N161  1  0.75553164  0.89839821  0.32578127  1  -1.186247  0  -0.306564  -0.205664  0  3.491251  0
N  N162  1  0.25554641  0.60160224  0.17421852  1  -1.186556  0  -0.306604  -0.205745  0  3.491455  0
N  N163  1  0.24445695  0.10160246  0.82578120  1  -1.186442  0  -0.306577  -0.205679  0  3.491375  0
Cl  Cl164  1  0.74285701  0.10015370  0.47099406  1  2.993913  0  0.720479  1.301473  0  6.74005  0
Cl  Cl165  1  0.75714481  0.60015366  0.52900425  1  3.010192  0  0.720471  1.30139  0  6.740412  0
Cl  Cl166  1  0.25714220  0.89984688  0.97099457  1  2.993855  0  0.720465  1.301526  0  6.740091  0
Cl  Cl167  1  0.24285629  0.39984722  0.02900501  1  2.993589  0  0.720315  1.301245  0  6.740157  0
Cl  Cl168  1  0.25714127  0.89984528  0.52900589  1  2.993876  0  0.720547  1.301583  0  6.739983  0
Cl  Cl169  1  0.24285597  0.39984672  0.47099490  1  2.993565  0  0.72034  1.301241  0  6.740145  0
Cl  Cl170  1  0.74285608  0.10015280  0.02900498  1  3.010011  0  0.720331  1.301278  0  6.740156  0
Cl  Cl171  1  0.75714198  0.60015385  0.97099454  1  2.993855  0  0.720458  1.301528  0  6.739946  0
Cl  Cl172  1  0.94354447  0.41138462  0.24999948  1  2.987267  0  0.70909  1.271597  0  6.765049  0
Cl  Cl173  1  0.55645498  0.91138195  0.75000028  1  2.987391  0  0.709148  1.271561  0  6.765085  0
Cl  Cl174  1  0.05645381  0.58861856  0.75000047  1  2.987157  0  0.709199  1.271589  0  6.765083  0
Cl  Cl175  1  0.44354580  0.08861703  0.24999967  1  2.987217  0  0.709123  1.271556  0  6.765067  0
O  O176  1  0.71884617  0.65153454  0.35923383  1  -1.2427  0  -0.330094  -0.483066  0  2.188195  0
O  O177  1  0.78115442  0.15153507  0.64076600  1  -1.242706  0  -0.330072  -0.48304  0  2.188198  0
O  O178  1  0.28115381  0.34846455  0.85923333  1  -1.242771  0  -0.330137  -0.483095  0  2.188322  0
O  O179  1  0.21884840  0.84847010  0.14076715  1  -1.242688  0  -0.330085  -0.483015  0  2.188461  0
O  O180  1  0.28115461  0.34846444  0.64076572  1  -1.242733  0  -0.330087  -0.483077  0  2.188189  0
O  O181  1  0.21884636  0.84846601  0.35923476  1  -1.242735  0  -0.33006  -0.48301  0  2.188225  0
O  O182  1  0.71884947  0.65153094  0.14076582  1  -1.242755  0  -0.330132  -0.483086  0  2.18835  0
O  O183  1  0.78115613  0.15153587  0.85923280  1  -1.242732  0  -0.330106  -0.483077  0  2.188322  0
O  O184  1  0.90687818  0.14253429  0.48094244  1  -0.969783  0  -0.315441  -0.523319  0  2.181739  0
O  O185  1  0.59312365  0.64253427  0.51905740  1  -0.969797  0  -0.315422  -0.523271  0  2.181699  0
O  O186  1  0.09312357  0.85746554  0.98094296  1  -0.969767  0  -0.31543  -0.52332  0  2.181726  0
O  O187  1  0.40687740  0.35746596  0.01905750  1  -0.969726  0  -0.315433  -0.523311  0  2.181743  0
O  O188  1  0.09312135  0.85746470  0.51905711  1  -0.96978  0  -0.315413  -0.523312  0  2.181724  0
O  O189  1  0.40687712  0.35746541  0.48094295  1  -0.969724  0  -0.31543  -0.523289  0  2.181633  0
O  O190  1  0.90687471  0.14253484  0.01905739  1  -0.969745  0  -0.315415  -0.523276  0  2.181704  0
O  O191  1  0.59312212  0.64253442  0.98094285  1  -0.969766  0  -0.315411  -0.52331  0  2.181707  0
O  O192  1  0.73191630  0.06908681  0.41542488  1  -0.961414  0  -0.307966  -0.476623  0  2.089326  0
O  O193  1  0.76809301  0.56908786  0.58457389  1  -0.961415  0  -0.308045  -0.4767  0  2.089567  0
O  O194  1  0.26808017  0.93091407  0.91542494  1  -0.961381  0  -0.308017  -0.476712  0  2.089375  0
O  O195  1  0.23191583  0.43091271  0.08457458  1  -0.961369  0  -0.307917  -0.476531  0  2.089334  0
O  O196  1  0.26808072  0.93091217  0.58457507  1  -0.961389  0  -0.307974  -0.476634  0  2.089331  0
O  O197  1  0.23191403  0.43091252  0.41542526  1  -0.96136  0  -0.307943  -0.476577  0  2.089376  0
O  O198  1  0.73191436  0.06908771  0.08457501  1  -0.961342  0  -0.307941  -0.476589  0  2.089381  0
O  O199  1  0.76807869  0.56908697  0.91542497  1  -0.961363  0  -0.308024  -0.476716  0  2.089341  0
O  O200  1  0.61344187  0.17255278  0.48088280  1  -0.951384  0  -0.330868  -0.55045  0  2.27872  0
O  O201  1  0.88656123  0.67255211  0.51911337  1  -0.967619  0  -0.330815  -0.550408  0  2.278799  0
O  O202  1  0.38655987  0.82744774  0.98088269  1  -0.951384  0  -0.330879  -0.550525  0  2.278705  0
O  O203  1  0.11343858  0.32744882  0.01911541  1  -0.951139  0  -0.330843  -0.550416  0  2.278662  0
O  O204  1  0.38655765  0.82744620  0.51911796  1  -0.951413  0  -0.330854  -0.550469  0  2.278704  0
O  O205  1  0.11343955  0.32744827  0.48088457  1  -0.951137  0  -0.330824  -0.550391  0  2.278752  0
O  O206  1  0.61343715  0.17255054  0.01911445  1  -0.967574  0  -0.330835  -0.550402  0  2.278707  0
O  O207  1  0.88655844  0.67255296  0.98088253  1  -0.951372  0  -0.33087  -0.550521  0  2.278715  0
O  O208  1  0.71533670  0.02269920  0.50792853  1  -1.014555  0  -0.312723  -0.511668  0  2.201716  0
O  O209  1  0.78466133  0.52269866  0.49207032  1  -1.014586  0  -0.312703  -0.511593  0  2.201769  0
O  O210  1  0.28466431  0.97730110  0.00792867  1  -1.014572  0  -0.312658  -0.511576  0  2.201747  0
O  O211  1  0.21533796  0.47730251  0.99207077  1  -1.014585  0  -0.312642  -0.511571  0  2.201754  0
O  O212  1  0.28466408  0.97729909  0.49207102  1  -1.014512  0  -0.312825  -0.51177  0  2.201708  0
O  O213  1  0.21533820  0.47730172  0.50792882  1  -1.014563  0  -0.312663  -0.511565  0  2.201777  0
O  O214  1  0.71533897  0.02269718  0.99207128  1  -1.014579  0  -0.312661  -0.5116  0  2.201713  0
O  O215  1  0.78466407  0.52269927  0.00792878  1  -1.014554  0  -0.312676  -0.511591  0  2.201621  0
O  O216  1  0.81716222  0.33752804  0.24999952  1  -1.012441  0  -0.310181  -0.495242  0  2.094815  0
O  O217  1  0.68284096  0.83752749  0.75000037  1  -1.012514  0  -0.310179  -0.495247  0  2.094732  0
O  O218  1  0.18283356  0.66247653  0.75000083  1  -1.012413  0  -0.310218  -0.495212  0  2.094654  0
O  O219  1  0.31716357  0.16247429  0.24999797  1  -1.012428  0  -0.310192  -0.495235  0  2.094689  0
O  O220  1  0.86111351  0.50336665  0.24999979  1  -0.959408  0  -0.324296  -0.527164  0  2.112822  0
O  O221  1  0.63888076  0.00336447  0.75000031  1  -0.959411  0  -0.324343  -0.527172  0  2.112915  0
O  O222  1  0.13888727  0.49663792  0.74999976  1  -0.959246  0  -0.32433  -0.52717  0  2.112937  0
O  O223  1  0.36111377  0.99663591  0.25000085  1  -0.959326  0  -0.324304  -0.527126  0  2.112849  0
O  O224  1  0.04872159  0.40318777  0.29814767  1  -0.956614  0  -0.315341  -0.490921  0  2.092343  0
O  O225  1  0.45127815  0.90318402  0.70185191  1  -0.956656  0  -0.315347  -0.490877  0  2.092348  0
O  O226  1  0.95127689  0.59681304  0.79814740  1  -0.956676  0  -0.315408  -0.490967  0  2.09248  0
O  O227  1  0.54872368  0.09681172  0.20185253  1  -0.956666  0  -0.315392  -0.49097  0  2.092491  0
O  O228  1  0.95127669  0.59681610  0.70185228  1  -0.956657  0  -0.315317  -0.490859  0  2.092365  0
O  O229  1  0.54872263  0.09681566  0.29814764  1  -0.956649  0  -0.315304  -0.490836  0  2.092354  0
O  O230  1  0.04872139  0.40318804  0.20185215  1  -0.956653  0  -0.315334  -0.490894  0  2.092388  0
O  O231  1  0.45127835  0.90318306  0.79814702  1  -0.956648  0  -0.315351  -0.490909  0  2.092513  0
