# generated using pymatgen
data_Cu3H18C33N7
_symmetry_space_group_name_H-M   'P 1'
_cell_length_a   36.36828231
_cell_length_b   36.78656824
_cell_length_c   36.77981548
_cell_angle_alpha   89.99736089
_cell_angle_beta   90.01401920
_cell_angle_gamma   90.00023533
_symmetry_Int_Tables_number   1
_chemical_formula_structural   Cu3H18C33N7
_chemical_formula_sum   'Cu12 H72 C132 N28'
_cell_volume   49206.40052266
_cell_formula_units_Z   4
loop_
 _symmetry_equiv_pos_site_id
 _symmetry_equiv_pos_as_xyz
  1  'x, y, z'
loop_
 _atom_site_type_symbol
 _atom_site_label
 _atom_site_symmetry_multiplicity
 _atom_site_fract_x
 _atom_site_fract_y
 _atom_site_fract_z
 _atom_site_occupancy
 _atom_site_pbe_bader_charge
 _atom_site_pbe_bader_spin_density
 _atom_site_pbe_cm5_charge
 _atom_site_pbe_ddec_charge
 _atom_site_pbe_ddec_spin_density
 _atom_site_pbe_ddec_sum_bond_order
 _atom_site_pbe_magmom
Cu  Cu0  1  0.87582075  0.90942262  0.84248645  1  0.545001  0  0.489718  0.207952  0  2.114933  0
Cu  Cu1  1  0.83922430  0.87383368  0.91212332  1  0.549368  0  0.488956  0.209185  0  2.104943  0
Cu  Cu2  1  0.91091804  0.83837492  0.87666776  1  0.544448  0  0.488562  0.208352  0  2.105278  0
Cu  Cu3  1  0.12559839  0.59232180  0.34066875  1  0.544542  0  0.489708  0.208389  0  2.114273  0
Cu  Cu4  1  0.16071271  0.62651663  0.41171828  1  0.54404  0  0.488874  0.208408  0  2.106676  0
Cu  Cu5  1  0.08920240  0.66215744  0.37597532  1  0.548137  0  0.489273  0.209886  0  2.105582  0
Cu  Cu6  1  0.37577559  0.09048967  0.65760854  1  0.545126  0  0.489456  0.207768  0  2.115888  0
Cu  Cu7  1  0.33924677  0.12595040  0.58788302  1  0.547101  0  0.489077  0.209044  0  2.106471  0
Cu  Cu8  1  0.41078912  0.16160028  0.62351251  1  0.548756  0  0.488988  0.208608  0  2.106442  0
Cu  Cu9  1  0.62498105  0.40827226  0.15881797  1  0.544239  0  0.489883  0.208405  0  2.114569  0
Cu  Cu10  1  0.66052888  0.37362957  0.08820132  1  0.54638  0  0.488851  0.208821  0  2.104633  0
Cu  Cu11  1  0.58902501  0.33796454  0.12392511  1  0.547212  0  0.488968  0.209208  0  2.105143  0
H  H12  1  0.82251592  0.97652624  0.82965167  1  0.096438  0  0.125381  0.119165  0  0.98228  0
H  H13  1  0.77147950  0.92770048  0.92426433  1  0.121225  0  0.125165  0.118984  0  0.981695  0
H  H14  1  0.97786937  0.82537193  0.82202149  1  0.12503  0  0.125337  0.118908  0  0.981959  0
H  H15  1  0.92972807  0.92280923  0.77594556  1  0.108251  0  0.125398  0.119142  0  0.982168  0
H  H16  1  0.82607516  0.81977684  0.97816837  1  0.100035  0  0.125091  0.119304  0  0.981173  0
H  H17  1  0.92349971  0.77179483  0.93017773  1  0.096329  0  0.125293  0.119425  0  0.982106  0
H  H18  1  0.17957149  0.52582620  0.32729280  1  0.110303  0  0.12528  0.119319  0  0.982324  0
H  H19  1  0.22771167  0.57194341  0.42472817  1  0.07265  0  0.125197  0.118889  0  0.981567  0
H  H20  1  0.02161327  0.67445542  0.32196596  1  0.120341  0  0.125078  0.118479  0  0.981764  0
H  H21  1  0.07209224  0.57922475  0.27374303  1  0.104605  0  0.12522  0.118508  0  0.982909  0
H  H22  1  0.17304629  0.67985794  0.47846522  1  0.092901  0  0.125268  0.119554  0  0.982067  0
H  H23  1  0.07624442  0.72839893  0.42983423  1  0.096199  0  0.125077  0.118867  0  0.981344  0
H  H24  1  0.32250182  0.02336859  0.67043827  1  0.098532  0  0.125128  0.118872  0  0.982287  0
H  H25  1  0.27147377  0.07213512  0.57575954  1  0.122704  0  0.125017  0.118804  0  0.981046  0
H  H26  1  0.47777565  0.17459140  0.67812868  1  0.075872  0  0.125189  0.118846  0  0.981242  0
H  H27  1  0.42967484  0.07713523  0.72418737  1  0.103568  0  0.125375  0.11968  0  0.981713  0
H  H28  1  0.32632154  0.17977210  0.52159936  1  0.096936  0  0.125156  0.119183  0  0.98114  0
H  H29  1  0.42310551  0.22838042  0.57019523  1  0.094646  0  0.125351  0.119402  0  0.9814  0
H  H30  1  0.67881838  0.47484543  0.17213670  1  0.096575  0  0.125337  0.119118  0  0.981926  0
H  H31  1  0.72772681  0.42801776  0.07541208  1  0.074606  0  0.125065  0.118374  0  0.982116  0
H  H32  1  0.52166551  0.32546012  0.17815414  1  0.120363  0  0.125251  0.119188  0  0.981734  0
H  H33  1  0.57139058  0.42143855  0.22563846  1  0.124611  0  0.125261  0.119327  0  0.981948  0
H  H34  1  0.67306807  0.32004739  0.02166693  1  0.097695  0  0.125171  0.119426  0  0.982239  0
H  H35  1  0.57628808  0.27150586  0.07029232  1  0.100461  0  0.125284  0.119224  0  0.981173  0
H  H36  1  0.66228217  0.00582624  0.86209210  1  0.092015  0  0.105972  0.109622  0  0.985867  0
H  H37  1  0.61434724  0.05394362  0.86139278  1  0.076351  0  0.10709  0.11771  0  0.992358  0
H  H38  1  0.69623469  0.13408963  0.88851889  1  0.075209  0  0.107173  0.117886  0  0.99224  0
H  H39  1  0.74421526  0.08601140  0.88896590  1  0.039138  0  0.105801  0.109503  0  0.985594  0
H  H40  1  0.25554373  0.41456342  0.38868178  1  0.069015  0  0.105878  0.109587  0  0.985358  0
H  H41  1  0.30329716  0.36626581  0.38841885  1  0.083605  0  0.107107  0.117486  0  0.992508  0
H  H42  1  0.38564154  0.44599410  0.36146187  1  0.07769  0  0.106994  0.117577  0  0.992602  0
H  H43  1  0.33793623  0.49434226  0.36197196  1  0.087238  0  0.106364  0.110131  0  0.985895  0
H  H44  1  0.16230443  0.99404799  0.63797681  1  0.093887  0  0.105957  0.109641  0  0.985601  0
H  H45  1  0.11435993  0.94592751  0.63873211  1  0.063059  0  0.107055  0.117533  0  0.992159  0
H  H46  1  0.19622424  0.86576401  0.61161606  1  0.071991  0  0.107253  0.117979  0  0.991962  0
H  H47  1  0.24421027  0.91384615  0.61113021  1  0.073874  0  0.105778  0.109093  0  0.985609  0
H  H48  1  0.80203222  0.54077167  0.06657994  1  0.070957  0  0.105228  0.108578  0  0.986797  0
H  H49  1  0.84972900  0.58907046  0.06699452  1  0.0871  0  0.106984  0.117498  0  0.993408  0
H  H50  1  0.83909081  0.59846205  0.18324801  1  0.07149  0  0.106981  0.118038  0  0.991184  0
H  H51  1  0.79118065  0.55036822  0.18287361  1  0.08635  0  0.105115  0.108379  0  0.987638  0
H  H52  1  0.00561981  0.86150213  0.66463789  1  0.075227  0  0.106089  0.110002  0  0.985495  0
H  H53  1  0.05334389  0.86171629  0.61631189  1  0.08482  0  0.107236  0.117818  0  0.99215  0
H  H54  1  0.13576353  0.88864364  0.69601280  1  0.100298  0  0.107279  0.11774  0  0.992378  0
H  H55  1  0.08808097  0.88817993  0.74438613  1  0.087088  0  0.106241  0.110039  0  0.985459  0
H  H56  1  0.49411213  0.36119140  0.33606029  1  0.074829  0  0.105785  0.10925  0  0.985627  0
H  H57  1  0.44619665  0.36160111  0.38419754  1  0.073394  0  0.107255  0.117934  0  0.992387  0
H  H58  1  0.36419457  0.38874187  0.30413758  1  0.059928  0  0.10727  0.117778  0  0.992126  0
H  H59  1  0.41207017  0.38805489  0.25595738  1  0.094598  0  0.10609  0.109526  0  0.985939  0
H  H60  1  0.94757576  0.68350281  0.20870945  1  0.07748  0  0.105209  0.108696  0  0.987772  0
H  H61  1  0.89974626  0.68288015  0.16051267  1  0.077278  0  0.107055  0.117891  0  0.991647  0
H  H62  1  0.91067156  0.56663991  0.15135808  1  0.074926  0  0.106976  0.11773  0  0.991552  0
H  H63  1  0.95869600  0.56724382  0.19937872  1  0.077631  0  0.105192  0.108402  0  0.987184  0
H  H64  1  0.50560253  0.13843457  0.83551456  1  0.075736  0  0.10596  0.109667  0  0.98565  0
H  H65  1  0.55335367  0.13817946  0.88384187  1  0.079522  0  0.107246  0.118012  0  0.991952  0
H  H66  1  0.63572599  0.11126346  0.80412649  1  0.060245  0  0.106819  0.117156  0  0.992281  0
H  H67  1  0.58801553  0.11176403  0.75575568  1  0.090418  0  0.106035  0.109654  0  0.985981  0
H  H68  1  0.81576179  0.70663667  0.05151045  1  0.077344  0  0.105301  0.10884  0  0.987533  0
H  H69  1  0.81582328  0.65883087  0.09918579  1  0.085166  0  0.106913  0.117814  0  0.992291  0
H  H70  1  0.93366463  0.65052684  0.09078302  1  0.096652  0  0.106888  0.117497  0  0.992418  0
H  H71  1  0.93362265  0.69814344  0.04292444  1  0.085476  0  0.105105  0.108522  0  0.987673  0
H  H72  1  0.38694951  0.25691419  0.41229535  1  0.069644  0  0.105877  0.109399  0  0.985957  0
H  H73  1  0.38716930  0.30471918  0.36454938  1  0.087839  0  0.107091  0.117381  0  0.991901  0
H  H74  1  0.36222965  0.38567431  0.44547893  1  0.08081  0  0.107009  0.117538  0  0.992821  0
H  H75  1  0.36225595  0.33791635  0.49326193  1  0.067683  0  0.105949  0.109886  0  0.986097  0
H  H76  1  0.63699170  0.16210419  0.99322983  1  0.066229  0  0.10592  0.109452  0  0.98629  0
H  H77  1  0.63723405  0.11435229  0.94544197  1  0.082518  0  0.107217  0.118095  0  0.991718  0
H  H78  1  0.61221115  0.19524486  0.86444818  1  0.0842  0  0.107052  0.117571  0  0.992323  0
H  H79  1  0.61222754  0.24304732  0.91219504  1  0.071819  0  0.106022  0.109707  0  0.985862  0
H  H80  1  0.11220833  0.75681883  0.58798956  1  0.069661  0  0.106028  0.109805  0  0.985743  0
H  H81  1  0.11222638  0.80462265  0.63572880  1  0.080536  0  0.107122  0.117883  0  0.992629  0
H  H82  1  0.13721107  0.88549071  0.55471482  1  0.086867  0  0.107128  0.117817  0  0.991413  0
H  H83  1  0.13694500  0.83773038  0.50692848  1  0.070091  0  0.105811  0.109238  0  0.986078  0
C  C84  1  0.81474495  0.95999081  0.85281825  1  0.44582  0  0.014226  -0.049548  0  3.929862  0
C  C85  1  0.78486563  0.96421521  0.87681066  1  0.096956  0  -0.029347  0.048941  0  4.198324  0
C  C86  1  0.78856810  0.93491667  0.90121188  1  0.399768  0  0.014721  -0.048999  0  3.927809  0
C  C87  1  0.96151360  0.84914117  0.81550529  1  0.41478  0  0.014173  -0.049036  0  3.92888  0
C  C88  1  0.96583540  0.87413318  0.78679519  1  0.136782  0  -0.029627  0.048846  0  4.198674  0
C  C89  1  0.93681613  0.89898454  0.79183691  1  0.433497  0  0.014194  -0.049271  0  3.930201  0
C  C90  1  0.84980926  0.81266968  0.96180474  1  0.459777  0  0.014649  -0.050184  0  3.926493  0
C  C91  1  0.87473270  0.78365035  0.96619438  1  0.121867  0  -0.029567  0.050314  0  4.199445  0
C  C92  1  0.89978555  0.78817499  0.93730984  1  0.438843  0  0.014927  -0.050249  0  3.927576  0
C  C93  1  0.18664560  0.54171868  0.35112063  1  0.437159  0  0.014422  -0.049826  0  3.931362  0
C  C94  1  0.21568292  0.53670507  0.37597116  1  0.135316  0  -0.029498  0.049366  0  4.199698  0
C  C95  1  0.21135761  0.56542128  0.40095262  1  0.466857  0  0.014943  -0.048175  0  3.928207  0
C  C96  1  0.03861511  0.65132048  0.31482097  1  0.407827  0  0.015372  -0.048123  0  3.925991  0
C  C97  1  0.03468524  0.62668088  0.28571601  1  0.100104  0  -0.028904  0.050035  0  4.198967  0
C  C98  1  0.06438666  0.60247482  0.29018289  1  0.434262  0  0.014678  -0.048735  0  3.9259  0
C  C99  1  0.14939957  0.68703272  0.46199021  1  0.409682  0  0.01437  -0.050593  0  3.930957  0
C  C100  1  0.12458993  0.71613083  0.46624065  1  0.11866  0  -0.029824  0.048935  0  4.199321  0
C  C101  1  0.09991112  0.71196757  0.43701430  1  0.459543  0  0.014722  -0.048547  0  3.926987  0
C  C102  1  0.31474003  0.03987977  0.64724740  1  0.434988  0  0.014313  -0.049388  0  3.929954  0
C  C103  1  0.28486866  0.03562530  0.62323937  1  0.10251  0  -0.029347  0.049388  0  4.198941  0
C  C104  1  0.28855862  0.06492019  0.59882643  1  0.403298  0  0.014911  -0.049091  0  3.927544  0
C  C105  1  0.46142902  0.15081576  0.68463782  1  0.465791  0  0.014912  -0.048614  0  3.927602  0
C  C106  1  0.46576257  0.12583182  0.71335495  1  0.136364  0  -0.029916  0.049021  0  4.198997  0
C  C107  1  0.43674252  0.10097299  0.70831077  1  0.436483  0  0.013979  -0.050785  0  3.930753  0
C  C108  1  0.34998726  0.18694223  0.53804717  1  0.432199  0  0.014208  -0.049493  0  3.928297  0
C  C109  1  0.37465237  0.21617029  0.53389797  1  0.115871  0  -0.029757  0.048585  0  4.200347  0
C  C110  1  0.39946522  0.21191254  0.56300423  1  0.405049  0  0.014596  -0.049717  0  3.928637  0
C  C111  1  0.68614859  0.45872898  0.14854282  1  0.450238  0  0.014277  -0.049753  0  3.927946  0
C  C112  1  0.71537304  0.46360490  0.12385931  1  0.16004  0  -0.028465  0.050866  0  4.200738  0
C  C113  1  0.71110239  0.43481240  0.09892057  1  0.444883  0  0.015164  -0.048145  0  3.92606  0
C  C114  1  0.53841394  0.34886027  0.18503315  1  0.400421  0  0.014298  -0.049882  0  3.928686  0
C  C115  1  0.53443802  0.37355325  0.21405321  1  0.099182  0  -0.029288  0.049667  0  4.19922  0
C  C116  1  0.56392801  0.39794487  0.20942590  1  0.419728  0  0.014491  -0.049712  0  3.929413  0
C  C117  1  0.64942193  0.31287868  0.03813229  1  0.40722  0  0.0147  -0.050314  0  3.930894  0
C  C118  1  0.62464964  0.28374065  0.03391655  1  0.117395  0  -0.029552  0.049301  0  4.199858  0
C  C119  1  0.59994146  0.28794881  0.06310152  1  0.448069  0  0.014468  -0.049526  0  3.927882  0
C  C120  1  0.70667085  0.04248612  0.87559485  1  0.135702  0  -0.011914  0.121734  0  4.134923  0
C  C121  1  0.66966272  0.03399942  0.86766574  1  -0.134499  0  -0.085618  -0.111595  0  3.97258  0
C  C122  1  0.64285317  0.06086382  0.86734948  1  -0.027283  0  -0.097594  -0.178805  0  4.019275  0
C  C123  1  0.65212593  0.09718021  0.87493137  1  0.357778  0  0.092428  0.180077  0  4.047655  0
C  C124  1  0.68889402  0.10593957  0.88282019  1  -0.031575  0  -0.098278  -0.179603  0  4.017209  0
C  C125  1  0.71567882  0.07905423  0.88315248  1  0.028247  0  -0.085177  -0.111024  0  3.970729  0
C  C126  1  0.73405124  0.01506609  0.87599799  1  -0.118388  0  -0.059841  -0.130116  0  4.164579  0
C  C127  1  0.75763235  0.99143925  0.87641844  1  -0.2391  0  -0.060681  -0.10884  0  4.187048  0
C  C128  1  0.29333435  0.45790593  0.37538663  1  0.074949  0  -0.011929  0.123695  0  4.13302  0
C  C129  1  0.28412771  0.42139263  0.38295111  1  -0.022937  0  -0.085193  -0.11239  0  3.972239  0
C  C130  1  0.31078244  0.39437763  0.38271622  1  -0.013597  0  -0.09796  -0.178228  0  4.016966  0
C  C131  1  0.34761500  0.40295278  0.37492009  1  0.305764  0  0.092048  0.180573  0  4.046402  0
C  C132  1  0.35708451  0.43921843  0.36733583  1  0.035281  0  -0.097556  -0.178447  0  4.019656  0
C  C133  1  0.33040613  0.46620816  0.36754543  1  -0.090419  0  -0.085947  -0.113324  0  3.973559  0
C  C134  1  0.26611318  0.48548771  0.37564285  1  -0.104108  0  -0.059735  -0.131251  0  4.16444  0
C  C135  1  0.24271656  0.50929183  0.37581875  1  -0.313199  0  -0.060968  -0.108686  0  4.188284  0
C  C136  1  0.20667111  0.95737204  0.62448342  1  0.086999  0  -0.011869  0.121368  0  4.137833  0
C  C137  1  0.16967493  0.96586833  0.63243110  1  -0.079696  0  -0.08557  -0.111754  0  3.972687  0
C  C138  1  0.14286550  0.93900715  0.63278255  1  -0.018263  0  -0.097619  -0.178751  0  4.018699  0
C  C139  1  0.15213335  0.90268788  0.62520656  1  0.297204  0  0.092497  0.181475  0  4.047073  0
C  C140  1  0.18889472  0.89391920  0.61730616  1  0.021585  0  -0.098366  -0.180138  0  4.017536  0
C  C141  1  0.21567802  0.92080186  0.61694953  1  -0.000567  0  -0.085422  -0.110648  0  3.972034  0
C  C142  1  0.23405273  0.98478833  0.62404969  1  0.006811  0  -0.059529  -0.129849  0  4.166535  0
C  C143  1  0.25765037  0.00839794  0.62364187  1  -0.367755  0  -0.06082  -0.109024  0  4.187918  0
C  C144  1  0.79314386  0.54208980  0.12468701  1  0.157278  0  -0.011949  0.12268  0  4.138468  0
C  C145  1  0.81004901  0.55362066  0.09208074  1  -0.120016  0  -0.086877  -0.114021  0  3.974586  0
C  C146  1  0.83677376  0.58054654  0.09230866  1  -0.000337  0  -0.098081  -0.177818  0  4.021027  0
C  C147  1  0.84758817  0.59695118  0.12514874  1  0.409807  0  0.091237  0.177341  0  4.047564  0
C  C148  1  0.83093406  0.58568510  0.15775696  1  -0.12488  0  -0.09838  -0.179355  0  4.021463  0
C  C149  1  0.80421371  0.55874427  0.15753828  1  0.01432  0  -0.086415  -0.113155  0  3.974338  0
C  C150  1  0.76591209  0.51463328  0.12441523  1  -0.110493  0  -0.057865  -0.126506  0  4.16506  0
C  C151  1  0.74244149  0.49088336  0.12412100  1  -0.318231  0  -0.060477  -0.109671  0  4.188411  0
C  C152  1  0.04345288  0.87479309  0.70796521  1  0.081145  0  -0.011608  0.123725  0  4.13506  0
C  C153  1  0.03421541  0.86720422  0.67145545  1  -0.028571  0  -0.085705  -0.113361  0  3.973032  0
C  C154  1  0.06085301  0.86741210  0.64442517  1  -0.011891  0  -0.097884  -0.178153  0  4.017588  0
C  C155  1  0.09769372  0.87519935  0.65298261  1  0.31191  0  0.092266  0.180048  0  4.04769  0
C  C156  1  0.10719322  0.88281460  0.68924528  1  0.002096  0  -0.097796  -0.178096  0  4.019802  0
C  C157  1  0.08052895  0.88262684  0.71624782  1  -0.093627  0  -0.085822  -0.113121  0  3.974668  0
C  C158  1  0.01625464  0.87452676  0.73556743  1  -0.10952  0  -0.059805  -0.130621  0  4.164087  0
C  C159  1  0.99286041  0.87430736  0.75937049  1  -0.307179  0  -0.061053  -0.109203  0  4.186863  0
C  C160  1  0.45650709  0.37456452  0.29257318  1  0.086606  0  -0.01199  0.121039  0  4.137947  0
C  C161  1  0.46556691  0.36699731  0.32913380  1  0.00087  0  -0.084833  -0.110237  0  3.970629  0
C  C162  1  0.43881574  0.36731164  0.35605229  1  0.020811  0  -0.098456  -0.180048  0  4.016509  0
C  C163  1  0.40203442  0.37520810  0.34733927  1  0.302063  0  0.092433  0.181197  0  4.047239  0
C  C164  1  0.39271449  0.38280575  0.31102682  1  -0.026863  0  -0.097705  -0.178804  0  4.017545  0
C  C165  1  0.41949150  0.38249740  0.28412927  1  -0.077485  0  -0.085694  -0.111572  0  3.971901  0
C  C166  1  0.48382109  0.37417519  0.26509010  1  0.042395  0  -0.059826  -0.129595  0  4.166169  0
C  C167  1  0.50730412  0.37384800  0.24136966  1  -0.405126  0  -0.060772  -0.109278  0  4.187813  0
C  C168  1  0.95660053  0.62542909  0.20749754  1  0.040422  0  -0.011777  0.122156  0  4.13629  0
C  C169  1  0.93957823  0.65796378  0.19593216  1  0.02574  0  -0.086211  -0.113147  0  3.972752  0
C  C170  1  0.91278714  0.65761272  0.16906111  1  -0.029608  0  -0.098677  -0.179135  0  4.019043  0
C  C171  1  0.90204000  0.62471255  0.15274109  1  0.33468  0  0.091487  0.177631  0  4.048804  0
C  C172  1  0.91880492  0.59217541  0.16404622  1  -0.016984  0  -0.097757  -0.177811  0  4.020087  0
C  C173  1  0.94558446  0.59251859  0.19094309  1  -0.051003  0  -0.087111  -0.113814  0  3.97272  0
C  C174  1  0.98393029  0.62584948  0.23486517  1  0.006428  0  -0.057761  -0.125943  0  4.165917  0
C  C175  1  0.00750231  0.62626675  0.25852568  1  -0.37091  0  -0.060369  -0.109644  0  4.188392  0
C  C176  1  0.54341065  0.12513677  0.79218752  1  0.079292  0  -0.011875  0.123001  0  4.136015  0
C  C177  1  0.53419082  0.13271274  0.82870091  1  -0.023932  0  -0.085624  -0.11252  0  3.973413  0
C  C178  1  0.56084361  0.13248941  0.85572584  1  -0.013859  0  -0.097535  -0.178084  0  4.016839  0
C  C179  1  0.59767974  0.12469690  0.84716336  1  0.308438  0  0.09168  0.178648  0  4.048001  0
C  C180  1  0.60716244  0.11710842  0.81089799  1  0.042192  0  -0.097276  -0.177428  0  4.01816  0
C  C181  1  0.58047940  0.11730131  0.78389617  1  -0.089926  0  -0.085584  -0.112476  0  3.973403  0
C  C182  1  0.51619553  0.12542805  0.76459069  1  -0.117485  0  -0.059726  -0.130272  0  4.164831  0
C  C183  1  0.49279730  0.12566639  0.74077964  1  -0.297039  0  -0.060656  -0.108946  0  4.187577  0
C  C184  1  0.87468519  0.70582027  0.04377113  1  0.073338  0  -0.01211  0.122455  0  4.137517  0
C  C185  1  0.84153139  0.69412118  0.06001710  1  0.044322  0  -0.086403  -0.113536  0  3.974563  0
C  C186  1  0.84156556  0.66746807  0.08672738  1  -0.052003  0  -0.09807  -0.178909  0  4.019733  0
C  C187  1  0.87474506  0.65149819  0.09814686  1  0.309893  0  0.091186  0.177691  0  4.045974  0
C  C188  1  0.90789310  0.66292436  0.08212711  1  -0.091423  0  -0.098229  -0.178292  0  4.019363  0
C  C189  1  0.90786937  0.68960573  0.05544294  1  -0.013747  0  -0.086341  -0.113563  0  3.973988  0
C  C190  1  0.87465870  0.73303908  0.01660106  1  -0.061793  0  -0.057904  -0.126346  0  4.165075  0
C  C191  1  0.87466680  0.75655034  0.99314799  1  -0.326267  0  -0.060222  -0.109482  0  4.189101  0
C  C192  1  0.37457827  0.29401958  0.45617506  1  0.109084  0  -0.011612  0.123013  0  4.134203  0
C  C193  1  0.38174605  0.28519066  0.41949271  1  0.031363  0  -0.085312  -0.112071  0  3.971697  0
C  C194  1  0.38178750  0.31187448  0.39280012  1  -0.070426  0  -0.097777  -0.17765  0  4.01712  0
C  C195  1  0.37470869  0.34833459  0.40187386  1  0.33912  0  0.092207  0.179799  0  4.046857  0
C  C196  1  0.36757197  0.35741959  0.43832266  1  -0.070929  0  -0.098029  -0.178778  0  4.018481  0
C  C197  1  0.36748983  0.33071347  0.46498833  1  -0.032522  0  -0.085235  -0.11219  0  3.973587  0
C  C198  1  0.37453850  0.26677875  0.48342994  1  -0.035276  0  -0.059849  -0.130602  0  4.165667  0
C  C199  1  0.37457363  0.24329041  0.50688015  1  -0.338637  0  -0.060726  -0.10837  0  4.189356  0
C  C200  1  0.62459398  0.20597154  0.95610750  1  0.11014  0  -0.012115  0.121976  0  4.136356  0
C  C201  1  0.63178243  0.16929602  0.96494497  1  0.032715  0  -0.085232  -0.111325  0  3.973221  0
C  C202  1  0.63183690  0.14259514  0.93827380  1  -0.075442  0  -0.097828  -0.178433  0  4.019228  0
C  C203  1  0.62472958  0.15166049  0.90180788  1  0.399221  0  0.091812  0.177636  0  4.049908  0
C  C204  1  0.61755349  0.18809979  0.89271376  1  -0.133441  0  -0.097636  -0.178044  0  4.018197  0
C  C205  1  0.61747593  0.21478000  0.91940722  1  -0.026161  0  -0.085394  -0.111826  0  3.973184  0
C  C206  1  0.62456069  0.23322017  0.98335097  1  -0.04339  0  -0.059549  -0.129574  0  4.166481  0
C  C207  1  0.62458999  0.25668176  0.00682993  1  -0.332813  0  -0.060863  -0.109159  0  4.18969  0
C  C208  1  0.12454282  0.79388154  0.54406313  1  0.173392  0  -0.012068  0.122679  0  4.134602  0
C  C209  1  0.11745810  0.78508256  0.58076822  1  -0.025803  0  -0.085166  -0.112065  0  3.972936  0
C  C210  1  0.11756202  0.81176142  0.60746281  1  -0.138452  0  -0.098229  -0.179302  0  4.019504  0
C  C211  1  0.12472508  0.84819558  0.59835928  1  0.400405  0  0.092319  0.179895  0  4.048705  0
C  C212  1  0.13180237  0.85725307  0.56188691  1  -0.073402  0  -0.098078  -0.178645  0  4.017273  0
C  C213  1  0.13173420  0.83055274  0.53521272  1  -0.030719  0  -0.08476  -0.111262  0  3.971215  0
C  C214  1  0.12448949  0.76662339  0.51682834  1  -0.039821  0  -0.059514  -0.130013  0  4.166064  0
C  C215  1  0.12451732  0.74316471  0.49335036  1  -0.336931  0  -0.061022  -0.10915  0  4.189264  0
N  N216  1  0.37477678  0.37549224  0.37470573  1  -1.205891  0  -0.256106  -0.161559  0  3.69305  0
N  N217  1  0.62482831  0.12450592  0.87464327  1  -1.205544  0  -0.255682  -0.158992  0  3.692831  0
N  N218  1  0.87478475  0.62437997  0.12535526  1  -1.251827  0  -0.255649  -0.158506  0  3.693325  0
N  N219  1  0.12483532  0.87536511  0.62551062  1  -1.208523  0  -0.256091  -0.161013  0  3.692713  0
N  N220  1  0.81829878  0.91500655  0.89232045  1  -0.769431  0  -0.336046  -0.140333  0  3.775886  0
N  N221  1  0.83449149  0.93054183  0.86232100  1  -0.783851  0  -0.336971  -0.139566  0  3.779986  0
N  N222  1  0.91695857  0.88939810  0.82118443  1  -0.785103  0  -0.336441  -0.139424  0  3.779778  0
N  N223  1  0.93223737  0.85850444  0.83585053  1  -0.774956  0  -0.336049  -0.14043  0  3.776046  0
N  N224  1  0.89037961  0.81749269  0.91748763  1  -0.790208  0  -0.335505  -0.138578  0  3.774491  0
N  N225  1  0.85942091  0.83269369  0.93269032  1  -0.796875  0  -0.335354  -0.139233  0  3.776107  0
N  N226  1  0.18207188  0.58575042  0.39157351  1  -0.775635  0  -0.336275  -0.140384  0  3.777814  0
N  N227  1  0.16678601  0.57107103  0.36068537  1  -0.787741  0  -0.336984  -0.140412  0  3.780973  0
N  N228  1  0.08422269  0.61208834  0.31953468  1  -0.780622  0  -0.336748  -0.139759  0  3.778591  0
N  N229  1  0.06825042  0.64233807  0.33482402  1  -0.769162  0  -0.336218  -0.140647  0  3.776539  0
N  N230  1  0.10941113  0.68273141  0.41710713  1  -0.787493  0  -0.336482  -0.141262  0  3.776138  0
N  N231  1  0.14010614  0.66729100  0.43257502  1  -0.765609  0  -0.335681  -0.138609  0  3.775234  0
N  N232  1  0.31827590  0.08484461  0.60773205  1  -0.769159  0  -0.336054  -0.139911  0  3.775771  0
N  N233  1  0.33446992  0.06933719  0.63774990  1  -0.779715  0  -0.33733  -0.140246  0  3.781313  0
N  N234  1  0.41688773  0.11054364  0.67894679  1  -0.785517  0  -0.336825  -0.139854  0  3.780752  0
N  N235  1  0.43215725  0.14143767  0.66428349  1  -0.774041  0  -0.336224  -0.139873  0  3.775719  0
N  N236  1  0.39018290  0.18249143  0.58273677  1  -0.773647  0  -0.336206  -0.139366  0  3.775508  0
N  N237  1  0.35949227  0.16703062  0.56728479  1  -0.755996  0  -0.336287  -0.140754  0  3.776842  0
N  N238  1  0.68171722  0.41458559  0.10817772  1  -0.7739  0  -0.33555  -0.139809  0  3.775551  0
N  N239  1  0.66625046  0.42943397  0.13890451  1  -0.785857  0  -0.336849  -0.139743  0  3.779712  0
N  N240  1  0.58370781  0.38839335  0.18001333  1  -0.781571  0  -0.337088  -0.140301  0  3.780167  0
N  N241  1  0.56792605  0.35796516  0.16490529  1  -0.763537  0  -0.335819  -0.139845  0  3.775148  0
N  N242  1  0.60938625  0.31724463  0.08294997  1  -0.783537  0  -0.336583  -0.140556  0  3.775472  0
N  N243  1  0.64007907  0.33268416  0.06748662  1  -0.766483  0  -0.335923  -0.139233  0  3.774207  0
