# generated using pymatgen
data_AgH10C12N5O3F4
_symmetry_space_group_name_H-M   'P 1'
_cell_length_a   7.70675939
_cell_length_b   12.53654568
_cell_length_c   16.23777089
_cell_angle_alpha   87.27834526
_cell_angle_beta   76.72587124
_cell_angle_gamma   78.06495578
_symmetry_Int_Tables_number   1
_chemical_formula_structural   AgH10C12N5O3F4
_chemical_formula_sum   'Ag4 H40 C48 N20 O12 F16'
_cell_volume   1493.90793655
_cell_formula_units_Z   4
loop_
 _symmetry_equiv_pos_site_id
 _symmetry_equiv_pos_as_xyz
  1  'x, y, z'
loop_
 _atom_site_type_symbol
 _atom_site_label
 _atom_site_symmetry_multiplicity
 _atom_site_fract_x
 _atom_site_fract_y
 _atom_site_fract_z
 _atom_site_occupancy
 _atom_site_hle17_bader_spin_density
 _atom_site_hle17_ddec_charge
 _atom_site_hle17_ddec_spin_density
 _atom_site_hle17_ddec_sum_bond_order
 _atom_site_hle17_magmom
 _atom_site_hse06_10hf_bader_spin_density
 _atom_site_hse06_10hf_ddec_charge
 _atom_site_hse06_10hf_ddec_spin_density
 _atom_site_hse06_10hf_ddec_sum_bond_order
 _atom_site_hse06_10hf_magmom
 _atom_site_hse06_bader_spin_density
 _atom_site_hse06_ddec_charge
 _atom_site_hse06_ddec_spin_density
 _atom_site_hse06_ddec_sum_bond_order
 _atom_site_hse06_magmom
 _atom_site_pbe_bader_charge
 _atom_site_pbe_bader_spin_density
 _atom_site_pbe_cm5_charge
 _atom_site_pbe_ddec_charge
 _atom_site_pbe_ddec_spin_density
 _atom_site_pbe_ddec_sum_bond_order
 _atom_site_pbe_magmom
Ag  Ag0  1  0.77742409  0.46230010  0.99661476  1  0  0.532829  0  1.447234  0  0  0.381356  0  1.896963  0  0  0.413154  0  1.847839  0  0.587641  0  0.472299  0.359548  0  1.931031  0
Ag  Ag1  1  0.22554915  0.03788419  0.99663697  1  0  0.533557  0  1.448102  0  0  0.381813  0  1.898031  0  0  0.413587  0  1.848862  0  0.586488  0  0.473404  0.360004  0  1.932124  0
Ag  Ag2  1  0.22257509  0.53770078  0.00338420  1  0  0.532812  0  1.447267  0  0  0.381328  0  1.897001  0  0  0.413128  0  1.847878  0  0.587631  0  0.47229  0.359513  0  1.931063  0
Ag  Ag3  1  0.77444605  0.96211588  0.00336491  1  0  0.533535  0  1.44802  0  0  0.381791  0  1.897932  0  0  0.413568  0  1.848762  0  0.586478  0  0.473379  0.359979  0  1.932025  0
H  H4  1  0.72547780  0.64073498  0.09701189  1  0  0.333359  0  0.906668  0  0  0.310584  0  0.983305  0  0  0.319516  0  0.974134  0  0.502196  0  0.30013  0.304076  0  0.990024  0
H  H5  1  0.17753950  0.85932708  0.09731893  1  0  0.333042  0  0.908035  0  0  0.310482  0  0.984226  0  0  0.319428  0  0.97504  0  0.493173  0  0.300462  0.30401  0  0.990876  0
H  H6  1  0.27452010  0.35926427  0.90298891  1  0  0.333397  0  0.906645  0  0  0.310621  0  0.983281  0  0  0.319552  0  0.974112  0  0.50221  0  0.300133  0.304113  0  0.99  0
H  H7  1  0.82245507  0.14067135  0.90268279  1  0  0.332993  0  0.908064  0  0  0.310419  0  0.984296  0  0  0.319365  0  0.975109  0  0.493143  0  0.300415  0.303946  0  0.990945  0
H  H8  1  0.72902525  0.77801390  0.09997936  1  0  0.337303  0  0.910574  0  0  0.316373  0  0.980734  0  0  0.325143  0  0.972639  0  0.516767  0  0.2988  0.310056  0  0.986595  0
H  H9  1  0.17138838  0.72206528  0.09995596  1  0  0.336749  0  0.912172  0  0  0.315988  0  0.981531  0  0  0.32474  0  0.973537  0  0.519084  0  0.29858  0.309662  0  0.98738  0
H  H10  1  0.27097265  0.22198535  0.90002144  1  0  0.337364  0  0.910517  0  0  0.316437  0  0.980663  0  0  0.325208  0  0.972561  0  0.516766  0  0.298825  0.31012  0  0.986523  0
H  H11  1  0.82860806  0.27793479  0.90004469  1  0  0.336746  0  0.91215  0  0  0.315979  0  0.98152  0  0  0.324731  0  0.973525  0  0.519107  0  0.298582  0.309653  0  0.987369  0
H  H12  1  0.87094914  0.88635402  0.82591182  1  0  0.096724  0  0.938285  0  0  0.09888  0  1.014231  0  0  0.102674  0  1.008384  0  0.160094  0  0.117986  0.096002  0  1.018517  0
H  H13  1  0.30377272  0.61323272  0.82573054  1  0  0.09625  0  0.940264  0  0  0.09815  0  1.01691  0  0  0.101968  0  1.010992  0  0.153185  0  0.117075  0.095262  0  1.021194  0
H  H14  1  0.12905641  0.11364360  0.17408991  1  0  0.096946  0  0.937922  0  0  0.098908  0  1.014173  0  0  0.102703  0  1.008323  0  0.160076  0  0.117991  0.096027  0  1.01846  0
H  H15  1  0.69622592  0.38676979  0.17426842  1  0  0.096241  0  0.940383  0  0  0.09817  0  1.016974  0  0  0.101988  0  1.011058  0  0.15324  0  0.117083  0.095281  0  1.021262  0
H  H16  1  0.87661338  0.54158239  0.82111845  1  0  0.099986  0  0.934032  0  0  0.106224  0  1.000862  0  0  0.109832  0  0.995639  0  0.155524  0  0.121387  0.103428  0  1.004825  0
H  H17  1  0.30181987  0.95809404  0.82142749  1  0  0.101333  0  0.932481  0  0  0.107687  0  0.999042  0  0  0.111343  0  0.993789  0  0.158478  0  0.121674  0.104791  0  1.0031  0
H  H18  1  0.12339757  0.45841686  0.17888267  1  0  0.099981  0  0.934017  0  0  0.106197  0  1.00088  0  0  0.109808  0  0.995649  0  0.155518  0  0.121398  0.103398  0  1.004852  0
H  H19  1  0.69817251  0.04191092  0.17857423  1  0  0.101444  0  0.932348  0  0  0.107635  0  0.99911  0  0  0.111304  0  0.993839  0  0.158517  0  0.121658  0.10474  0  1.003166  0
H  H20  1  0.91918028  0.82694938  0.37030539  1  0  0.087657  0  0.941191  0  0  0.104332  0  1.010327  0  0  0.104888  0  1.00984  0  0.05375  0  0.091555  0.103872  0  1.010706  0
H  H21  1  0.71057077  0.67342739  0.37133175  1  0  0.088241  0  0.9404  0  0  0.104387  0  1.01009  0  0  0.104956  0  1.009581  0  0.00908  0  0.091131  0.10391  0  1.010462  0
H  H22  1  0.08081998  0.17304987  0.62969572  1  0  0.087743  0  0.941376  0  0  0.104481  0  1.010381  0  0  0.105037  0  1.009892  0  0.053774  0  0.091651  0.104021  0  1.010758  0
H  H23  1  0.28942676  0.32656942  0.62866890  1  0  0.088147  0  0.940444  0  0  0.104312  0  1.010132  0  0  0.104882  0  1.009623  0  0.009095  0  0.091108  0.103837  0  1.010497  0
H  H24  1  0.16039588  0.79664170  0.33471274  1  0  0.110774  0  0.937932  0  0  0.130289  0  1.000392  0  0  0.130814  0  1.000382  0  0.097246  0  0.104744  0.129795  0  1.000508  0
H  H25  1  0.50555122  0.70328176  0.33428994  1  0  0.110661  0  0.938313  0  0  0.12933  0  1.001988  0  0  0.129839  0  1.001985  0  0.076504  0  0.104249  0.128827  0  1.002138  0
H  H26  1  0.83960455  0.20336081  0.66528576  1  0  0.110826  0  0.937873  0  0  0.130336  0  1.000351  0  0  0.130847  0  1.000362  0  0.097253  0  0.104744  0.129843  0  1.000465  0
H  H27  1  0.49444565  0.29671178  0.66570979  1  0  0.110672  0  0.938174  0  0  0.129326  0  1.00188  0  0  0.129835  0  1.001877  0  0.076461  0  0.104257  0.128822  0  1.002029  0
H  H28  1  0.05806834  0.87998170  0.42552112  1  0  0.108379  0  0.952847  0  0  0.119859  0  1.026018  0  0  0.121727  0  1.024041  0  0.091737  0  0.098868  0.118412  0  1.027552  0
H  H29  1  0.51775317  0.62004205  0.42529902  1  0  0.107865  0  0.953181  0  0  0.119717  0  1.025729  0  0  0.121567  0  1.023768  0  0.094531  0  0.098341  0.118257  0  1.027261  0
H  H30  1  0.94193361  0.12002163  0.57447692  1  0  0.108271  0  0.952916  0  0  0.119813  0  1.026006  0  0  0.121679  0  1.024028  0  0.091776  0  0.098853  0.118368  0  1.027537  0
H  H31  1  0.48224464  0.37995395  0.57470163  1  0  0.107842  0  0.953123  0  0  0.119676  0  1.025682  0  0  0.121524  0  1.023725  0  0.094611  0  0.098332  0.118213  0  1.02722  0
H  H32  1  0.25750011  0.58730561  0.36673419  1  0  0.101181  0  0.946445  0  0  0.112205  0  1.024453  0  0  0.11331  0  1.023304  0  0.069777  0  0.094115  0.111311  0  1.025377  0
H  H33  1  0.37641564  0.91306708  0.36617214  1  0  0.098548  0  0.946991  0  0  0.10979  0  1.024897  0  0  0.110883  0  1.023721  0  0.054346  0  0.092572  0.108899  0  1.025828  0
H  H34  1  0.74249772  0.41269201  0.63326723  1  0  0.101255  0  0.946491  0  0  0.112262  0  1.024509  0  0  0.113365  0  1.023363  0  0.069748  0  0.094125  0.111369  0  1.025428  0
H  H35  1  0.62358194  0.08692321  0.63382129  1  0  0.098508  0  0.946971  0  0  0.109765  0  1.024904  0  0  0.11087  0  1.023694  0  0.054545  0  0.092616  0.108873  0  1.025835  0
H  H36  1  0.03468022  0.61587916  0.34828888  1  0  0.097331  0  0.937617  0  0  0.117432  0  1.00147  0  0  0.117666  0  1.001186  0  0.052244  0  0.099052  0.117175  0  1.001713  0
H  H37  1  0.61683477  0.88401984  0.34900825  1  0  0.096142  0  0.938556  0  0  0.115841  0  1.003062  0  0  0.116067  0  1.002772  0  0.060902  0  0.098212  0.115573  0  1.003356  0
H  H38  1  0.96531649  0.38412335  0.65171469  1  0  0.097346  0  0.937676  0  0  0.117437  0  1.001546  0  0  0.117664  0  1.00127  0  0.052315  0  0.099047  0.11718  0  1.001784  0
H  H39  1  0.38315957  0.11597289  0.65098625  1  0  0.096051  0  0.938794  0  0  0.115841  0  1.003171  0  0  0.116065  0  1.002884  0  0.060817  0  0.098223  0.115575  0  1.003461  0
H  H40  1  0.07652054  0.54234550  0.44048511  1  0  0.093777  0  0.969134  0  0  0.105594  0  1.047085  0  0  0.106462  0  1.046609  0  0.065179  0  0.092071  0.104848  0  1.047595  0
H  H41  1  0.48416904  0.95766601  0.44086394  1  0  0.093348  0  0.969229  0  0  0.105258  0  1.047358  0  0  0.106131  0  1.046866  0  0.050462  0  0.092164  0.104509  0  1.047882  0
H  H42  1  0.92347591  0.45765946  0.55951923  1  0  0.093822  0  0.969037  0  0  0.10563  0  1.047006  0  0  0.106503  0  1.046523  0  0.064989  0  0.092078  0.104882  0  1.047518  0
H  H43  1  0.51582292  0.04233405  0.55912780  1  0  0.093365  0  0.969207  0  0  0.105246  0  1.047415  0  0  0.106127  0  1.046898  0  0.05047  0  0.092149  0.104496  0  1.04794  0
C  C44  1  0.80304201  0.70973806  0.98122662  1  0  0.621862  0  3.787966  0  0  0.571071  0  4.053426  0  0  0.598849  0  4.063121  0  1.516746  0  0.341895  0.552478  0  4.046395  0
C  C45  1  0.21578771  0.79017073  0.98123337  1  0  0.623894  0  3.785812  0  0  0.570949  0  4.054253  0  0  0.598824  0  4.063739  0  1.541873  0  0.342202  0.552291  0  4.047342  0
C  C46  1  0.19695893  0.29026282  0.01877327  1  0  0.621907  0  3.787872  0  0  0.571118  0  4.05332  0  0  0.598899  0  4.06301  0  1.516755  0  0.341868  0.552524  0  4.046286  0
C  C47  1  0.78420611  0.20983179  0.01876774  1  0  0.623976  0  3.785761  0  0  0.571005  0  4.054229  0  0  0.598881  0  4.063709  0  1.541851  0  0.34227  0.55235  0  4.047322  0
C  C48  1  0.85807824  0.80771582  0.85575962  1  0  0.152402  0  3.646026  0  0  0.102226  0  3.903484  0  0  0.117695  0  3.916852  0  0.451932  0  0.060902  0.092104  0  3.894528  0
C  C49  1  0.28672537  0.69191170  0.85568854  1  0  0.151342  0  3.648  0  0  0.101128  0  3.905698  0  0  0.116605  0  3.919054  0  0.47625  0  0.061533  0.091009  0  3.896762  0
C  C50  1  0.14192741  0.19228343  0.14424012  1  0  0.152357  0  3.6458  0  0  0.102169  0  3.903313  0  0  0.117633  0  3.91669  0  0.451978  0  0.060937  0.092048  0  3.894357  0
C  C51  1  0.71327142  0.30809082  0.14431226  1  0  0.151166  0  3.648311  0  0  0.101006  0  3.905919  0  0  0.116481  0  3.919278  0  0.476121  0  0.061499  0.090895  0  3.896981  0
C  C52  1  0.88253747  0.71438197  0.80701295  1  0  -0.033129  0  3.808198  0  0  -0.016233  0  4.060774  0  0  -0.027283  0  4.086452  0  0.038536  0  -0.021326  -0.009684  0  4.044109  0
C  C53  1  0.31092917  0.78517543  0.80707624  1  0  -0.032244  0  3.807677  0  0  -0.015601  0  4.06043  0  0  -0.026689  0  4.086202  0  0.006044  0  -0.021575  -0.009039  0  4.043704  0
C  C54  1  0.11747173  0.28561729  0.19298725  1  0  -0.033076  0  3.808049  0  0  -0.016095  0  4.06055  0  0  -0.02715  0  4.086239  0  0.038576  0  -0.021278  -0.009547  0  4.043884  0
C  C55  1  0.68906708  0.21482871  0.19292456  1  0  -0.032155  0  3.807539  0  0  -0.015485  0  4.060383  0  0  -0.026575  0  4.086158  0  0.006322  0  -0.02156  -0.008921  0  4.04365  0
C  C56  1  0.86330328  0.61857778  0.85291789  1  0  0.156239  0  3.642984  0  0  0.106256  0  3.898058  0  0  0.12225  0  3.909361  0  0.476432  0  0.06244  0.09571  0  3.890624  0
C  C57  1  0.28373283  0.88110599  0.85309698  1  0  0.154378  0  3.642013  0  0  0.105213  0  3.895537  0  0  0.121043  0  3.90702  0  0.489214  0  0.063087  0.094841  0  3.887962  0
C  C58  1  0.13670233  0.38142147  0.14708322  1  0  0.15627  0  3.643062  0  0  0.106314  0  3.898097  0  0  0.122311  0  3.909409  0  0.476396  0  0.06244  0.095765  0  3.890657  0
C  C59  1  0.71626037  0.11889653  0.14690474  1  0  0.154609  0  3.641719  0  0  0.105294  0  3.895608  0  0  0.121114  0  3.907085  0  0.488889  0  0.06308  0.094921  0  3.888032  0
C  C60  1  0.93093581  0.71570111  0.71443152  1  0  -0.152436  0  3.896209  0  0  -0.167429  0  4.173532  0  0  -0.172068  0  4.19835  0  0.13708  0  -0.048261  -0.164033  0  4.156887  0
C  C61  1  0.35512008  0.78391417  0.71448172  1  0  -0.152431  0  3.897372  0  0  -0.16739  0  4.174537  0  0  -0.171954  0  4.199171  0  0.175127  0  -0.04931  -0.164025  0  4.157949  0
C  C62  1  0.06907599  0.28429733  0.28557037  1  0  -0.152329  0  3.896319  0  0  -0.167493  0  4.173868  0  0  -0.172098  0  4.198602  0  0.136948  0  -0.048288  -0.164098  0  4.157216  0
C  C63  1  0.64488247  0.21609079  0.28551786  1  0  -0.152393  0  3.897174  0  0  -0.167414  0  4.174619  0  0  -0.171967  0  4.199255  0  0.175365  0  -0.049234  -0.164063  0  4.158073  0
C  C64  1  0.84929733  0.79828533  0.66602824  1  0  0.181133  0  3.80149  0  0  0.141857  0  4.11755  0  0  0.152801  0  4.125219  0  0.454414  0  0.080323  0.134194  0  4.112691  0
C  C65  1  0.48479651  0.70138702  0.66659670  1  0  0.181553  0  3.800079  0  0  0.142086  0  4.116199  0  0  0.15305  0  4.123804  0  0.421162  0  0.081764  0.134412  0  4.111392  0
C  C66  1  0.15071183  0.20171392  0.33397334  1  0  0.181188  0  3.80112  0  0  0.141751  0  4.117506  0  0  0.152692  0  4.125182  0  0.454307  0  0.080315  0.134093  0  4.11264  0
C  C67  1  0.51520452  0.29861712  0.33340334  1  0  0.181322  0  3.800334  0  0  0.142042  0  4.116216  0  0  0.153005  0  4.123818  0  0.420869  0  0.08174  0.134369  0  4.111404  0
C  C68  1  0.89030714  0.79737220  0.57831075  1  0  0.116019  0  3.77161  0  0  0.075073  0  4.092652  0  0  0.080718  0  4.099768  0  0.60494  0  0.072906  0.070766  0  4.088476  0
C  C69  1  0.53144141  0.70244853  0.57889942  1  0  0.115055  0  3.775568  0  0  0.074619  0  4.096184  0  0  0.080223  0  4.103302  0  0.598563  0  0.071544  0.070322  0  4.092  0
C  C70  1  0.10970361  0.20262949  0.42168976  1  0  0.11608  0  3.77139  0  0  0.075202  0  4.092346  0  0  0.080851  0  4.099471  0  0.607642  0  0.072929  0.070892  0  4.088169  0
C  C71  1  0.46855952  0.29755235  0.42110046  1  0  0.115101  0  3.775628  0  0  0.074746  0  4.096071  0  0  0.080351  0  4.103189  0  0.598509  0  0.071577  0.070451  0  4.091881  0
C  C72  1  0.02368366  0.71504562  0.53002930  1  0  0.04536  0  3.868335  0  0  0.012079  0  4.146832  0  0  0.02218  0  4.164836  0  0.571281  0  0.093165  0.005252  0  4.134911  0
C  C73  1  0.44674626  0.78490965  0.53005644  1  0  0.046174  0  3.86927  0  0  0.012309  0  4.149544  0  0  0.02252  0  4.167406  0  0.567204  0  0.092954  0.005452  0  4.137649  0
C  C74  1  0.97632827  0.28495608  0.46997136  1  0  0.045317  0  3.868682  0  0  0.012136  0  4.147073  0  0  0.022213  0  4.165095  0  0.5685  0  0.093253  0.005311  0  4.135148  0
C  C75  1  0.55325349  0.21509124  0.46994329  1  0  0.046136  0  3.869518  0  0  0.012347  0  4.149584  0  0  0.022558  0  4.167445  0  0.56722  0  0.092943  0.005493  0  4.137684  0
C  C76  1  0.11217555  0.63510457  0.57958664  1  0  0.101934  0  3.795484  0  0  0.066889  0  4.110179  0  0  0.07095  0  4.121007  0  0.458968  0  0.071622  0.063686  0  4.103426  0
C  C77  1  0.30902064  0.86477161  0.57904094  1  0  0.10241  0  3.793156  0  0  0.066975  0  4.108836  0  0  0.071049  0  4.119578  0  0.439996  0  0.072636  0.063764  0  4.10212  0
C  C78  1  0.88783631  0.36489550  0.42041463  1  0  0.102067  0  3.795576  0  0  0.066954  0  4.110275  0  0  0.071047  0  4.12108  0  0.458978  0  0.071641  0.06375  0  4.103523  0
C  C79  1  0.69097827  0.13523009  0.42095802  1  0  0.102534  0  3.792665  0  0  0.067003  0  4.108816  0  0  0.071084  0  4.119562  0  0.44005  0  0.072638  0.063795  0  4.102095  0
C  C80  1  0.06408109  0.63415313  0.66709749  1  0  0.176594  0  3.811635  0  0  0.140264  0  4.120591  0  0  0.149925  0  4.131504  0  0.555832  0  0.081226  0.133526  0  4.11343  0
C  C81  1  0.26960925  0.86556815  0.66659080  1  0  0.176249  0  3.814534  0  0  0.14113  0  4.122213  0  0  0.150771  0  4.133136  0  0.57861  0  0.080883  0.134397  0  4.115055  0
C  C82  1  0.93592630  0.36584450  0.33290240  1  0  0.176387  0  3.811743  0  0  0.140213  0  4.120567  0  0  0.149859  0  4.131483  0  0.555832  0  0.081218  0.133475  0  4.113405  0
C  C83  1  0.73039119  0.13443437  0.33340771  1  0  0.177573  0  3.8128  0  0  0.141163  0  4.122262  0  0  0.15078  0  4.133211  0  0.578911  0  0.080924  0.134429  0  4.115097  0
C  C84  1  0.04843288  0.80923389  0.39127955  1  0  -0.172334  0  3.651921  0  0  -0.273334  0  3.910253  0  0  -0.269314  0  3.919816  0  0.234078  0  -0.14186  -0.275734  0  3.903578  0
C  C85  1  0.56088072  0.69089421  0.39139284  1  0  -0.17281  0  3.651523  0  0  -0.272833  0  3.910287  0  0  -0.268704  0  3.919668  0  0.302645  0  -0.14089  -0.27528  0  3.903788  0
C  C86  1  0.95157077  0.19076781  0.60872003  1  0  -0.172535  0  3.652288  0  0  -0.273429  0  3.91048  0  0  -0.269405  0  3.920064  0  0.23402  0  -0.141903  -0.275826  0  3.903799  0
C  C87  1  0.43911679  0.30910097  0.60860703  1  0  -0.172592  0  3.651363  0  0  -0.272656  0  3.910155  0  0  -0.268529  0  3.919537  0  0.302686  0  -0.140896  -0.275113  0  3.903677  0
C  C88  1  0.11245694  0.60847468  0.39793357  1  0  -0.173089  0  3.66356  0  0  -0.279191  0  3.931417  0  0  -0.274513  0  3.94051  0  0.286299  0  -0.144787  -0.282055  0  3.925119  0
C  C89  1  0.49010091  0.89162407  0.39808762  1  0  -0.16834  0  3.661449  0  0  -0.274011  0  3.928803  0  0  -0.269369  0  3.938024  0  0.305494  0  -0.142826  -0.276843  0  3.922391  0
C  C90  1  0.88754184  0.39152702  0.60206953  1  0  -0.173199  0  3.663545  0  0  -0.279284  0  3.93146  0  0  -0.2746  0  3.94056  0  0.286374  0  -0.144781  -0.282163  0  3.925197  0
C  C91  1  0.50989286  0.10836866  0.60190612  1  0  -0.168185  0  3.661578  0  0  -0.273967  0  3.92895  0  0  -0.26932  0  3.938188  0  0.305304  0  -0.142875  -0.276797  0  3.922536  0
N  N92  1  0.82594024  0.61534107  0.93768751  1  0  -0.444329  0  3.281236  0  0  -0.353874  0  3.572074  0  0  -0.380412  0  3.581295  0  -1.190151  0  -0.355911  -0.336352  0  3.565729  0
N  N93  1  0.23613286  0.88451799  0.93781586  1  0  -0.444652  0  3.282057  0  0  -0.353595  0  3.57321  0  0  -0.380121  0  3.58242  0  -1.190714  0  -0.356645  -0.336031  0  3.566781  0
N  N94  1  0.17406272  0.38465900  0.06231330  1  0  -0.444434  0  3.281278  0  0  -0.353954  0  3.572095  0  0  -0.380501  0  3.581322  0  -1.19012  0  -0.355925  -0.336415  0  3.56573  0
N  N95  1  0.76385563  0.11548616  0.06218601  1  0  -0.444803  0  3.2821  0  0  -0.353647  0  3.573235  0  0  -0.380172  0  3.582448  0  -1.190715  0  -0.356672  -0.33608  0  3.566803  0
N  N96  1  0.76767769  0.70686171  0.06578226  1  0  -0.675058  0  3.112711  0  0  -0.639569  0  3.352258  0  0  -0.662285  0  3.346663  0  -1.253089  0  -0.564411  -0.623807  0  3.356079  0
N  N97  1  0.16660947  0.79319872  0.06573753  1  0  -0.676407  0  3.114159  0  0  -0.640492  0  3.355426  0  0  -0.66325  0  3.349694  0  -1.26427  0  -0.565596  -0.624711  0  3.359284  0
N  N98  1  0.23231817  0.29313836  0.93421762  1  0  -0.675187  0  3.11268  0  0  -0.639704  0  3.352247  0  0  -0.662417  0  3.346648  0  -1.25311  0  -0.564427  -0.623943  0  3.35607  0
N  N99  1  0.83338494  0.20680216  0.93426220  1  0  -0.67639  0  3.114055  0  0  -0.640433  0  3.355338  0  0  -0.663196  0  3.349619  0  -1.264179  0  -0.565559  -0.62465  0  3.359192  0
N  N100  1  0.82033225  0.80620671  0.94053707  1  0  -0.422621  0  3.233846  0  0  -0.330036  0  3.510032  0  0  -0.357386  0  3.52304  0  -1.167795  0  -0.352258  -0.311863  0  3.501019  0
N  N101  1  0.23942352  0.69359446  0.94043146  1  0  -0.423387  0  3.232275  0  0  -0.330889  0  3.510342  0  0  -0.358216  0  3.523198  0  -1.179796  0  -0.35304  -0.312745  0  3.501436  0
N  N102  1  0.17966778  0.19379336  0.05946266  1  0  -0.422674  0  3.233845  0  0  -0.330054  0  3.509981  0  0  -0.357404  0  3.52299  0  -1.167786  0  -0.352285  -0.311885  0  3.500972  0
N  N103  1  0.76056939  0.30640724  0.05956950  1  0  -0.42343  0  3.232382  0  0  -0.330877  0  3.510411  0  0  -0.3582  0  3.523261  0  -1.179734  0  -0.353056  -0.312751  0  3.501523  0
N  N104  1  0.06526720  0.71159611  0.44367380  1  0  -0.074528  0  3.448922  0  0  0.016389  0  3.689845  0  0  -0.00309  0  3.716697  0  -1.169733  0  -0.296764  0.02973  0  3.671055  0
N  N105  1  0.49148925  0.78848959  0.44373098  1  0  -0.074349  0  3.450023  0  0  0.015938  0  3.69182  0  0  -0.0036  0  3.718693  0  -1.167037  0  -0.296141  0.029297  0  3.672999  0
N  N106  1  0.93474147  0.28840640  0.55632716  1  0  -0.074512  0  3.449131  0  0  0.016303  0  3.690144  0  0  -0.00317  0  3.716995  0  -1.169702  0  -0.296857  0.029643  0  3.671348  0
N  N107  1  0.50850416  0.21150721  0.55626844  1  0  -0.074615  0  3.450257  0  0  0.015813  0  3.691903  0  0  -0.003727  0  3.718778  0  -1.167025  0  -0.296109  0.029173  0  3.673078  0
N  N108  1  0.58779332  0.40668330  0.84255538  1  0  0.693856  0  4.135708  0  0  0.734218  0  4.409375  0  0  0.762318  0  4.417032  0  0.815644  0  0.092521  0.715323  0  4.403555  0
N  N109  1  0.56800615  0.09335586  0.84276336  1  0  0.715474  0  4.11022  0  0  0.732895  0  4.417088  0  0  0.761019  0  4.424733  0  0.82315  0  0.091558  0.714003  0  4.411225  0
N  N110  1  0.41220485  0.59331513  0.15744543  1  0  0.693916  0  4.135548  0  0  0.734304  0  4.40919  0  0  0.762405  0  4.416847  0  0.815494  0  0.092537  0.715409  0  4.403369  0
N  N111  1  0.43199179  0.90664339  0.15723606  1  0  0.715361  0  4.110362  0  0  0.732797  0  4.417174  0  0  0.760922  0  4.42482  0  0.823166  0  0.091472  0.713903  0  4.411316  0
O  O112  1  0.53455826  0.43019389  0.92190916  1  0  -0.521044  0  1.870122  0  0  -0.490357  0  2.126568  0  0  -0.511795  0  2.116146  0  -0.595016  0  -0.228611  -0.4751  0  2.1333  0
O  O113  1  0.54265992  0.06996023  0.92214920  1  0  -0.527886  0  1.861728  0  0  -0.48958  0  2.126498  0  0  -0.51097  0  2.116078  0  -0.579381  0  -0.228093  -0.474336  0  2.133215  0
O  O114  1  0.46543783  0.56980536  0.07809210  1  0  -0.521055  0  1.87011  0  0  -0.490357  0  2.126534  0  0  -0.511795  0  2.116112  0  -0.594966  0  -0.228596  -0.4751  0  2.133264  0
O  O115  1  0.45733442  0.93003902  0.07785114  1  0  -0.52785  0  1.861788  0  0  -0.489519  0  2.126541  0  0  -0.510898  0  2.116096  0  -0.579401  0  -0.228029  -0.474277  0  2.133258  0
O  O116  1  0.75711659  0.37968816  0.81094896  1  0  -0.471816  0  1.724211  0  0  -0.459563  0  1.921421  0  0  -0.474744  0  1.914559  0  -0.545587  0  -0.192932  -0.448909  0  1.925991  0
O  O117  1  0.43025123  0.12056625  0.81052229  1  0  -0.475813  0  1.716404  0  0  -0.456162  0  1.922509  0  0  -0.471258  0  1.915586  0  -0.549722  0  -0.189862  -0.445577  0  1.927117  0
O  O118  1  0.24288073  0.62031109  0.18905108  1  0  -0.471859  0  1.72414  0  0  -0.459626  0  1.921348  0  0  -0.474812  0  1.914489  0  -0.545492  0  -0.192954  -0.448976  0  1.925923  0
O  O119  1  0.56974618  0.87943627  0.18947790  1  0  -0.475846  0  1.716483  0  0  -0.456124  0  1.922555  0  0  -0.471221  0  1.915633  0  -0.549688  0  -0.189817  -0.445539  0  1.927164  0
O  O120  1  0.47104443  0.40997627  0.79917797  1  0  -0.440296  0  1.716  0  0  -0.436362  0  1.914066  0  0  -0.449612  0  1.907225  0  -0.510493  0  -0.180949  -0.427052  0  1.918581  0
O  O121  1  0.72739937  0.08975064  0.79995046  1  0  -0.450942  0  1.710168  0  0  -0.439373  0  1.917274  0  0  -0.452831  0  1.910584  0  -0.530465  0  -0.183692  -0.430049  0  1.921831  0
O  O122  1  0.52895258  0.59002380  0.20082344  1  0  -0.440314  0  1.715952  0  0  -0.436375  0  1.913995  0  0  -0.449626  0  1.907153  0  -0.510487  0  -0.180952  -0.427067  0  1.918514  0
O  O123  1  0.27259765  0.91024780  0.20004881  1  0  -0.45085  0  1.709936  0  0  -0.439374  0  1.917226  0  0  -0.452831  0  1.910536  0  -0.530522  0  -0.183718  -0.43004  0  1.921774  0
F  F124  1  0.71342308  0.87896095  0.70588432  1  0  -0.169681  0  1.247316  0  0  -0.109522  0  1.410446  0  0  -0.11938  0  1.402611  0  -0.630001  0  -0.083492  -0.102315  0  1.415735  0
F  F125  1  0.58049829  0.62061275  0.70703943  1  0  -0.170074  0  1.245385  0  0  -0.10966  0  1.408436  0  0  -0.119547  0  1.400576  0  -0.635187  0  -0.08394  -0.102439  0  1.413754  0
F  F126  1  0.28658754  0.12103748  0.29411741  1  0  -0.169762  0  1.247137  0  0  -0.109514  0  1.410348  0  0  -0.119374  0  1.402515  0  -0.629861  0  -0.083533  -0.102309  0  1.415636  0
F  F127  1  0.41950212  0.37939139  0.29296122  1  0  -0.17008  0  1.245408  0  0  -0.109642  0  1.408423  0  0  -0.119531  0  1.400564  0  -0.635229  0  -0.083921  -0.10242  0  1.413742  0
F  F128  1  0.78776919  0.87465703  0.53850275  1  0  -0.160535  0  1.308842  0  0  -0.098646  0  1.480622  0  0  -0.107865  0  1.472946  0  -0.633888  0  -0.075577  -0.091983  0  1.485938  0
F  F129  1  0.67316486  0.62505854  0.53975048  1  0  -0.161068  0  1.308621  0  0  -0.099299  0  1.480247  0  0  -0.10856  0  1.472592  0  -0.62873  0  -0.075459  -0.092602  0  1.485549  0
F  F130  1  0.21224509  0.12534630  0.46150036  1  0  -0.160554  0  1.308799  0  0  -0.098693  0  1.480523  0  0  -0.107909  0  1.472846  0  -0.633948  0  -0.075587  -0.092029  0  1.48584  0
F  F131  1  0.32683367  0.37494234  0.46025048  1  0  -0.161149  0  1.308598  0  0  -0.099376  0  1.48021  0  0  -0.108636  0  1.472555  0  -0.628726  0  -0.075484  -0.092679  0  1.485512  0
F  F132  1  0.25802560  0.55978542  0.54070438  1  0  -0.159525  0  1.301389  0  0  -0.102374  0  1.473367  0  0  -0.110975  0  1.465445  0  -0.627592  0  -0.076782  -0.096133  0  1.478856  0
F  F133  1  0.20231327  0.94018696  0.53951269  1  0  -0.159948  0  1.301727  0  0  -0.103045  0  1.474426  0  0  -0.111629  0  1.466451  0  -0.62775  0  -0.077045  -0.096824  0  1.47996  0
F  F134  1  0.74198519  0.44021628  0.45929475  1  0  -0.159579  0  1.301382  0  0  -0.102458  0  1.473451  0  0  -0.111068  0  1.465516  0  -0.6275  0  -0.076849  -0.096216  0  1.478943  0
F  F135  1  0.79768139  0.05981148  0.46048627  1  0  -0.159995  0  1.301505  0  0  -0.10307  0  1.474353  0  0  -0.111656  0  1.466374  0  -0.627709  0  -0.07705  -0.096849  0  1.479887  0
F  F136  1  0.16136328  0.55430584  0.70796546  1  0  -0.172946  0  1.230276  0  0  -0.11102  0  1.387436  0  0  -0.120217  0  1.378377  0  -0.628549  0  -0.083075  -0.104278  0  1.393576  0
F  F137  1  0.13176650  0.94535428  0.70684669  1  0  -0.17335  0  1.230759  0  0  -0.111672  0  1.387117  0  0  -0.120842  0  1.37807  0  -0.630959  0  -0.082916  -0.104949  0  1.393244  0
F  F138  1  0.83864024  0.44568934  0.29203243  1  0  -0.172941  0  1.23025  0  0  -0.110982  0  1.387339  0  0  -0.120183  0  1.378285  0  -0.628453  0  -0.083049  -0.104241  0  1.39348  0
F  F139  1  0.86823546  0.05464904  0.29315135  1  0  -0.174123  0  1.230478  0  0  -0.111708  0  1.387066  0  0  -0.120873  0  1.378029  0  -0.631253  0  -0.082977  -0.104984  0  1.393192  0
