# generated using pymatgen
data_Pr2H34C51N4O15
_symmetry_space_group_name_H-M   'P 1'
_cell_length_a   8.50100664
_cell_length_b   10.74328830
_cell_length_c   13.15964517
_cell_angle_alpha   95.71398879
_cell_angle_beta   104.54900098
_cell_angle_gamma   97.61851522
_symmetry_Int_Tables_number   1
_chemical_formula_structural   Pr2H34C51N4O15
_chemical_formula_sum   'Pr2 H34 C51 N4 O15'
_cell_volume   1141.93445688
_cell_formula_units_Z   1
loop_
 _symmetry_equiv_pos_site_id
 _symmetry_equiv_pos_as_xyz
  1  'x, y, z'
loop_
 _atom_site_type_symbol
 _atom_site_label
 _atom_site_symmetry_multiplicity
 _atom_site_fract_x
 _atom_site_fract_y
 _atom_site_fract_z
 _atom_site_occupancy
 _atom_site_hle17_bader_spin_density
 _atom_site_hle17_ddec_charge
 _atom_site_hle17_ddec_spin_density
 _atom_site_hle17_ddec_sum_bond_order
 _atom_site_hle17_magmom
 _atom_site_hse06_10hf_bader_spin_density
 _atom_site_hse06_10hf_ddec_charge
 _atom_site_hse06_10hf_ddec_spin_density
 _atom_site_hse06_10hf_ddec_sum_bond_order
 _atom_site_hse06_10hf_magmom
 _atom_site_hse06_bader_spin_density
 _atom_site_hse06_ddec_charge
 _atom_site_hse06_ddec_spin_density
 _atom_site_hse06_ddec_sum_bond_order
 _atom_site_hse06_magmom
 _atom_site_pbe_bader_spin_density
 _atom_site_pbe_cm5_charge
 _atom_site_pbe_ddec_charge
 _atom_site_pbe_ddec_spin_density
 _atom_site_pbe_ddec_sum_bond_order
 _atom_site_pbe_magmom
Pr  Pr0  1  0.00235327  0.14390484  0.90727864  1  0  2.194608  0  1.722466  0  0  2.002056  0  2.221363  0  0  2.04851  0  2.171473  0  0  1.501423  1.966537  0  2.259904  0
Pr  Pr1  1  0.74916518  0.19409419  0.60916301  1  0  2.192898  0  1.739955  0  0  1.999667  0  2.242761  0  0  2.046405  0  2.192428  0  0  1.505473  1.963588  0  2.282168  0
H  H2  1  0.81234616  0.82457837  0.12596075  1  0  0.082987  0  0.977999  0  0  0.091034  0  1.047667  0  0  0.093971  0  1.045607  0  0  0.0965  0.08894  0  1.04909  0
H  H3  1  0.65354114  0.60934871  0.12525508  1  0  0.105335  0  0.947061  0  0  0.116497  0  1.006183  0  0  0.120325  0  1.004371  0  0  0.102791  0.113803  0  1.007562  0
H  H4  1  0.76935272  0.47743833  0.83590848  1  0  0.121455  0  0.964402  0  0  0.132575  0  1.022859  0  0  0.135835  0  1.021809  0  0  0.113495  0.130179  0  1.023879  0
H  H5  1  0.93939805  0.68595577  0.84541639  1  0  0.102647  0  0.943877  0  0  0.114304  0  1.001875  0  0  0.117377  0  0.999456  0  0  0.107571  0.112031  0  1.003749  0
H  H6  1  0.48562555  0.40888602  0.81822672  1  0  0.088455  0  0.935442  0  0  0.097151  0  1.002793  0  0  0.098529  0  1.001758  0  0  0.111718  0.096152  0  1.003733  0
H  H7  1  0.41282973  0.28748510  0.88564611  1  0  0.116958  0  0.934946  0  0  0.125365  0  0.99859  0  0  0.12748  0  0.997955  0  0  0.12193  0.123967  0  0.999105  0
H  H8  1  0.21474095  0.42926812  0.70705197  1  0  0.085254  0  0.911932  0  0  0.099122  0  0.972075  0  0  0.100706  0  0.970415  0  0  0.117658  0.097907  0  0.97355  0
H  H9  1  0.05744559  0.52189385  0.71311096  1  0  0.087205  0  0.956787  0  0  0.097578  0  1.021804  0  0  0.09791  0  1.022826  0  0  0.112588  0.097368  0  1.021141  0
H  H10  1  0.45805422  0.76903841  0.95017413  1  0  0.110403  0  0.939462  0  0  0.122549  0  0.995619  0  0  0.126042  0  0.994315  0  0  0.105887  0.119941  0  0.99684  0
H  H11  1  0.64031355  0.93420903  0.89182543  1  0  0.092817  0  0.978764  0  0  0.100808  0  1.045212  0  0  0.103922  0  1.04306  0  0  0.108449  0.098475  0  1.046979  0
H  H12  1  0.46201714  0.74614511  0.57193288  1  0  0.100892  0  0.929062  0  0  0.111946  0  0.98517  0  0  0.115765  0  0.981983  0  0  0.106175  0.109172  0  0.987528  0
H  H13  1  0.28546692  0.57944190  0.62823481  1  0  0.100163  0  0.973753  0  0  0.111175  0  1.03501  0  0  0.113777  0  1.035198  0  0  0.099979  0.109323  0  1.035023  0
H  H14  1  0.96307386  0.51327262  0.39941413  1  0  0.085822  0  0.977969  0  0  0.093955  0  1.047444  0  0  0.097023  0  1.045281  0  0  0.097245  0.09174  0  1.049013  0
H  H15  1  0.11741893  0.72995894  0.39837173  1  0  0.10494  0  0.950167  0  0  0.115926  0  1.009615  0  0  0.119872  0  1.007703  0  0  0.102073  0.113135  0  1.011051  0
H  H16  1  0.97691945  0.86721015  0.67717343  1  0  0.126389  0  0.959507  0  0  0.137351  0  1.01664  0  0  0.140886  0  1.015187  0  0  0.116548  0.134784  0  1.017932  0
H  H17  1  0.80842160  0.65875686  0.66749491  1  0  0.102501  0  0.949485  0  0  0.111786  0  1.0126  0  0  0.114679  0  1.01081  0  0  0.106879  0.109661  0  1.014028  0
H  H18  1  0.34241961  0.05744912  0.63365540  1  0  0.116026  0  0.929554  0  0  0.124018  0  0.994116  0  0  0.126072  0  0.993368  0  0  0.12257  0.122628  0  0.994687  0
H  H19  1  0.27235261  0.93581621  0.70157321  1  0  0.092619  0  0.9429  0  0  0.101436  0  1.008798  0  0  0.102089  0  1.009678  0  0  0.112624  0.10101  0  1.008258  0
H  H20  1  0.35037030  0.00462496  0.93877850  1  0  0.085812  0  0.942739  0  0  0.092014  0  1.010311  0  0  0.095029  0  1.007162  0  0  0.12413  0.089853  0  1.012468  0
H  H21  1  0.64785023  0.02163530  0.04421149  1  0  0.116826  0  0.96781  0  0  0.126017  0  1.02831  0  0  0.129337  0  1.026945  0  0  0.111567  0.123503  0  1.029675  0
H  H22  1  0.75648874  0.18544499  0.20304837  1  0  0.092096  0  0.938919  0  0  0.105843  0  0.996766  0  0  0.108208  0  0.995383  0  0  0.110292  0.10412  0  0.997824  0
H  H23  1  0.70848040  0.36047372  0.32461350  1  0  0.108058  0  0.965256  0  0  0.118787  0  1.027001  0  0  0.12165  0  1.025842  0  0  0.107205  0.116715  0  1.02788  0
H  H24  1  0.52352670  0.50446901  0.36935435  1  0  0.099429  0  0.940058  0  0  0.112605  0  0.995924  0  0  0.114827  0  0.996108  0  0  0.106137  0.111021  0  0.995826  0
H  H25  1  0.24549651  0.56817464  0.33216523  1  0  0.093601  0  0.939462  0  0  0.108658  0  0.993851  0  0  0.111093  0  0.992403  0  0  0.108979  0.106851  0  0.994978  0
H  H26  1  0.94974913  0.52797448  0.22170400  1  0  0.100149  0  0.959542  0  0  0.11125  0  1.018067  0  0  0.113633  0  1.018609  0  0  0.105807  0.109548  0  1.017799  0
H  H27  1  0.85932206  0.34713665  0.07352012  1  0  0.084708  0  0.978225  0  0  0.085255  0  1.053776  0  0  0.089024  0  1.050306  0  0  0.118752  0.082519  0  1.056098  0
H  H28  1  0.88803430  0.99439539  0.43737604  1  0  0.084511  0  0.966979  0  0  0.08607  0  1.04179  0  0  0.089754  0  1.038193  0  0  0.118855  0.083424  0  1.044215  0
H  H29  1  0.78855723  0.81010456  0.29251426  1  0  0.101153  0  0.958276  0  0  0.112752  0  1.015384  0  0  0.115113  0  1.015911  0  0  0.106301  0.111043  0  1.01515  0
H  H30  1  0.49151000  0.77347064  0.18491758  1  0  0.09909  0  0.931587  0  0  0.113546  0  0.985374  0  0  0.116402  0  0.983501  0  0  0.11136  0.111402  0  0.986886  0
H  H31  1  0.21606979  0.84412818  0.14962547  1  0  0.101253  0  0.942211  0  0  0.113577  0  0.999183  0  0  0.115962  0  0.999174  0  0  0.106908  0.111865  0  0.999195  0
H  H32  1  0.03725522  0.99076358  0.19772160  1  0  0.110537  0  0.966056  0  0  0.120717  0  1.027609  0  0  0.123725  0  1.026235  0  0  0.106793  0.118529  0  1.028679  0
H  H33  1  0.99547297  0.16519486  0.32485469  1  0  0.091784  0  0.939355  0  0  0.105551  0  0.997407  0  0  0.107924  0  0.995956  0  0  0.110561  0.103807  0  0.998515  0
H  H34  1  0.11133209  0.32558575  0.48543105  1  0  0.116091  0  0.968289  0  0  0.124864  0  1.029569  0  0  0.128542  0  1.027945  0  0  0.109963  0.122058  0  1.031164  0
H  H35  1  0.41282691  0.34136839  0.58362053  1  0  0.08229  0  0.940222  0  0  0.08972  0  1.006158  0  0  0.093051  0  1.002219  0  0  0.122525  0.087208  0  1.009092  0
C  C36  1  0.95499664  0.89901741  0.97402262  1  0  0.623674  0  3.953372  0  0  0.578982  0  4.246928  0  0  0.613061  0  4.239162  0  0  0.180846  0.555956  0  4.251313  0
C  C37  1  0.88510692  0.76844820  0.98529506  1  0  -0.095533  0  3.796531  0  0  -0.072576  0  4.028159  0  0  -0.083429  0  4.052794  0  0  -0.03242  -0.065607  0  4.011665  0
C  C38  1  0.80725670  0.74601382  0.06551617  1  0  -0.063676  0  3.791511  0  0  -0.088111  0  4.044099  0  0  -0.085146  0  4.064048  0  0  -0.090759  -0.089672  0  4.030482  0
C  C39  1  0.71778311  0.62791222  0.06485514  1  0  -0.19818  0  3.766726  0  0  -0.218734  0  4.0241  0  0  -0.225438  0  4.042239  0  0  -0.107573  -0.214447  0  4.011916  0
C  C40  1  0.69836912  0.53139975  0.98019605  1  0  0.286726  0  3.787746  0  0  0.277104  0  4.04913  0  0  0.290117  0  4.064168  0  0  0.092162  0.268246  0  4.038763  0
C  C41  1  0.78068876  0.55113322  0.90157751  1  0  -0.198971  0  3.720498  0  0  -0.218362  0  3.971288  0  0  -0.226155  0  3.992076  0  0  -0.102323  -0.213162  0  3.957327  0
C  C42  1  0.87581812  0.66837910  0.90615458  1  0  -0.022205  0  3.720095  0  0  -0.045934  0  3.96508  0  0  -0.041859  0  3.983476  0  0  -0.07582  -0.048416  0  3.952584  0
C  C43  1  0.52370790  0.34696551  0.87839425  1  0  -0.078916  0  3.602168  0  0  -0.134754  0  3.861144  0  0  -0.131666  0  3.86107  0  0  -0.065891  -0.137163  0  3.861545  0
C  C44  1  0.63285515  0.26143443  0.84026945  1  0  0.718753  0  3.848899  0  0  0.672737  0  4.14637  0  0  0.706837  0  4.135683  0  0  0.229294  0.649598  0  4.152791  0
C  C45  1  0.08792108  0.38120275  0.81949020  1  0  0.705052  0  3.863833  0  0  0.659587  0  4.158124  0  0  0.692832  0  4.148746  0  0  0.213993  0.63705  0  4.163692  0
C  C46  1  0.15719443  0.48049920  0.76152192  1  0  -0.056257  0  3.630958  0  0  -0.112879  0  3.886131  0  0  -0.109204  0  3.887838  0  0  -0.056083  -0.11548  0  3.885043  0
C  C47  1  0.36413515  0.66296388  0.79422937  1  0  0.281692  0  3.800608  0  0  0.269647  0  4.063344  0  0  0.282902  0  4.078738  0  0  0.088605  0.260712  0  4.052768  0
C  C48  1  0.46248074  0.76443492  0.86793903  1  0  -0.17685  0  3.745763  0  0  -0.198558  0  4.002481  0  0  -0.205377  0  4.022002  0  0  -0.099261  -0.194041  0  3.989461  0
C  C49  1  0.56359729  0.85511856  0.83535262  1  0  -0.046051  0  3.754785  0  0  -0.069448  0  4.004127  0  0  -0.066607  0  4.024161  0  0  -0.078789  -0.071068  0  3.990574  0
C  C50  1  0.56549664  0.84858500  0.72872500  1  0  -0.098545  0  3.773614  0  0  -0.078012  0  4.009202  0  0  -0.088385  0  4.032299  0  0  -0.02709  -0.071381  0  3.993727  0
C  C51  1  0.46412018  0.74860868  0.65524372  1  0  -0.02624  0  3.746233  0  0  -0.049802  0  3.996676  0  0  -0.045565  0  4.013891  0  0  -0.079285  -0.052383  0  3.985016  0
C  C52  1  0.36456503  0.65521179  0.68714549  1  0  -0.217744  0  3.777478  0  0  -0.236977  0  4.032317  0  0  -0.245376  0  4.054341  0  0  -0.111508  -0.231487  0  4.017564  0
C  C53  1  0.65860914  0.95300569  0.69162976  1  0  0.688706  0  3.890397  0  0  0.643529  0  4.176126  0  0  0.678523  0  4.16631  0  0  0.213249  0.619767  0  4.181963  0
C  C54  1  0.80606845  0.44181822  0.54545125  1  0  0.620787  0  3.972255  0  0  0.577288  0  4.264857  0  0  0.611227  0  4.256934  0  0  0.178633  0.55431  0  4.269377  0
C  C55  1  0.87752381  0.57224742  0.53428823  1  0  -0.106686  0  3.808422  0  0  -0.085579  0  4.043648  0  0  -0.095887  0  4.067087  0  0  -0.0369  -0.07899  0  4.027988  0
C  C56  1  0.96238349  0.59313926  0.45713002  1  0  -0.065309  0  3.792406  0  0  -0.089247  0  4.043494  0  0  -0.08611  0  4.062895  0  0  -0.093523  -0.090976  0  4.030339  0
C  C57  1  0.04930670  0.71199012  0.45693286  1  0  -0.196869  0  3.768032  0  0  -0.21702  0  4.023752  0  0  -0.224083  0  4.042513  0  0  -0.10784  -0.212471  0  4.011129  0
C  C58  1  0.97205818  0.79217589  0.61398525  1  0  -0.194234  0  3.715058  0  0  -0.214288  0  3.96676  0  0  -0.221747  0  3.986891  0  0  -0.101037  -0.209306  0  3.953179  0
C  C59  1  0.87824645  0.67437903  0.60957014  1  0  -0.036715  0  3.739065  0  0  -0.060039  0  3.987526  0  0  -0.056371  0  4.00565  0  0  -0.08091  -0.062246  0  3.975188  0
C  C60  1  0.06085817  0.81058086  0.53848275  1  0  0.285195  0  3.796352  0  0  0.275862  0  4.057402  0  0  0.288609  0  4.07314  0  0  0.093347  0.267163  0  4.046481  0
C  C61  1  0.23250354  0.99626559  0.64053986  1  0  -0.080849  0  3.601924  0  0  -0.135632  0  3.857945  0  0  -0.132804  0  3.858646  0  0  -0.064886  -0.137844  0  3.857716  0
C  C62  1  0.12003679  0.07959678  0.67690761  1  0  0.716074  0  3.858709  0  0  0.670014  0  4.157282  0  0  0.704069  0  4.14617  0  0  0.226672  0.646875  0  4.164096  0
C  C63  1  0.40296919  0.07416343  0.00960870  1  0  0.157088  0  3.687387  0  0  0.127452  0  3.945467  0  0  0.135296  0  3.961006  0  0  0.067342  0.122452  0  3.934528  0
C  C64  1  0.56786904  0.08309903  0.06842529  1  0  -0.109619  0  3.705196  0  0  -0.1234  0  3.959178  0  0  -0.129978  0  3.980162  0  0  -0.077821  -0.119061  0  3.945127  0
C  C65  1  0.62860370  0.17421827  0.15631611  1  0  -0.032697  0  3.68088  0  0  -0.059285  0  3.93372  0  0  -0.05682  0  3.951659  0  0  -0.058725  -0.060874  0  3.921616  0
C  C66  1  0.52545553  0.25544829  0.18578701  1  0  0.030122  0  3.782245  0  0  0.043445  0  4.0185  0  0  0.041266  0  4.042076  0  0  0.000626  0.044698  0  4.002801  0
C  C67  1  0.58263069  0.35263594  0.27524573  1  0  -0.090056  0  3.72495  0  0  -0.115667  0  3.982466  0  0  -0.118411  0  4.005221  0  0  -0.082021  -0.113835  0  3.967134  0
C  C68  1  0.47983454  0.43050774  0.30087295  1  0  -0.103511  0  3.74692  0  0  -0.125531  0  4.000608  0  0  -0.129275  0  4.024607  0  0  -0.085501  -0.122901  0  3.984418  0
C  C69  1  0.31126364  0.41449410  0.24050663  1  0  0.025451  0  3.792405  0  0  0.041586  0  4.02186  0  0  0.03897  0  4.04718  0  0  -0.002166  0.043055  0  4.005023  0
C  C70  1  0.20064646  0.49193988  0.26547971  1  0  -0.053962  0  3.713353  0  0  -0.076747  0  3.955645  0  0  -0.075192  0  3.975467  0  0  -0.064001  -0.077447  0  3.942071  0
C  C71  1  0.03836795  0.46935785  0.20598480  1  0  -0.121289  0  3.745908  0  0  -0.132612  0  3.994297  0  0  -0.139817  0  4.017267  0  0  -0.086081  -0.12784  0  3.978402  0
C  C72  1  0.98666177  0.36834785  0.12215765  1  0  0.146564  0  3.701927  0  0  0.117564  0  3.960739  0  0  0.124829  0  3.976187  0  0  0.060597  0.113141  0  3.949571  0
C  C73  1  0.24886515  0.31650055  0.15261604  1  0  0.15236  0  3.723997  0  0  0.148047  0  3.960198  0  0  0.15278  0  3.979794  0  0  0.128793  0.144848  0  3.946858  0
C  C74  1  0.35950929  0.23776570  0.12288785  1  0  0.15234  0  3.731489  0  0  0.147479  0  3.969614  0  0  0.152216  0  3.989478  0  0  0.131663  0.144396  0  3.956155  0
C  C75  1  0.75981404  0.97476916  0.39008753  1  0  0.146906  0  3.703145  0  0  0.117368  0  3.963002  0  0  0.124645  0  3.9785  0  0  0.061489  0.112861  0  3.951773  0
C  C76  1  0.70303225  0.87176282  0.30817614  1  0  -0.123149  0  3.749488  0  0  -0.134201  0  3.998594  0  0  -0.141308  0  4.021462  0  0  -0.08602  -0.12944  0  3.982779  0
C  C77  1  0.53982457  0.85114719  0.25023957  1  0  -0.054952  0  3.712118  0  0  -0.078425  0  3.955879  0  0  -0.076858  0  3.975299  0  0  -0.064068  -0.079213  0  3.942698  0
C  C78  1  0.43304081  0.93197864  0.27578883  1  0  0.023127  0  3.796809  0  0  0.040361  0  4.026166  0  0  0.037792  0  4.051508  0  0  -0.001368  0.041806  0  4.009288  0
C  C79  1  0.26345048  0.91815437  0.21786174  1  0  -0.098622  0  3.740556  0  0  -0.12083  0  3.993602  0  0  -0.124577  0  4.017432  0  0  -0.08301  -0.118115  0  3.977369  0
C  C80  1  0.16382049  0.99761985  0.24559143  1  0  -0.092348  0  3.725242  0  0  -0.11834  0  3.982661  0  0  -0.121117  0  4.005372  0  0  -0.08275  -0.116491  0  3.967351  0
C  C81  1  0.22497586  0.09430529  0.33524013  1  0  0.028559  0  3.780179  0  0  0.04336  0  4.013755  0  0  0.041204  0  4.037308  0  0  0.000743  0.044611  0  3.99806  0
C  C82  1  0.12470177  0.17543726  0.36873863  1  0  -0.026794  0  3.668554  0  0  -0.054084  0  3.920877  0  0  -0.051404  0  3.938555  0  0  -0.055452  -0.055793  0  3.908913  0
C  C83  1  0.18948686  0.26508333  0.45749185  1  0  -0.10997  0  3.711415  0  0  -0.123738  0  3.965019  0  0  -0.130397  0  3.985803  0  0  -0.079395  -0.119327  0  3.951072  0
C  C84  1  0.35587702  0.27296114  0.51250769  1  0  0.153247  0  3.704489  0  0  0.123242  0  3.962919  0  0  0.131047  0  3.9785  0  0  0.065305  0.11827  0  3.951993  0
C  C85  1  0.39248218  0.11056195  0.39505399  1  0  0.150595  0  3.736005  0  0  0.146208  0  3.973581  0  0  0.150944  0  3.99354  0  0  0.128441  0.143106  0  3.960105  0
C  C86  1  0.50012837  0.03076429  0.36259641  1  0  0.153043  0  3.727677  0  0  0.146794  0  3.966171  0  0  0.151409  0  3.985804  0  0  0.131099  0.143631  0  3.952853  0
N  N87  1  0.30152546  0.14876328  0.03567537  1  0  -0.427441  0  3.223163  0  0  -0.37687  0  3.492958  0  0  -0.390876  0  3.509964  0  0  -0.373089  -0.36711  0  3.481139  0
N  N88  1  0.08805666  0.29422429  0.09584803  1  0  -0.40996  0  3.211194  0  0  -0.357858  0  3.474824  0  0  -0.37076  0  3.490426  0  0  -0.362249  -0.348656  0  3.463574  0
N  N89  1  0.45441065  0.19825148  0.48275654  1  0  -0.430664  0  3.236731  0  0  -0.379697  0  3.506512  0  0  -0.393859  0  3.52383  0  0  -0.381084  -0.369805  0  3.494518  0
N  N90  1  0.66206437  0.05202226  0.41669217  1  0  -0.405131  0  3.214334  0  0  -0.353262  0  3.479462  0  0  -0.365994  0  3.494962  0  0  -0.363975  -0.344102  0  3.468307  0
O  O91  1  0.91169020  0.99376763  0.02292561  1  0  -0.720676  0  1.955324  0  0  -0.669662  0  2.200699  0  0  -0.692563  0  2.189505  0  0  -0.39926  -0.653331  0  2.208047  0
O  O92  1  0.04630531  0.91635022  0.91147310  1  0  -0.67904  0  1.946733  0  0  -0.631616  0  2.182381  0  0  -0.654561  0  2.173556  0  0  -0.383565  -0.615628  0  2.187977  0
O  O93  1  0.59570136  0.42204087  0.97980869  1  0  -0.250011  0  2.307208  0  0  -0.186644  0  2.540659  0  0  -0.202903  0  2.542032  0  0  -0.176375  -0.175145  0  2.539502  0
O  O94  1  0.75027771  0.23076220  0.90863545  1  0  -0.711648  0  2.026015  0  0  -0.657415  0  2.281441  0  0  -0.68242  0  2.271736  0  0  -0.387901  -0.639746  0  2.288125  0
O  O95  1  0.59243701  0.22705421  0.74064832  1  0  -0.71803  0  2.000368  0  0  -0.663658  0  2.253985  0  0  -0.68913  0  2.24379  0  0  -0.392972  -0.645395  0  2.260377  0
O  O96  1  0.16417295  0.36503951  0.91080814  1  0  -0.632665  0  1.971643  0  0  -0.591865  0  2.206832  0  0  -0.61382  0  2.198743  0  0  -0.348206  -0.576402  0  2.21176  0
O  O97  1  0.95226370  0.31018254  0.76683454  1  0  -0.826996  0  2.157959  0  0  -0.761061  0  2.419468  0  0  -0.78748  0  2.409152  0  0  -0.44093  -0.741921  0  2.42578  0
O  O98  1  0.27364976  0.57612316  0.83479446  1  0  -0.244537  0  2.334901  0  0  -0.175504  0  2.564089  0  0  -0.192155  0  2.564757  0  0  -0.170672  -0.163766  0  2.56315  0
O  O99  1  0.78793675  0.02307165  0.75451895  1  0  -0.814362  0  2.113446  0  0  -0.748275  0  2.371584  0  0  -0.773222  0  2.360091  0  0  -0.424741  -0.730387  0  2.379069  0
O  O100  1  0.60321287  0.97470993  0.59696109  1  0  -0.684164  0  1.988725  0  0  -0.636579  0  2.228955  0  0  -0.660055  0  2.221126  0  0  -0.384651  -0.619958  0  2.23383  0
O  O101  1  0.85114757  0.34682386  0.49840170  1  0  -0.717488  0  1.952207  0  0  -0.666965  0  2.196138  0  0  -0.689901  0  2.185335  0  0  -0.396808  -0.650512  0  2.203251  0
O  O102  1  0.71146998  0.42583921  0.60609834  1  0  -0.682991  0  1.953923  0  0  -0.636126  0  2.190431  0  0  -0.659023  0  2.181583  0  0  -0.380207  -0.620044  0  2.196028  0
O  O103  1  0.16349676  0.91997589  0.53922176  1  0  -0.254845  0  2.312866  0  0  -0.190709  0  2.546647  0  0  -0.207518  0  2.549067  0  0  -0.177311  -0.178667  0  2.544645  0
O  O104  1  0.00095721  0.10758327  0.60808479  1  0  -0.71533  0  2.026357  0  0  -0.662577  0  2.284251  0  0  -0.687233  0  2.273975  0  0  -0.388872  -0.645181  0  2.291419  0
O  O105  1  0.15909067  0.11528633  0.77628865  1  0  -0.721044  0  2.010189  0  0  -0.666028  0  2.263042  0  0  -0.69119  0  2.252844  0  0  -0.395464  -0.648124  0  2.269429  0
