# generated using pymatgen
data_AgH10C14N7O5
_symmetry_space_group_name_H-M   'P 1'
_cell_length_a   10.21249354
_cell_length_b   11.51044160
_cell_length_c   15.51490000
_cell_angle_alpha   90.00000000
_cell_angle_beta   90.00000000
_cell_angle_gamma   90.00000000
_symmetry_Int_Tables_number   1
_chemical_formula_structural   AgH10C14N7O5
_chemical_formula_sum   'Ag4 H40 C56 N28 O20'
_cell_volume   1823.78131316
_cell_formula_units_Z   4
loop_
 _symmetry_equiv_pos_site_id
 _symmetry_equiv_pos_as_xyz
  1  'x, y, z'
loop_
 _atom_site_type_symbol
 _atom_site_label
 _atom_site_symmetry_multiplicity
 _atom_site_fract_x
 _atom_site_fract_y
 _atom_site_fract_z
 _atom_site_occupancy
 _atom_site_hle17_bader_spin_density
 _atom_site_hle17_ddec_charge
 _atom_site_hle17_ddec_spin_density
 _atom_site_hle17_ddec_sum_bond_order
 _atom_site_hle17_magmom
 _atom_site_hse06_10hf_bader_spin_density
 _atom_site_hse06_10hf_ddec_charge
 _atom_site_hse06_10hf_ddec_spin_density
 _atom_site_hse06_10hf_ddec_sum_bond_order
 _atom_site_hse06_10hf_magmom
 _atom_site_hse06_bader_spin_density
 _atom_site_hse06_ddec_charge
 _atom_site_hse06_ddec_spin_density
 _atom_site_hse06_ddec_sum_bond_order
 _atom_site_hse06_magmom
 _atom_site_pbe_bader_charge
 _atom_site_pbe_bader_spin_density
 _atom_site_pbe_cm5_charge
 _atom_site_pbe_ddec_charge
 _atom_site_pbe_ddec_spin_density
 _atom_site_pbe_ddec_sum_bond_order
 _atom_site_pbe_magmom
Ag  Ag0  1  0.27351107  0.41940181  0.07043874  1  0  0.570199  0  1.284659  0  0  0.423807  0  1.704624  0  0  0.45735  0  1.654008  0  0.641393  0  0.446416  0.400833  0  1.739455  0
Ag  Ag1  1  0.72650425  0.91940608  0.92955997  1  0  0.570197  0  1.284765  0  0  0.423834  0  1.704745  0  0  0.457377  0  1.654127  0  0.641427  0  0.446409  0.400862  0  1.739576  0
Ag  Ag2  1  0.27350030  0.91940521  0.42956319  1  0  0.570198  0  1.284684  0  0  0.423832  0  1.704652  0  0  0.457378  0  1.654031  0  0.641364  0  0.446411  0.400858  0  1.739482  0
Ag  Ag3  1  0.72649054  0.41940094  0.57043938  1  0  0.570193  0  1.284673  0  0  0.423832  0  1.704655  0  0  0.457376  0  1.654036  0  0.641286  0  0.446407  0.400859  0  1.739488  0
H  H4  1  0.97420576  0.71186582  0.33881688  1  0  0.119452  0  0.960198  0  0  0.128536  0  1.020794  0  0  0.132328  0  1.017133  0  0.163466  0  0.112805  0.125654  0  1.023707  0
H  H5  1  0.02580271  0.21186503  0.66117990  1  0  0.11948  0  0.96024  0  0  0.128533  0  1.020857  0  0  0.132324  0  1.017196  0  0.163642  0  0.112799  0.12565  0  1.023769  0
H  H6  1  0.97420282  0.21186676  0.16118312  1  0  0.119409  0  0.96025  0  0  0.128507  0  1.020826  0  0  0.1323  0  1.017162  0  0.163718  0  0.112791  0.125625  0  1.023738  0
H  H7  1  0.02579781  0.71185974  0.83881946  1  0  0.119377  0  0.960267  0  0  0.128478  0  1.020854  0  0  0.132272  0  1.01719  0  0.163417  0  0.112757  0.125597  0  1.023764  0
H  H8  1  0.95154234  0.75782062  0.18147265  1  0  0.113488  0  0.927753  0  0  0.125887  0  0.978731  0  0  0.129247  0  0.977895  0  0.079635  0  0.112962  0.123388  0  0.979597  0
H  H9  1  0.04846711  0.25781722  0.81852477  1  0  0.113505  0  0.92778  0  0  0.125917  0  0.978743  0  0  0.129276  0  0.977907  0  0.079622  0  0.112959  0.123417  0  0.979611  0
H  H10  1  0.95153646  0.25782069  0.31852735  1  0  0.113516  0  0.927756  0  0  0.125884  0  0.978764  0  0  0.129244  0  0.977928  0  0.079579  0  0.112966  0.123386  0  0.979629  0
H  H11  1  0.04845927  0.75781628  0.68147587  1  0  0.113399  0  0.927759  0  0  0.125803  0  0.978751  0  0  0.129162  0  0.977917  0  0.079681  0  0.112926  0.123303  0  0.979619  0
H  H12  1  0.08459051  0.64322728  0.07564921  1  0  0.079382  0  0.963752  0  0  0.084172  0  1.035941  0  0  0.086527  0  1.033892  0  0.134227  0  0.110195  0.082306  0  1.037793  0
H  H13  1  0.91541404  0.14322735  0.92434692  1  0  0.079363  0  0.963742  0  0  0.084206  0  1.035864  0  0  0.086561  0  1.033817  0  0.134302  0  0.110204  0.082342  0  1.037714  0
H  H14  1  0.08458561  0.14322821  0.42435079  1  0  0.079399  0  0.963746  0  0  0.084189  0  1.035946  0  0  0.086542  0  1.0339  0  0.134218  0  0.110192  0.082324  0  1.037798  0
H  H15  1  0.91540719  0.64322815  0.57565244  1  0  0.07935  0  0.963652  0  0  0.084209  0  1.035767  0  0  0.086562  0  1.03372  0  0.134318  0  0.110191  0.082343  0  1.03762  0
H  H16  1  0.43797922  0.29891468  0.44755429  1  0  0.114444  0  0.952071  0  0  0.12304  0  1.014755  0  0  0.126026  0  1.012446  0  0.158359  0  0.111629  0.120782  0  1.016546  0
H  H17  1  0.56201847  0.79892156  0.55244442  1  0  0.114452  0  0.952062  0  0  0.123026  0  1.014774  0  0  0.126012  0  1.012463  0  0.158316  0  0.111626  0.120769  0  1.016564  0
H  H18  1  0.43798118  0.79891722  0.05244700  1  0  0.114449  0  0.952096  0  0  0.123067  0  1.014748  0  0  0.126052  0  1.012437  0  0.158374  0  0.111642  0.120809  0  1.01654  0
H  H19  1  0.56202141  0.29891208  0.94755364  1  0  0.11448  0  0.952029  0  0  0.123055  0  1.014744  0  0  0.126039  0  1.012434  0  0.158356  0  0.111641  0.120797  0  1.016533  0
H  H20  1  0.52911955  0.18134578  0.32768049  1  0  0.113389  0  0.925106  0  0  0.125853  0  0.975551  0  0  0.129242  0  0.974581  0  0.093122  0  0.1151  0.123289  0  0.976662  0
H  H21  1  0.47087521  0.68135440  0.67231693  1  0  0.113406  0  0.925024  0  0  0.125829  0  0.975527  0  0  0.129217  0  0.97456  0  0.093181  0  0.115097  0.123278  0  0.976622  0
H  H22  1  0.52912151  0.68135005  0.17232209  1  0  0.113359  0  0.925045  0  0  0.125819  0  0.975502  0  0  0.129207  0  0.974534  0  0.093179  0  0.115088  0.123255  0  0.976613  0
H  H23  1  0.47088206  0.18134404  0.82768049  1  0  0.113413  0  0.925038  0  0  0.125863  0  0.975506  0  0  0.12925  0  0.974538  0  0.093174  0  0.115088  0.123298  0  0.976618  0
H  H24  1  0.45346810  0.22263698  0.17606237  1  0  0.084248  0  0.95998  0  0  0.088094  0  1.030739  0  0  0.09112  0  1.027744  0  0.133985  0  0.110526  0.085849  0  1.032906  0
H  H25  1  0.54653058  0.72264300  0.82393635  1  0  0.084259  0  0.959971  0  0  0.088106  0  1.030728  0  0  0.091135  0  1.027729  0  0.134079  0  0.110521  0.085861  0  1.032895  0
H  H26  1  0.45346614  0.72264039  0.32393957  1  0  0.084203  0  0.959977  0  0  0.088023  0  1.030786  0  0  0.091049  0  1.027786  0  0.13405  0  0.110505  0.085779  0  1.03295  0
H  H27  1  0.54653449  0.22263612  0.67606172  1  0  0.084199  0  0.960011  0  0  0.088032  0  1.030791  0  0  0.091061  0  1.027792  0  0.133976  0  0.110495  0.085789  0  1.032956  0
H  H28  1  0.93107231  0.50428126  0.44544406  1  0  0.316776  0  0.921322  0  0  0.297627  0  0.991348  0  0  0.306758  0  0.981673  0  0.506369  0  0.303745  0.291099  0  0.998289  0
H  H29  1  0.06892636  0.00427525  0.55455143  1  0  0.316781  0  0.921369  0  0  0.297694  0  0.991332  0  0  0.306826  0  0.98165  0  0.506279  0  0.303729  0.291165  0  0.998278  0
H  H30  1  0.93107329  0.00428133  0.05455788  1  0  0.316782  0  0.921308  0  0  0.29764  0  0.991328  0  0  0.306768  0  0.981651  0  0.506406  0  0.303738  0.291115  0  0.998265  0
H  H31  1  0.06892832  0.50426823  0.94545244  1  0  0.316839  0  0.921266  0  0  0.297728  0  0.991248  0  0  0.306862  0  0.981573  0  0.506071  0  0.303761  0.2912  0  0.99819  0
H  H32  1  0.25628021  0.34109378  0.53941050  1  0  0.325739  0  0.906111  0  0  0.302327  0  0.978048  0  0  0.311516  0  0.969149  0  0.520121  0  0.308051  0.295944  0  0.984112  0
H  H33  1  0.74371063  0.84109197  0.46059143  1  0  0.325774  0  0.906075  0  0  0.302329  0  0.978029  0  0  0.311514  0  0.969141  0  0.520062  0  0.308051  0.29595  0  0.984082  0
H  H34  1  0.25628119  0.84109197  0.96059272  1  0  0.325717  0  0.90618  0  0  0.302255  0  0.978146  0  0  0.311439  0  0.969259  0  0.520134  0  0.308045  0.295879  0  0.984189  0
H  H35  1  0.74371259  0.34108943  0.03941179  1  0  0.325806  0  0.906  0  0  0.302367  0  0.977975  0  0  0.311555  0  0.969076  0  0.520026  0  0.308068  0.295983  0  0.98404  0
H  H36  1  0.09001817  0.72093846  0.45626591  1  0  0.325803  0  0.942188  0  0  0.305877  0  1.009241  0  0  0.314091  0  1.002213  0  0.538786  0  0.302507  0.299966  0  1.014572  0
H  H37  1  0.90998050  0.22094287  0.54373215  1  0  0.325775  0  0.942261  0  0  0.305859  0  1.009294  0  0  0.314071  0  1.002264  0  0.538628  0  0.302489  0.299948  0  1.014625  0
H  H38  1  0.09002209  0.22094113  0.04373473  1  0  0.325758  0  0.94223  0  0  0.305826  0  1.009282  0  0  0.314037  0  1.002253  0  0.538961  0  0.302472  0.299916  0  1.014612  0
H  H39  1  0.90998638  0.72093411  0.95626591  1  0  0.325756  0  0.942274  0  0  0.305862  0  1.009293  0  0  0.314072  0  1.002269  0  0.538731  0  0.30251  0.299953  0  1.014621  0
H  H40  1  0.44377311  0.55592046  0.46534041  1  0  0.328254  0  0.929821  0  0  0.304213  0  1.002605  0  0  0.313728  0  0.99368  0  0.54054  0  0.302727  0.297094  0  1.00947  0
H  H41  1  0.55622654  0.05592661  0.53465572  1  0  0.328181  0  0.929871  0  0  0.304175  0  1.002622  0  0  0.313692  0  0.993694  0  0.540574  0  0.302689  0.29706  0  1.009479  0
H  H42  1  0.44377409  0.05592053  0.03465830  1  0  0.328291  0  0.929802  0  0  0.304238  0  1.002601  0  0  0.313752  0  0.993677  0  0.540537  0  0.302734  0.297119  0  1.009461  0
H  H43  1  0.55623046  0.55592133  0.96534170  1  0  0.32819  0  0.929828  0  0  0.304147  0  1.002626  0  0  0.313661  0  0.993703  0  0.540598  0  0.302709  0.297031  0  1.009483  0
C  C44  1  0.06880690  0.40000290  0.50654274  1  0  0.753976  0  3.887378  0  0  0.682736  0  4.199946  0  0  0.717718  0  4.193051  0  1.910522  0  0.330961  0.658901  0  4.204012  0
C  C45  1  0.93118786  0.89999501  0.49345855  1  0  0.754  0  3.887477  0  0  0.682702  0  4.200109  0  0  0.717671  0  4.193224  0  1.910576  0  0.330968  0.658867  0  4.204173  0
C  C46  1  0.06880494  0.89999762  0.99345984  1  0  0.75417  0  3.88715  0  0  0.682897  0  4.199743  0  0  0.717873  0  4.19284  0  1.91055  0  0.331068  0.659065  0  4.203812  0
C  C47  1  0.93118884  0.39999074  0.00654468  1  0  0.75392  0  3.887501  0  0  0.682664  0  4.200077  0  0  0.717644  0  4.193192  0  1.910566  0  0.330941  0.658832  0  4.204136  0
C  C48  1  0.27769418  0.66298933  0.48345139  1  0  0.738879  0  3.904884  0  0  0.669719  0  4.209922  0  0  0.705173  0  4.204129  0  1.827475  0  0.323068  0.64569  0  4.212752  0
C  C49  1  0.72230743  0.16299375  0.51654023  1  0  0.73897  0  3.904989  0  0  0.669719  0  4.210135  0  0  0.705167  0  4.204341  0  1.827673  0  0.323047  0.645693  0  4.212962  0
C  C50  1  0.27769516  0.16299027  0.01654603  1  0  0.738887  0  3.905065  0  0  0.669681  0  4.210143  0  0  0.705131  0  4.204348  0  1.827475  0  0.323048  0.645652  0  4.212969  0
C  C51  1  0.72231037  0.66299020  0.98345204  1  0  0.738799  0  3.904716  0  0  0.669608  0  4.209831  0  0  0.705054  0  4.204046  0  1.827461  0  0.32298  0.645584  0  4.212654  0
C  C52  1  0.12875112  0.54413030  0.41055115  1  0  0.32797  0  3.594293  0  0  0.302848  0  3.840784  0  0  0.312716  0  3.853288  0  0.699302  0  0.202181  0.295942  0  3.832532  0
C  C53  1  0.87124755  0.04413384  0.58944499  1  0  0.32777  0  3.594251  0  0  0.302668  0  3.840726  0  0  0.312498  0  3.853295  0  0.699651  0  0.202055  0.295765  0  3.83247  0
C  C54  1  0.12875210  0.04413297  0.08944885  1  0  0.32796  0  3.594107  0  0  0.302846  0  3.840577  0  0  0.312686  0  3.853123  0  0.699333  0  0.202166  0.295942  0  3.832325  0
C  C55  1  0.87125049  0.54412595  0.91055437  1  0  0.328012  0  3.59405  0  0  0.302926  0  3.840467  0  0  0.312831  0  3.85285  0  0.699531  0  0.202239  0.295983  0  3.832315  0
C  C56  1  0.25475659  0.47274294  0.43539952  1  0  0.331  0  3.59418  0  0  0.305588  0  3.838179  0  0  0.315986  0  3.850273  0  0.709311  0  0.206124  0.298466  0  3.829861  0
C  C57  1  0.74524013  0.97274808  0.56459726  1  0  0.331113  0  3.594312  0  0  0.30573  0  3.838235  0  0  0.316131  0  3.850326  0  0.70978  0  0.206138  0.298589  0  3.82998  0
C  C58  1  0.25475757  0.97274374  0.06460048  1  0  0.330986  0  3.594246  0  0  0.305578  0  3.838259  0  0  0.315975  0  3.850354  0  0.709313  0  0.206092  0.298432  0  3.829999  0
C  C59  1  0.74524209  0.47274120  0.93540210  1  0  0.331019  0  3.594287  0  0  0.305613  0  3.838248  0  0  0.316006  0  3.850351  0  0.709644  0  0.206104  0.298485  0  3.829954  0
C  C60  1  0.11444316  0.57399970  0.31602073  1  0  -0.067273  0  3.667922  0  0  -0.053441  0  3.906402  0  0  -0.060287  0  3.930598  0  -0.002161  0  0.001465  -0.049099  0  3.890244  0
C  C61  1  0.88555845  0.07400411  0.68397540  1  0  -0.067071  0  3.667925  0  0  -0.053311  0  3.906444  0  0  -0.060144  0  3.930625  0  -0.002683  0  0.001466  -0.048972  0  3.890283  0
C  C62  1  0.11444316  0.07400324  0.18397927  1  0  -0.067161  0  3.667885  0  0  -0.053413  0  3.906395  0  0  -0.060251  0  3.930581  0  -0.002161  0  0.00146  -0.049071  0  3.890232  0
C  C63  1  0.88555943  0.57399709  0.81602331  1  0  -0.067071  0  3.667884  0  0  -0.053253  0  3.906336  0  0  -0.060095  0  3.930527  0  -0.002318  0  0.001504  -0.048904  0  3.890173  0
C  C64  1  0.02902523  0.66273565  0.29078885  1  0  -0.02045  0  3.66081  0  0  -0.047771  0  3.907425  0  0  -0.044312  0  3.924518  0  -0.022685  0  -0.064196  -0.049856  0  3.895817  0
C  C65  1  0.97097834  0.16273485  0.70920663  1  0  -0.020633  0  3.660945  0  0  -0.047911  0  3.907579  0  0  -0.044453  0  3.924664  0  -0.02286  0  -0.064247  -0.049995  0  3.895973  0
C  C66  1  0.02902425  0.16273746  0.20921050  1  0  -0.020467  0  3.660964  0  0  -0.047783  0  3.907571  0  0  -0.044325  0  3.924658  0  -0.022984  0  -0.064203  -0.04987  0  3.895965  0
C  C67  1  0.97097540  0.66273044  0.79079337  1  0  -0.020574  0  3.660905  0  0  -0.047912  0  3.907535  0  0  -0.044459  0  3.924634  0  -0.023094  0  -0.064245  -0.049992  0  3.895917  0
C  C68  1  0.01642302  0.68886410  0.20367002  1  0  -0.102602  0  3.71684  0  0  -0.11453  0  3.966995  0  0  -0.121125  0  3.987937  0  -0.016893  0  -0.078518  -0.110233  0  3.952769  0
C  C69  1  0.98358447  0.18886504  0.79632676  1  0  -0.102437  0  3.716708  0  0  -0.114391  0  3.966886  0  0  -0.120984  0  3.98783  0  -0.016927  0  -0.078392  -0.11009  0  3.952649  0
C  C70  1  0.01641910  0.18886504  0.29633062  1  0  -0.102646  0  3.716898  0  0  -0.114548  0  3.967067  0  0  -0.121141  0  3.988007  0  -0.016883  0  -0.07853  -0.110249  0  3.952838  0
C  C71  1  0.98357565  0.68886149  0.70367324  1  0  -0.10236  0  3.716745  0  0  -0.114299  0  3.966919  0  0  -0.120893  0  3.987866  0  -0.016839  0  -0.078374  -0.110003  0  3.952689  0
C  C72  1  0.09017484  0.62548426  0.14451269  1  0  0.132456  0  3.712273  0  0  0.098261  0  3.972463  0  0  0.104952  0  3.991635  0  0.474522  0  0.044236  0.093771  0  3.959538  0
C  C73  1  0.90982873  0.12548606  0.85548408  1  0  0.132392  0  3.712152  0  0  0.098142  0  3.972364  0  0  0.104829  0  3.991542  0  0.474461  0  0.044171  0.093653  0  3.959442  0
C  C74  1  0.09017191  0.12548693  0.35548731  1  0  0.132451  0  3.712242  0  0  0.098237  0  3.972419  0  0  0.104928  0  3.991595  0  0.474456  0  0.044245  0.093748  0  3.959497  0
C  C75  1  0.90982187  0.62548512  0.64451656  1  0  0.13242  0  3.71242  0  0  0.098157  0  3.972622  0  0  0.104846  0  3.9918  0  0.474477  0  0.044224  0.093669  0  3.959697  0
C  C76  1  0.18529363  0.51407585  0.25254626  1  0  0.150117  0  3.749766  0  0  0.137222  0  3.994772  0  0  0.143498  0  4.015851  0  0.469429  0  0.118983  0.13309  0  3.980141  0
C  C77  1  0.81470602  0.01408026  0.74744987  1  0  0.150151  0  3.749942  0  0  0.137312  0  3.994796  0  0  0.143588  0  4.015869  0  0.469883  0  0.119076  0.133188  0  3.980152  0
C  C78  1  0.18529265  0.01407852  0.24745374  1  0  0.150101  0  3.749831  0  0  0.137325  0  3.994673  0  0  0.1436  0  4.015748  0  0.469496  0  0.119071  0.133201  0  3.980026  0
C  C79  1  0.81470504  0.51407324  0.75254884  1  0  0.15006  0  3.749969  0  0  0.137233  0  3.994879  0  0  0.143503  0  4.015967  0  0.469719  0  0.11902  0.133101  0  3.980245  0
C  C80  1  0.27830226  0.42037136  0.27658702  1  0  0.150858  0  3.758116  0  0  0.13979  0  4.003397  0  0  0.145716  0  4.024615  0  0.500848  0  0.118466  0.136021  0  3.988644  0
C  C81  1  0.72169446  0.92037998  0.72340975  1  0  0.150824  0  3.758124  0  0  0.139821  0  4.003348  0  0  0.145747  0  4.024564  0  0.500695  0  0.11844  0.136052  0  3.988588  0
C  C82  1  0.27830324  0.92037564  0.22341427  1  0  0.150836  0  3.75804  0  0  0.139758  0  4.003333  0  0  0.145683  0  4.02455  0  0.500796  0  0.118369  0.135988  0  3.988573  0
C  C83  1  0.72169740  0.42037049  0.77658831  1  0  0.151035  0  3.758016  0  0  0.139889  0  4.003387  0  0  0.145813  0  4.024611  0  0.501034  0  0.118457  0.136123  0  3.988629  0
C  C84  1  0.31308318  0.40106281  0.36313866  1  0  -0.074509  0  3.676715  0  0  -0.061024  0  3.91567  0  0  -0.067934  0  3.940204  0  0.009219  0  -0.000745  -0.057008  0  3.899562  0
C  C85  1  0.68691059  0.90107229  0.63686005  1  0  -0.074489  0  3.6767  0  0  -0.061102  0  3.915747  0  0  -0.068013  0  3.94028  0  0.008635  0  -0.000789  -0.057082  0  3.899636  0
C  C86  1  0.31308514  0.90106621  0.13686198  1  0  -0.074579  0  3.676692  0  0  -0.061147  0  3.915744  0  0  -0.068055  0  3.940275  0  0.009334  0  -0.000772  -0.057129  0  3.899636  0
C  C87  1  0.68691647  0.40106281  0.86313995  1  0  -0.074543  0  3.676754  0  0  -0.061064  0  3.915764  0  0  -0.067973  0  3.940302  0  0.009148  0  -0.000735  -0.057045  0  3.89965  0
C  C88  1  0.40515570  0.31482719  0.38168470  1  0  -0.018765  0  3.666151  0  0  -0.048398  0  3.919363  0  0  -0.04534  0  3.937751  0  -0.06485  0  -0.064994  -0.050188  0  3.907201  0
C  C89  1  0.59483905  0.81483668  0.61831465  1  0  -0.018825  0  3.666266  0  0  -0.048433  0  3.919502  0  0  -0.045376  0  3.937897  0  -0.064729  0  -0.064976  -0.050226  0  3.907343  0
C  C90  1  0.40515766  0.81483060  0.11831723  1  0  -0.018755  0  3.666197  0  0  -0.048397  0  3.919423  0  0  -0.045339  0  3.937815  0  -0.064865  0  -0.064982  -0.050187  0  3.907257  0
C  C91  1  0.59484395  0.31482545  0.88168470  1  0  -0.018784  0  3.666194  0  0  -0.048413  0  3.919448  0  0  -0.045345  0  3.937816  0  -0.064757  0  -0.064972  -0.050202  0  3.907285  0
C  C92  1  0.45687862  0.24874371  0.31475163  1  0  -0.09512  0  3.712593  0  0  -0.108233  0  3.964454  0  0  -0.114235  0  3.984849  0  -0.011836  0  -0.07566  -0.10461  0  3.951059  0
C  C93  1  0.54311613  0.74875407  0.68524837  1  0  -0.095055  0  3.712628  0  0  -0.108141  0  3.964477  0  0  -0.114144  0  3.984876  0  -0.011834  0  -0.075647  -0.104529  0  3.951079  0
C  C94  1  0.45687960  0.74874886  0.18525031  1  0  -0.095085  0  3.712467  0  0  -0.108185  0  3.964331  0  0  -0.114188  0  3.984727  0  -0.011861  0  -0.07562  -0.104561  0  3.950936  0
C  C95  1  0.54312201  0.24874198  0.81475098  1  0  -0.095132  0  3.712579  0  0  -0.108227  0  3.964433  0  0  -0.11423  0  3.984832  0  -0.011916  0  -0.075657  -0.104603  0  3.951039  0
C  C96  1  0.41518851  0.27146048  0.23085228  1  0  0.127989  0  3.716349  0  0  0.097091  0  3.972742  0  0  0.103444  0  3.99112  0  0.499979  0  0.046247  0.093008  0  3.96011  0
C  C97  1  0.58480820  0.77146823  0.76914514  1  0  0.127898  0  3.716456  0  0  0.097016  0  3.972821  0  0  0.103372  0  3.991195  0  0.500096  0  0.046223  0.092935  0  3.960191  0
C  C98  1  0.41518753  0.77146475  0.26914966  1  0  0.128032  0  3.716373  0  0  0.097148  0  3.97281  0  0  0.103506  0  3.991182  0  0.499672  0  0.046233  0.093064  0  3.960177  0
C  C99  1  0.58481310  0.27145874  0.73085099  1  0  0.128033  0  3.716392  0  0  0.097147  0  3.972783  0  0  0.1035  0  3.991158  0  0.500293  0  0.046266  0.093063  0  3.960151  0
N  N100  1  0.02358386  0.46978562  0.44075308  1  0  -0.56343  0  3.154525  0  0  -0.521046  0  3.411192  0  0  -0.540722  0  3.410894  0  -1.196856  0  -0.433955  -0.507432  0  3.41123  0
N  N101  1  0.97641188  0.96978382  0.55924369  1  0  -0.563452  0  3.154593  0  0  -0.521132  0  3.411236  0  0  -0.540781  0  3.410922  0  -1.19654  0  -0.433965  -0.507515  0  3.411274  0
N  N102  1  0.02358386  0.96978642  0.05924885  1  0  -0.563546  0  3.15436  0  0  -0.521173  0  3.411051  0  0  -0.540825  0  3.410736  0  -1.196887  0  -0.434004  -0.507564  0  3.411093  0
N  N103  1  0.97641384  0.46977694  0.94075631  1  0  -0.563619  0  3.154514  0  0  -0.521266  0  3.411119  0  0  -0.540942  0  3.410791  0  -1.196346  0  -0.434024  -0.50764  0  3.411157  0
N  N104  1  0.20198005  0.40018273  0.50501518  1  0  -0.546732  0  3.175952  0  0  -0.495639  0  3.425059  0  0  -0.516671  0  3.426616  0  -1.24405  0  -0.419012  -0.480895  0  3.423254  0
N  N105  1  0.79801177  0.90018180  0.49498611  1  0  -0.546882  0  3.17599  0  0  -0.495726  0  3.425122  0  0  -0.516756  0  3.426685  0  -1.24413  0  -0.419053  -0.480979  0  3.423315  0
N  N106  1  0.20198005  0.90018180  0.99498675  1  0  -0.546769  0  3.176005  0  0  -0.495601  0  3.425178  0  0  -0.516632  0  3.426738  0  -1.244024  0  -0.419014  -0.480854  0  3.42337  0
N  N107  1  0.79801274  0.40017839  0.00501647  1  0  -0.546853  0  3.175905  0  0  -0.495733  0  3.425023  0  0  -0.516771  0  3.426589  0  -1.244079  0  -0.419092  -0.480986  0  3.423216  0
N  N108  1  0.14798541  0.64797514  0.46326757  1  0  -0.578264  0  3.165671  0  0  -0.527449  0  3.413732  0  0  -0.549169  0  3.416945  0  -1.207956  0  -0.435058  -0.512343  0  3.411521  0
N  N109  1  0.85201621  0.14797868  0.53672728  1  0  -0.578315  0  3.165811  0  0  -0.527424  0  3.413841  0  0  -0.549124  0  3.417044  0  -1.208195  0  -0.435019  -0.512316  0  3.411626  0
N  N110  1  0.14798638  0.14797608  0.03673050  1  0  -0.578274  0  3.165802  0  0  -0.527352  0  3.413766  0  0  -0.549051  0  3.416964  0  -1.208217  0  -0.435029  -0.512246  0  3.411552  0
N  N111  1  0.85202110  0.64797166  0.96327079  1  0  -0.578248  0  3.165571  0  0  -0.527479  0  3.413691  0  0  -0.549192  0  3.416886  0  -1.208075  0  -0.435123  -0.512367  0  3.411482  0
N  N112  1  0.34294269  0.56205923  0.46573487  1  0  -0.553287  0  3.19552  0  0  -0.5018  0  3.444528  0  0  -0.523323  0  3.445673  0  -1.239418  0  -0.423985  -0.486625  0  3.443476  0
N  N113  1  0.65705892  0.06206452  0.53425997  1  0  -0.553292  0  3.195696  0  0  -0.501805  0  3.444663  0  0  -0.523325  0  3.445805  0  -1.239396  0  -0.423945  -0.486634  0  3.443615  0
N  N114  1  0.34294171  0.06205930  0.03426319  1  0  -0.553349  0  3.195605  0  0  -0.501875  0  3.44468  0  0  -0.523399  0  3.445826  0  -1.23941  0  -0.423961  -0.486689  0  3.443622  0
N  N115  1  0.65706088  0.56205837  0.96573681  1  0  -0.553201  0  3.195403  0  0  -0.501723  0  3.444432  0  0  -0.523248  0  3.445586  0  -1.239611  0  -0.423927  -0.486545  0  3.443373  0
N  N116  1  0.17246523  0.54063782  0.16822023  1  0  -0.324035  0  3.279552  0  0  -0.255569  0  3.561776  0  0  -0.273637  0  3.577588  0  -1.203765  0  -0.325563  -0.24317  0  3.550781  0
N  N117  1  0.82753639  0.04064136  0.83177591  1  0  -0.324183  0  3.2797  0  0  -0.255696  0  3.561874  0  0  -0.273764  0  3.577689  0  -1.203949  0  -0.325647  -0.243299  0  3.550877  0
N  N118  1  0.17246327  0.04064136  0.33178042  1  0  -0.324055  0  3.27951  0  0  -0.255592  0  3.561665  0  0  -0.273659  0  3.577476  0  -1.203668  0  -0.325574  -0.243194  0  3.550665  0
N  N119  1  0.82753051  0.54063955  0.66822345  1  0  -0.324098  0  3.279846  0  0  -0.255609  0  3.562024  0  0  -0.273678  0  3.577843  0  -1.203868  0  -0.325603  -0.243211  0  3.551031  0
N  N120  1  0.32915174  0.35575090  0.21235522  1  0  -0.332382  0  3.248626  0  0  -0.2703  0  3.531088  0  0  -0.286964  0  3.545521  0  -1.202994  0  -0.323412  -0.258844  0  3.520955  0
N  N121  1  0.67084694  0.85575605  0.78764349  1  0  -0.332288  0  3.248652  0  0  -0.270251  0  3.531106  0  0  -0.286913  0  3.545536  0  -1.20305  0  -0.32335  -0.258796  0  3.520973  0
N  N122  1  0.32915076  0.85575431  0.28764607  1  0  -0.33231  0  3.24866  0  0  -0.270258  0  3.531161  0  0  -0.28692  0  3.545589  0  -1.202808  0  -0.32335  -0.258802  0  3.521029  0
N  N123  1  0.67085085  0.35575003  0.71235586  1  0  -0.332483  0  3.248586  0  0  -0.270383  0  3.531081  0  0  -0.287047  0  3.545513  0  -1.203406  0  -0.323407  -0.258928  0  3.52095  0
N  N124  1  0.31559579  0.62754760  0.94021231  1  0  0.695077  0  4.146769  0  0  0.736007  0  4.421468  0  0  0.764695  0  4.427877  0  0.877377  0  0.101629  0.716711  0  4.416645  0
N  N125  1  0.68440876  0.12755028  0.05978769  1  0  0.69517  0  4.14674  0  0  0.736165  0  4.421362  0  0  0.764852  0  4.427777  0  0.878537  0  0.101676  0.716868  0  4.416542  0
N  N126  1  0.31559090  0.12755114  0.55978833  1  0  0.695194  0  4.146729  0  0  0.736187  0  4.421353  0  0  0.764887  0  4.427753  0  0.878504  0  0.101657  0.716891  0  4.416531  0
N  N127  1  0.68441071  0.62755021  0.44021489  1  0  0.695084  0  4.146917  0  0  0.736055  0  4.421588  0  0  0.764748  0  4.428001  0  0.878544  0  0.101606  0.716759  0  4.416766  0
O  O128  1  0.32750180  0.75365310  0.51325242  1  0  -0.605819  0  1.976737  0  0  -0.545502  0  2.226007  0  0  -0.5702  0  2.212128  0  -1.163582  0  -0.322201  -0.528018  0  2.234671  0
O  O129  1  0.67250177  0.25365665  0.48673791  1  0  -0.605738  0  1.976597  0  0  -0.545443  0  2.225928  0  0  -0.57015  0  2.212079  0  -1.163747  0  -0.32216  -0.527959  0  2.234591  0
O  O130  1  0.32750278  0.25365317  0.98674500  1  0  -0.605779  0  1.976772  0  0  -0.545462  0  2.226072  0  0  -0.570161  0  2.212196  0  -1.163659  0  -0.322197  -0.52798  0  2.23474  0
O  O131  1  0.67250275  0.75365571  0.01324855  1  0  -0.605743  0  1.976632  0  0  -0.545429  0  2.225942  0  0  -0.570126  0  2.212066  0  -1.163572  0  -0.322125  -0.527946  0  2.234605  0
O  O132  1  0.99771813  0.34635596  0.55831555  1  0  -0.623382  0  1.998826  0  0  -0.572501  0  2.239185  0  0  -0.594935  0  2.226838  0  -1.206408  0  -0.309978  -0.556832  0  2.24755  0
O  O133  1  0.00226977  0.84633938  0.44169089  1  0  -0.623347  0  1.998988  0  0  -0.572443  0  2.239399  0  0  -0.594875  0  2.227059  0  -1.206531  0  -0.309939  -0.556776  0  2.247768  0
O  O134  1  0.99771911  0.84634980  0.94169154  1  0  -0.62337  0  1.998809  0  0  -0.572536  0  2.239271  0  0  -0.594968  0  2.226922  0  -1.206487  0  -0.310029  -0.556871  0  2.247642  0
O  O135  1  0.00226977  0.34634206  0.05831491  1  0  -0.623219  0  1.999007  0  0  -0.572362  0  2.239424  0  0  -0.594795  0  2.227076  0  -1.206587  0  -0.309891  -0.556697  0  2.247791  0
O  O136  1  0.38207515  0.53672311  0.95945962  1  0  -0.473263  0  1.845626  0  0  -0.45048  0  2.077717  0  0  -0.468655  0  2.065806  0  -0.560999  0  -0.193644  -0.437832  0  2.085864  0
O  O137  1  0.61793038  0.03672578  0.04053652  1  0  -0.473369  0  1.845675  0  0  -0.450652  0  2.077795  0  0  -0.468828  0  2.065882  0  -0.56127  0  -0.193695  -0.438005  0  2.085947  0
O  O138  1  0.38207025  0.03672752  0.54053845  1  0  -0.473362  0  1.845728  0  0  -0.450653  0  2.077853  0  0  -0.468834  0  2.065936  0  -0.561295  0  -0.193673  -0.438006  0  2.086004  0
O  O139  1  0.61793038  0.53672485  0.45946413  1  0  -0.473365  0  1.845668  0  0  -0.45066  0  2.077817  0  0  -0.46884  0  2.065903  0  -0.561287  0  -0.193715  -0.438012  0  2.085968  0
O  O140  1  0.19212154  0.62505769  0.94472346  1  0  -0.469515  0  1.809991  0  0  -0.461184  0  2.025394  0  0  -0.476531  0  2.017625  0  -0.596509  0  -0.181669  -0.450573  0  2.030815  0
O  O141  1  0.80788399  0.12505863  0.05527976  1  0  -0.46948  0  1.809859  0  0  -0.461179  0  2.025273  0  0  -0.476517  0  2.017485  0  -0.596602  0  -0.181679  -0.450571  0  2.030698  0
O  O142  1  0.19211567  0.12505949  0.55528041  1  0  -0.469469  0  1.809812  0  0  -0.46119  0  2.025248  0  0  -0.476529  0  2.017446  0  -0.59661  0  -0.181673  -0.450581  0  2.030675  0
O  O143  1  0.80788497  0.62505856  0.44472346  1  0  -0.469423  0  1.809988  0  0  -0.461131  0  2.02545  0  0  -0.476442  0  2.01762  0  -0.59666  0  -0.181638  -0.450519  0  2.03087  0
O  O144  1  0.37394491  0.71947022  0.91793179  1  0  -0.450714  0  1.754788  0  0  -0.443786  0  1.953091  0  0  -0.457766  0  1.945251  0  -0.546944  0  -0.177424  -0.434211  0  1.958234  0
O  O145  1  0.62605964  0.21947029  0.08206756  1  0  -0.450648  0  1.75488  0  0  -0.443769  0  1.953212  0  0  -0.457744  0  1.945364  0  -0.547697  0  -0.177366  -0.434186  0  1.95835  0
O  O146  1  0.37394002  0.21947290  0.58206821  1  0  -0.450688  0  1.754837  0  0  -0.443816  0  1.953163  0  0  -0.457807  0  1.945324  0  -0.54767  0  -0.177392  -0.434239  0  1.958307  0
O  O147  1  0.62606160  0.71947109  0.41793502  1  0  -0.450621  0  1.754904  0  0  -0.443697  0  1.953199  0  0  -0.457689  0  1.945367  0  -0.54763  0  -0.177321  -0.434122  0  1.958341  0
