# generated using pymatgen
data_ZnH14C18I2(N2O)2
_symmetry_space_group_name_H-M   'P 1'
_cell_length_a   12.93271582
_cell_length_b   13.74616351
_cell_length_c   16.04326156
_cell_angle_alpha   101.41622224
_cell_angle_beta   113.75108435
_cell_angle_gamma   90.00595852
_symmetry_Int_Tables_number   1
_chemical_formula_structural   ZnH14C18I2(N2O)2
_chemical_formula_sum   'Zn4 H56 C72 I8 N16 O8'
_cell_volume   2548.73594348
_cell_formula_units_Z   4
loop_
 _symmetry_equiv_pos_site_id
 _symmetry_equiv_pos_as_xyz
  1  'x, y, z'
loop_
 _atom_site_type_symbol
 _atom_site_label
 _atom_site_symmetry_multiplicity
 _atom_site_fract_x
 _atom_site_fract_y
 _atom_site_fract_z
 _atom_site_occupancy
 _atom_site_pbe_bader_charge
 _atom_site_pbe_bader_spin_density
 _atom_site_pbe_cm5_charge
 _atom_site_pbe_ddec_charge
 _atom_site_pbe_ddec_spin_density
 _atom_site_pbe_ddec_sum_bond_order
 _atom_site_pbe_magmom
Zn  Zn0  1  0.18912187  0.28213927  0.55183512  1  0.910476  0  0.455171  0.462983  0  2.782127  0
Zn  Zn1  1  0.63720762  0.21781012  0.44824698  1  0.910508  0  0.455268  0.462842  0  2.782632  0
Zn  Zn2  1  0.81087817  0.71786050  0.44816475  1  0.910471  0  0.455185  0.462987  0  2.782172  0
Zn  Zn3  1  0.36279122  0.78218964  0.55175255  1  0.910547  0  0.455259  0.462806  0  2.78269  0
H  H4  1  0.02310438  0.34032195  0.13226106  1  0.504899  0  0.30338  0.270872  0  1.005118  0
H  H5  1  0.89093271  0.15972739  0.86778035  1  0.516136  0  0.303401  0.271208  0  1.004453  0
H  H6  1  0.97689573  0.65967856  0.86773897  1  0.504895  0  0.303379  0.270867  0  1.005113  0
H  H7  1  0.10906725  0.84027163  0.13221937  1  0.51613  0  0.30341  0.27122  0  1.004433  0
H  H8  1  0.74560396  0.41488638  0.78772551  1  0.505425  0  0.310005  0.274639  0  0.987557  0
H  H9  1  0.95789684  0.08512783  0.21232190  1  0.491695  0  0.309994  0.274543  0  0.987585  0
H  H10  1  0.25439602  0.58511339  0.21227347  1  0.505383  0  0.310039  0.274631  0  0.98753  0
H  H11  1  0.04210382  0.91487194  0.78767860  1  0.491696  0  0.309986  0.274547  0  0.987599  0
H  H12  1  0.35499828  0.27473214  0.46145346  1  0.115962  0  0.104109  0.078222  0  1.033345  0
H  H13  1  0.89336436  0.22543175  0.53853493  1  0.091873  0  0.103848  0.077993  0  1.033487  0
H  H14  1  0.64500056  0.72526762  0.53854607  1  0.115947  0  0.104112  0.078221  0  1.033375  0
H  H15  1  0.10663498  0.77456727  0.46146417  1  0.091859  0  0.103858  0.078036  0  1.033446  0
H  H16  1  0.35437884  0.31160704  0.31568186  1  0.120356  0  0.107067  0.118965  0  1.01063  0
H  H17  1  0.03853953  0.18850385  0.68418589  1  0.12319  0  0.106879  0.118679  0  1.010919  0
H  H18  1  0.64562204  0.68839496  0.68431909  1  0.120345  0  0.107042  0.118942  0  1.010591  0
H  H19  1  0.96145996  0.81149666  0.31581351  1  0.123115  0  0.106869  0.118661  0  1.010949  0
H  H20  1  0.04055823  0.44761874  0.27471219  1  0.112656  0  0.104571  0.120684  0  1.019133  0
H  H21  1  0.76586883  0.05237278  0.72538672  1  0.097336  0  0.104313  0.120029  0  1.019547  0
H  H22  1  0.95944123  0.55238103  0.72528797  1  0.11267  0  0.104566  0.120655  0  1.01916  0
H  H23  1  0.23413071  0.94762773  0.27461359  1  0.097355  0  0.104321  0.120072  0  1.019531  0
H  H24  1  0.05955509  0.41413240  0.42710331  1  0.105777  0  0.098787  0.072723  0  1.046087  0
H  H25  1  0.63246000  0.08576626  0.57298730  1  0.108225  0  0.09887  0.072818  0  1.046666  0
H  H26  1  0.94044432  0.58586737  0.57289595  1  0.105787  0  0.098797  0.072752  0  1.046078  0
H  H27  1  0.36754003  0.91423350  0.42701257  1  0.108242  0  0.098858  0.072782  0  1.046672  0
H  H28  1  0.87793867  0.35430632  0.99974950  1  0.098265  0  0.116468  0.143201  0  0.984392  0
H  H29  1  0.87824351  0.14563199  0.00030275  1  0.117984  0  0.116411  0.143209  0  0.984072  0
H  H30  1  0.12206087  0.64569419  0.00025080  1  0.098351  0  0.116466  0.143191  0  0.984458  0
H  H31  1  0.12175715  0.85436778  0.99969775  1  0.117973  0  0.116446  0.143292  0  0.984053  0
H  H32  1  0.22182914  0.39865620  0.02911286  1  0.117827  0  0.107431  0.127186  0  1.011936  0
H  H33  1  0.19269759  0.10140060  0.97078482  1  0.118571  0  0.107197  0.1269  0  1.011722  0
H  H34  1  0.77817019  0.60134282  0.97088624  1  0.117805  0  0.107426  0.127181  0  1.011934  0
H  H35  1  0.80730315  0.89859991  0.02921583  1  0.11858  0  0.107203  0.126893  0  1.011723  0
H  H36  1  0.14900208  0.40679755  0.86111706  1  0.080482  0  0.09626  0.097882  0  1.011951  0
H  H37  1  0.28784132  0.09319407  0.13875750  1  0.051405  0  0.096149  0.097494  0  1.011178  0
H  H38  1  0.85099668  0.59320147  0.13888232  1  0.080476  0  0.096253  0.09786  0  1.011975  0
H  H39  1  0.71215929  0.90680570  0.86124210  1  0.051424  0  0.096146  0.097493  0  1.011192  0
H  H40  1  0.94187708  0.38629394  0.76232546  1  0.059816  0  0.096453  0.110623  0  1.023665  0
H  H41  1  0.17952912  0.11373443  0.23764350  1  0.062466  0  0.096867  0.110819  0  1.02335  0
H  H42  1  0.05812287  0.61370508  0.23767426  1  0.059834  0  0.096431  0.110576  0  1.023644  0
H  H43  1  0.82047267  0.88626534  0.76235644  1  0.062494  0  0.09687  0.110835  0  1.023324  0
H  H44  1  0.38202188  0.43534522  0.66260856  1  0.091034  0  0.116901  0.089774  0  0.991131  0
H  H45  1  0.71951014  0.06455354  0.33754212  1  0.092182  0  0.117248  0.089769  0  0.99069  0
H  H46  1  0.61797698  0.56465529  0.33739022  1  0.09106  0  0.116901  0.089779  0  0.991152  0
H  H47  1  0.28048925  0.93544548  0.66245788  1  0.092198  0  0.117252  0.089796  0  0.990717  0
H  H48  1  0.58718705  0.44534464  0.76449211  1  0.143611  0  0.116365  0.135378  0  1.023623  0
H  H49  1  0.82278691  0.05460490  0.23559854  1  0.135238  0  0.116042  0.134955  0  1.02516  0
H  H50  1  0.41281369  0.55465587  0.23550854  1  0.143619  0  0.116349  0.135348  0  1.023636  0
H  H51  1  0.17721250  0.94539486  0.76440072  1  0.13524  0  0.116052  0.13497  0  1.025136  0
H  H52  1  0.55382584  0.12330671  0.72304381  1  0.142105  0  0.09765  0.115833  0  1.04825  0
H  H53  1  0.83063926  0.37662769  0.27693607  1  0.134697  0  0.098208  0.116197  0  1.047573  0
H  H54  1  0.44617484  0.87669380  0.27695594  1  0.142094  0  0.097651  0.115818  0  1.04824  0
H  H55  1  0.16936132  0.62337133  0.72306428  1  0.134685  0  0.098203  0.116185  0  1.047571  0
H  H56  1  0.34866826  0.12708383  0.61738121  1  0.119  0  0.10454  0.076544  0  1.036577  0
H  H57  1  0.73115751  0.37278491  0.38268057  1  0.135489  0  0.104694  0.076479  0  1.036111  0
H  H58  1  0.65133115  0.87291594  0.38261805  1  0.119013  0  0.104554  0.07657  0  1.036572  0
H  H59  1  0.26884252  0.62721486  0.61731930  1  0.135471  0  0.104691  0.0765  0  1.036101  0
C  C60  1  0.28743125  0.31402601  0.41879176  1  0.471602  0  0.044569  0.098288  0  3.919262  0
C  C61  1  0.86852522  0.18606773  0.58120409  1  0.505821  0  0.044807  0.097389  0  3.919565  0
C  C62  1  0.71256956  0.68597524  0.58120904  1  0.471635  0  0.044498  0.098202  0  3.919323  0
C  C63  1  0.13147474  0.81393129  0.41879564  1  0.505823  0  0.044794  0.097361  0  3.919444  0
C  C64  1  0.28615573  0.33362665  0.33678687  1  0.00116  0  -0.074029  -0.126775  0  3.932259  0
C  C65  1  0.94925782  0.16645584  0.66316587  1  0.011674  0  -0.073261  -0.124924  0  3.931148  0
C  C66  1  0.71384446  0.66637461  0.66321331  1  0.00115  0  -0.073993  -0.126706  0  3.93215  0
C  C67  1  0.05074157  0.83354318  0.33683413  1  0.011572  0  -0.073262  -0.124934  0  3.931208  0
C  C68  1  0.19447841  0.37879320  0.28139984  1  -0.047544  0  0.007769  0.022597  0  3.956158  0
C  C69  1  0.91301406  0.12122598  0.71856997  1  -0.076714  0  0.006989  0.02148  0  3.958485  0
C  C70  1  0.80552178  0.62120805  0.71860034  1  -0.047549  0  0.007774  0.022584  0  3.95615  0
C  C71  1  0.08698359  0.87877379  0.28142921  1  -0.076536  0  0.007043  0.021579  0  3.958398  0
C  C72  1  0.11171187  0.40931786  0.31385314  1  0.01877  0  -0.083794  -0.148387  0  3.949287  0
C  C73  1  0.79784469  0.09067920  0.68619875  1  0.061864  0  -0.08248  -0.146721  0  3.949424  0
C  C74  1  0.88828705  0.59068265  0.68614654  1  0.018778  0  -0.083785  -0.148348  0  3.949302  0
C  C75  1  0.20215534  0.90932057  0.31380112  1  0.061891  0  -0.082551  -0.146898  0  3.949439  0
C  C76  1  0.12112151  0.39030132  0.39826347  1  0.475849  0  0.040928  0.096983  0  3.929699  0
C  C77  1  0.72282130  0.10967375  0.60179579  1  0.4328  0  0.040929  0.096988  0  3.929158  0
C  C78  1  0.87887803  0.60969919  0.60173683  1  0.475847  0  0.040898  0.096912  0  3.929752  0
C  C79  1  0.27717689  0.89032527  0.39820386  1  0.432805  0  0.040958  0.097072  0  3.929182  0
C  C80  1  0.18938871  0.39613766  0.19065896  1  1.394971  0  0.247525  0.480507  0  4.100137  0
C  C81  1  0.99865778  0.10380099  0.80925296  1  1.408398  0  0.247039  0.479743  0  4.102066  0
C  C82  1  0.81061140  0.60386285  0.80934107  1  1.394976  0  0.24752  0.480499  0  4.10011  0
C  C83  1  0.00134163  0.89619878  0.19074629  1  1.408393  0  0.247007  0.479721  0  4.102179  0
C  C84  1  0.93761495  0.36530989  0.96938691  1  0.032789  0  -0.089701  -0.262337  0  3.910474  0
C  C85  1  0.96825495  0.13468318  0.03063239  1  0.063647  0  -0.089448  -0.261743  0  3.909474  0
C  C86  1  0.06238446  0.63468987  0.03061235  1  0.032673  0  -0.089723  -0.26239  0  3.910501  0
C  C87  1  0.03174579  0.86531733  0.96936826  1  0.063626  0  -0.089454  -0.261828  0  3.909452  0
C  C88  1  0.05441212  0.37608393  0.02494204  1  0.354563  0  0.098759  0.258055  0  4.018883  0
C  C89  1  0.02948060  0.12394479  0.97503052  1  0.354541  0  0.097789  0.255753  0  4.021043  0
C  C90  1  0.94558729  0.62391584  0.97505722  1  0.354554  0  0.098832  0.258172  0  4.01879  0
C  C91  1  0.97052070  0.87605572  0.02496986  1  0.354513  0  0.097764  0.255692  0  4.021041  0
C  C92  1  0.13133386  0.39090116  0.98594725  1  0.083434  0  -0.094515  -0.178458  0  3.933986  0
C  C93  1  0.14536162  0.10910037  0.01396195  1  0.015286  0  -0.094151  -0.177789  0  3.933818  0
C  C94  1  0.86866618  0.60909860  0.01405263  1  0.083457  0  -0.094502  -0.178464  0  3.934026  0
C  C95  1  0.85463961  0.89089940  0.98603828  1  0.015307  0  -0.094174  -0.177773  0  3.933799  0
C  C96  1  0.08995859  0.39569976  0.89209834  1  -0.100366  0  -0.089806  -0.044712  0  4.021492  0
C  C97  1  0.19783396  0.10433326  0.10781054  1  -0.102544  0  -0.089553  -0.043991  0  4.019071  0
C  C98  1  0.91004082  0.60430001  0.10790091  1  -0.100384  0  -0.0898  -0.044733  0  4.021576  0
C  C99  1  0.80216726  0.89566650  0.89218968  1  -0.102571  0  -0.089508  -0.043943  0  4.019078  0
C  C100  1  0.97378566  0.38499409  0.83618865  1  -0.053251  0  -0.10233  -0.191194  0  3.979905  0
C  C101  1  0.13760095  0.11502144  0.16377906  1  -0.013026  0  -0.103179  -0.191683  0  3.97823  0
C  C102  1  0.02621305  0.61500494  0.16380983  1  -0.053225  0  -0.102287  -0.191072  0  3.979861  0
C  C103  1  0.86240033  0.88497833  0.83622206  1  -0.013009  0  -0.103219  -0.191768  0  3.978276  0
C  C104  1  0.89829838  0.36940090  0.87568991  1  0.297187  0  0.08512  0.238695  0  4.051691  0
C  C105  1  0.02262425  0.13059046  0.12432079  1  0.30551  0  0.085594  0.239605  0  4.050662  0
C  C106  1  0.10170047  0.63059886  0.12430962  1  0.297197  0  0.085126  0.238721  0  4.051605  0
C  C107  1  0.97737584  0.86940931  0.87567999  1  0.305494  0  0.085653  0.239747  0  4.050446  0
C  C108  1  0.71064534  0.27929881  0.81098618  1  1.417584  0  0.24485  0.475838  0  4.115822  0
C  C109  1  0.89970179  0.22072047  0.18909684  1  1.406421  0  0.245689  0.478706  0  4.112687  0
C  C110  1  0.28935477  0.72070170  0.18901385  1  1.417602  0  0.24481  0.475813  0  4.115895  0
C  C111  1  0.10029832  0.77928004  0.81090319  1  1.40641  0  0.245703  0.478762  0  4.112707  0
C  C112  1  0.42385416  0.36803125  0.67775427  1  0.514911  0  0.052894  0.101498  0  3.915575  0
C  C113  1  0.74614263  0.13187173  0.32234986  1  0.498581  0  0.052439  0.101649  0  3.914612  0
C  C114  1  0.57614596  0.63196926  0.32224576  1  0.514892  0  0.052879  0.10148  0  3.915579  0
C  C115  1  0.25385684  0.86812803  0.67765030  1  0.498569  0  0.052444  0.101633  0  3.914662  0
C  C116  1  0.53867073  0.37265010  0.73485870  1  -0.094612  0  -0.074362  -0.146927  0  3.919294  0
C  C117  1  0.80387745  0.12729605  0.26523926  1  -0.010807  0  -0.073331  -0.145525  0  3.920257  0
C  C118  1  0.46132931  0.62734966  0.26514118  1  -0.094604  0  -0.074347  -0.14689  0  3.919244  0
C  C119  1  0.19612258  0.87270371  0.73476061  1  -0.010813  0  -0.073338  -0.145539  0  3.920291  0
C  C120  1  0.58737920  0.28365351  0.75206401  1  0.043527  0  0.011674  0.028168  0  3.947089  0
C  C121  1  0.83527883  0.21631422  0.24798049  1  -0.028812  0  0.01145  0.026301  0  3.947229  0
C  C122  1  0.41262161  0.71634774  0.24793679  1  0.043478  0  0.011643  0.028145  0  3.947139  0
C  C123  1  0.16472121  0.78368555  0.75201938  1  -0.02877  0  0.011443  0.026268  0  3.94726  0
C  C124  1  0.51873263  0.19384427  0.71107992  1  0.008916  0  -0.072519  -0.128883  0  3.92245  0
C  C125  1  0.80757024  0.30610543  0.28896490  1  -0.05399  0  -0.073239  -0.128849  0  3.920663  0
C  C126  1  0.48126748  0.80615624  0.28892011  1  0.008971  0  -0.072509  -0.128835  0  3.922412  0
C  C127  1  0.19243105  0.69389434  0.71103622  1  -0.054034  0  -0.073208  -0.128777  0  3.920586  0
C  C128  1  0.40522357  0.19534911  0.65329446  1  0.420343  0  0.049649  0.097564  0  3.908797  0
C  C129  1  0.75184436  0.30455744  0.34677000  1  0.474074  0  0.049449  0.097374  0  3.90712  0
C  C130  1  0.59477709  0.80465065  0.34670604  1  0.420334  0  0.049659  0.097556  0  3.908764  0
C  C131  1  0.24815567  0.69544232  0.65322987  1  0.474095  0  0.049449  0.097339  0  3.906975  0
I  I132  1  0.09995970  0.40854913  0.63857984  1  -0.540299  0  -0.237244  -0.427985  0  1.352095  0
I  I133  1  0.46144972  0.09134900  0.36140699  1  -0.539855  0  -0.237219  -0.427819  0  1.352531  0
I  I134  1  0.90003976  0.59145064  0.36142032  1  -0.540286  0  -0.237233  -0.427968  0  1.352124  0
I  I135  1  0.53854912  0.90865077  0.63859254  1  -0.539849  0  -0.237208  -0.427798  0  1.352548  0
I  I136  1  0.09619183  0.10525606  0.47824466  1  -0.513632  0  -0.261018  -0.409113  0  1.371051  0
I  I137  1  0.61794895  0.39467931  0.52195146  1  -0.513808  0  -0.260896  -0.40908  0  1.371204  0
I  I138  1  0.90380758  0.89474370  0.52175459  1  -0.513598  0  -0.261016  -0.409118  0  1.371055  0
I  I139  1  0.38205063  0.60531671  0.47805601  1  -0.514098  0  -0.260898  -0.409069  0  1.3712  0
N  N140  1  0.20550075  0.34068647  0.44833241  1  -1.271658  0  -0.336198  -0.202112  0  3.591088  0
N  N141  1  0.75710615  0.15936514  0.55173111  1  -1.271248  0  -0.336804  -0.201994  0  3.592121  0
N  N142  1  0.79449921  0.65931255  0.55166732  1  -1.271681  0  -0.336143  -0.202038  0  3.591125  0
N  N143  1  0.24289500  0.84063388  0.44826897  1  -1.271276  0  -0.33681  -0.20201  0  3.592068  0
N  N144  1  0.08662679  0.36936162  0.11821365  1  -1.267057  0  -0.388201  -0.371685  0  3.599339  0
N  N145  1  0.96844691  0.13066708  0.88177275  1  -1.269301  0  -0.387444  -0.370861  0  3.598522  0
N  N146  1  0.91337340  0.63063964  0.88178653  1  -1.267072  0  -0.388259  -0.371711  0  3.59928  0
N  N147  1  0.03155312  0.86933268  0.11822712  1  -1.269316  0  -0.387435  -0.37083  0  3.598508  0
N  N148  1  0.77971052  0.35825093  0.81993836  1  -1.289199  0  -0.396202  -0.378176  0  3.584723  0
N  N149  1  0.95980640  0.14177728  0.18011977  1  -1.279518  0  -0.396633  -0.379931  0  3.585596  0
N  N150  1  0.22028896  0.64174958  0.18006105  1  -1.289151  0  -0.396264  -0.378226  0  3.584654  0
N  N151  1  0.04019490  0.85822323  0.81988061  1  -1.279507  0  -0.396676  -0.380033  0  3.585489  0
N  N152  1  0.35848099  0.28113594  0.63751510  1  -1.27096  0  -0.328654  -0.188741  0  3.580795  0
N  N153  1  0.72093218  0.21875288  0.36256407  1  -1.256354  0  -0.328695  -0.188683  0  3.579734  0
N  N154  1  0.64151856  0.71886457  0.36248521  1  -1.270973  0  -0.328645  -0.188754  0  3.580803  0
N  N155  1  0.27906786  0.78124688  0.63743581  1  -1.256353  0  -0.328717  -0.188693  0  3.579613  0
O  O156  1  0.27455330  0.43306008  0.18610382  1  -1.154835  0  -0.295997  -0.494633  0  2.1295  0
O  O157  1  0.08828828  0.06679549  0.81370657  1  -1.150998  0  -0.295676  -0.493706  0  2.130991  0
O  O158  1  0.72544673  0.56693968  0.81389606  1  -1.154833  0  -0.295989  -0.494642  0  2.129505  0
O  O159  1  0.91171119  0.93320428  0.18629359  1  -1.151012  0  -0.295654  -0.493697  0  2.131002  0
O  O160  1  0.74499413  0.20559820  0.84569602  1  -1.160835  0  -0.294648  -0.494067  0  2.152754  0
O  O161  1  0.89934514  0.29442166  0.15438040  1  -1.157573  0  -0.295242  -0.495155  0  2.152248  0
O  O162  1  0.25500492  0.79440305  0.15430471  1  -1.160858  0  -0.294599  -0.494037  0  2.152878  0
O  O163  1  0.10065559  0.70557885  0.84562025  1  -1.157564  0  -0.295256  -0.495185  0  2.15226  0
