# generated using pymatgen
data_CaH10C13S2N4(OF)6
_symmetry_space_group_name_H-M   'P 1'
_cell_length_a   8.84675443
_cell_length_b   10.21114281
_cell_length_c   11.12328133
_cell_angle_alpha   91.67329453
_cell_angle_beta   98.14303433
_cell_angle_gamma   100.60671472
_symmetry_Int_Tables_number   1
_chemical_formula_structural   CaH10C13S2N4(OF)6
_chemical_formula_sum   'Ca2 H20 C26 S4 N8 O12 F12'
_cell_volume   976.12142056
_cell_formula_units_Z   2
loop_
 _symmetry_equiv_pos_site_id
 _symmetry_equiv_pos_as_xyz
  1  'x, y, z'
loop_
 _atom_site_type_symbol
 _atom_site_label
 _atom_site_symmetry_multiplicity
 _atom_site_fract_x
 _atom_site_fract_y
 _atom_site_fract_z
 _atom_site_occupancy
 _atom_site_pbe_bader_spin_density
 _atom_site_pbe_cm5_charge
 _atom_site_pbe_ddec_charge
 _atom_site_pbe_ddec_spin_density
 _atom_site_pbe_ddec_sum_bond_order
 _atom_site_pbe_magmom
Ca  Ca0  1  0.20279238  0.32825976  0.46648662  1  0  0.930866  1.308806  0  1.583472  0
Ca  Ca1  1  0.79720805  0.67173944  0.53351270  1  0  0.930873  1.308818  0  1.583466  0
H  H2  1  0.20834124  0.38431858  0.16190051  1  0  0.106986  0.070554  0  1.035251  0
H  H3  1  0.79166011  0.61567964  0.83809888  1  0  0.106973  0.07052  0  1.03527  0
H  H4  1  0.29733085  0.30394667  0.97475707  1  0  0.095345  0.107569  0  1.033112  0
H  H5  1  0.70267186  0.69605254  0.02524340  1  0  0.09536  0.107578  0  1.033192  0
H  H6  1  0.41691112  0.09780245  0.98430000  1  0  0.099644  0.096208  0  1.012181  0
H  H7  1  0.58309160  0.90219676  0.01570137  1  0  0.099622  0.096166  0  1.012184  0
H  H8  1  0.43687974  0.98067363  0.17924973  1  0  0.100472  0.114185  0  1.033677  0
H  H9  1  0.56312183  0.01932557  0.82075242  1  0  0.100484  0.114192  0  1.033695  0
H  H10  1  0.28265505  0.92515231  0.56616050  1  0  0.123489  0.117154  0  0.997957  0
H  H11  1  0.71734538  0.07484690  0.43384062  1  0  0.123471  0.117156  0  0.997934  0
H  H12  1  0.17597926  0.89445555  0.75687213  1  0  0.101508  0.108747  0  1.055381  0
H  H13  1  0.82401796  0.10554464  0.24312956  1  0  0.101485  0.108705  0  1.055389  0
H  H14  1  0.01625484  0.96466341  0.90696984  1  0  0.105059  0.101256  0  1.001101  0
H  H15  1  0.98374303  0.03533978  0.09303021  1  0  0.105072  0.101238  0  1.001097  0
H  H16  1  0.91302953  0.17824931  0.87563355  1  0  0.099175  0.108925  0  1.020784  0
H  H17  1  0.08697063  0.82175389  0.12436406  1  0  0.099178  0.108917  0  1.020812  0
H  H18  1  0.97568890  0.30884602  0.69692666  1  0  0.114836  0.083564  0  1.026159  0
H  H19  1  0.02431038  0.69115320  0.30306894  1  0  0.114845  0.083576  0  1.026146  0
H  H20  1  0.36005022  0.96058970  0.37698788  1  0  0.320709  0.270615  0  0.98554  0
H  H21  1  0.63995157  0.03941050  0.62301342  1  0  0.32073  0.270618  0  0.985541  0
C  C22  1  0.25892240  0.29480967  0.16148106  1  0  0.045059  0.116389  0  4.000569  0
C  C23  1  0.74107918  0.70518954  0.83851929  1  0  0.045042  0.116382  0  4.000615  0
C  C24  1  0.30871243  0.25004603  0.05743780  1  0  -0.105706  -0.16763  0  4.002865  0
C  C25  1  0.69129029  0.74995319  0.94256268  1  0  -0.105695  -0.167642  0  4.002998  0
C  C26  1  0.37491717  0.13545213  0.06343634  1  0  -0.075538  -0.013118  0  4.003167  0
C  C27  1  0.62508554  0.86454708  0.93656414  1  0  -0.075504  -0.012984  0  4.003233  0
C  C28  1  0.38612474  0.06993432  0.17067954  1  0  -0.095159  -0.222479  0  3.951465  0
C  C29  1  0.61387704  0.93006588  0.82932176  1  0  -0.095237  -0.222635  0  3.951523  0
C  C30  1  0.32942758  0.12163295  0.27024814  1  0  0.235547  0.359233  0  4.064832  0
C  C31  1  0.67057306  0.87836726  0.72975214  1  0  0.23563  0.359359  0  4.064745  0
C  C32  1  0.24080097  0.01950905  0.55653307  1  0  0.058515  -0.038616  0  3.905109  0
C  C33  1  0.75919946  0.98049015  0.44346805  1  0  0.058564  -0.038592  0  3.905114  0
C  C34  1  0.15580909  0.06311905  0.64802646  1  0  0.117202  0.208195  0  4.066831  0
C  C35  1  0.84419134  0.93688016  0.35197376  1  0  0.117205  0.20817  0  4.066858  0
C  C36  1  0.12911816  0.98541610  0.74744724  1  0  -0.080787  -0.161012  0  3.918118  0
C  C37  1  0.87088156  0.01458509  0.25255475  1  0  -0.080772  -0.16097  0  3.918134  0
C  C38  1  0.04110708  0.02574880  0.83078477  1  0  -0.070758  -0.023983  0  3.985402  0
C  C39  1  0.95889079  0.97425439  0.16921528  1  0  -0.070759  -0.023984  0  3.985307  0
C  C40  1  0.98335212  0.14301794  0.81346150  1  0  -0.093213  -0.148842  0  3.97902  0
C  C41  1  0.01664689  0.85698526  0.18653598  1  0  -0.093224  -0.148774  0  3.978988  0
C  C42  1  0.01763908  0.21626976  0.71327581  1  0  0.054479  0.123002  0  3.960177  0
C  C43  1  0.98236064  0.78373145  0.28672259  1  0  0.054487  0.122946  0  3.960208  0
C  C44  1  0.57013443  0.33570669  0.78481353  1  0  0.295451  0.496413  0  4.081287  0
C  C45  1  0.42986257  0.66429251  0.21518451  1  0  0.295484  0.496492  0  4.081306  0
C  C46  1  0.84205445  0.40573858  0.16174479  1  0  0.29219  0.499224  0  4.070678  0
C  C47  1  0.15794527  0.59426261  0.83825541  1  0  0.292193  0.499258  0  4.070664  0
S  S48  1  0.60929983  0.34459805  0.62492580  1  0  0.539482  1.06254  0  6.308314  0
S  S49  1  0.39069853  0.65540215  0.37507332  1  0  0.539494  1.062517  0  6.308384  0
S  S50  1  0.81733668  0.38101582  0.32452559  1  0  0.531961  1.050571  0  6.315222  0
S  S51  1  0.18266261  0.61898338  0.67547540  1  0  0.531952  1.050593  0  6.315156  0
N  N52  1  0.26867983  0.23329161  0.26706084  1  0  -0.363696  -0.398117  0  3.378868  0
N  N53  1  0.73132082  0.76670860  0.73293943  1  0  -0.363708  -0.398143  0  3.378898  0
N  N54  1  0.33214472  0.05418905  0.37616967  1  0  -0.27903  -0.191102  0  3.628483  0
N  N55  1  0.66785729  0.94581216  0.62383079  1  0  -0.279104  -0.191158  0  3.628441  0
N  N56  1  0.25890857  0.09280821  0.46431441  1  0  -0.245994  -0.149486  0  3.546695  0
N  N57  1  0.74109301  0.90719100  0.53568594  1  0  -0.245984  -0.149459  0  3.546668  0
N  N58  1  0.10202843  0.17881978  0.63214401  1  0  -0.355361  -0.354129  0  3.381525  0
N  N59  1  0.89797107  0.82118042  0.36785524  1  0  -0.355398  -0.354138  0  3.38153  0
O  O60  1  0.46097617  0.36022644  0.55736238  1  0  -0.36345  -0.590842  0  2.369513  0
O  O61  1  0.53902377  0.63977576  0.44263608  1  0  -0.363439  -0.590839  0  2.369534  0
O  O62  1  0.65633366  0.21831472  0.60217945  1  0  -0.318523  -0.560681  0  2.304699  0
O  O63  1  0.34366584  0.78168549  0.39781890  1  0  -0.318547  -0.560696  0  2.304758  0
O  O64  1  0.95294946  0.32285757  0.37005454  1  0  -0.38632  -0.613692  0  2.325715  0
O  O65  1  0.04705097  0.67714164  0.62994658  1  0  -0.3863  -0.613687  0  2.325688  0
O  O66  1  0.66974110  0.29087960  0.31782558  1  0  -0.313441  -0.523971  0  2.222638  0
O  O67  1  0.33025933  0.70911961  0.68217374  1  0  -0.313441  -0.523971  0  2.222575  0
O  O68  1  0.82616134  0.51656992  0.37442057  1  0  -0.352361  -0.598423  0  2.348966  0
O  O69  1  0.17383794  0.48342929  0.62557952  1  0  -0.352364  -0.598449  0  2.348966  0
O  O70  1  0.73295328  0.46195188  0.62946709  1  0  -0.34928  -0.585202  0  2.305997  0
O  O71  1  0.26704623  0.53804832  0.37053306  1  0  -0.349277  -0.585211  0  2.30605  0
F  F72  1  0.46187935  0.22415108  0.79528408  1  0  -0.083223  -0.18346  0  1.399498  0
F  F73  1  0.53811629  0.77584713  0.20471108  1  0  -0.083212  -0.183471  0  1.39953  0
F  F74  1  0.51567293  0.44250122  0.82151667  1  0  -0.074724  -0.158339  0  1.42684  0
F  F75  1  0.48432521  0.55749799  0.17848149  1  0  -0.074729  -0.158379  0  1.426815  0
F  F76  1  0.70202523  0.32720532  0.86070302  1  0  -0.093155  -0.184207  0  1.40181  0
F  F77  1  0.29796769  0.67279088  0.13929537  1  0  -0.093199  -0.18423  0  1.401826  0
F  F78  1  0.72368417  0.45688405  0.10273810  1  0  -0.089916  -0.173772  0  1.410349  0
F  F79  1  0.27631669  0.54311715  0.89726403  1  0  -0.089927  -0.173822  0  1.410308  0
F  F80  1  0.84399126  0.28650845  0.10413923  1  0  -0.092344  -0.182011  0  1.369011  0
F  F81  1  0.15600825  0.71349176  0.89586001  1  0  -0.092336  -0.182011  0  1.36906  0
F  F82  1  0.97742317  0.48958447  0.15153669  1  0  -0.08599  -0.179999  0  1.394881  0
F  F83  1  0.02257954  0.51041474  0.84846469  1  0  -0.085993  -0.179992  0  1.39488  0
