# generated using pymatgen
data_CuH9C10IN2
_symmetry_space_group_name_H-M   'P 1'
_cell_length_a   13.06447326
_cell_length_b   17.19894110
_cell_length_c   17.19889647
_cell_angle_alpha   81.72084551
_cell_angle_beta   67.67689158
_cell_angle_gamma   67.67701548
_symmetry_Int_Tables_number   1
_chemical_formula_structural   CuH9C10IN2
_chemical_formula_sum   'Cu8 H72 C80 I8 N16'
_cell_volume   3306.97698774
_cell_formula_units_Z   8
loop_
 _symmetry_equiv_pos_site_id
 _symmetry_equiv_pos_as_xyz
  1  'x, y, z'
loop_
 _atom_site_type_symbol
 _atom_site_label
 _atom_site_symmetry_multiplicity
 _atom_site_fract_x
 _atom_site_fract_y
 _atom_site_fract_z
 _atom_site_occupancy
 _atom_site_pbe_bader_charge
 _atom_site_pbe_bader_spin_density
 _atom_site_pbe_cm5_charge
 _atom_site_pbe_ddec_charge
 _atom_site_pbe_ddec_spin_density
 _atom_site_pbe_ddec_sum_bond_order
 _atom_site_pbe_magmom
Cu  Cu0  1  0.36478874  0.24995512  0.77055704  1  0.563406  0  0.400448  0.260096  0  2.621682  0
Cu  Cu1  1  0.88528397  0.25005716  0.72943987  1  0.562012  0  0.4003  0.260452  0  2.621944  0
Cu  Cu2  1  0.63521152  0.22944394  0.75004480  1  0.563395  0  0.400442  0.26009  0  2.621708  0
Cu  Cu3  1  0.11471728  0.27055967  0.74994204  1  0.561993  0  0.400294  0.260442  0  2.621875  0
Cu  Cu4  1  0.63520420  0.75004549  0.22945031  1  0.563255  0  0.400415  0.26004  0  2.621597  0
Cu  Cu5  1  0.11471806  0.74994157  0.27055442  1  0.561955  0  0.400247  0.260427  0  2.621795  0
Cu  Cu6  1  0.36479656  0.77054976  0.24995504  1  0.563264  0  0.400409  0.260032  0  2.621554  0
Cu  Cu7  1  0.88528280  0.72944534  0.25005848  1  0.561961  0  0.400276  0.260423  0  2.621836  0
H  H8  1  0.20161142  0.18957431  0.95284635  1  0.074614  0  0.099046  0.11089  0  0.95828  0
H  H9  1  0.24964169  0.15411301  0.84951955  1  0.106741  0  0.079498  0.092203  0  1.084702  0
H  H10  1  0.27865972  0.00759994  0.89766427  1  0.045135  0  0.092534  0.092606  0  0.96919  0
H  H11  1  0.13386678  0.07319585  0.95576117  1  0.063702  0  0.088166  0.102045  0  0.993466  0
H  H12  1  0.84377414  0.31061170  0.54735824  1  0.004336  0  0.098694  0.11051  0  0.958087  0
H  H13  1  0.75301795  0.34607344  0.65067893  1  0.118475  0  0.079535  0.092926  0  1.083883  0
H  H14  1  0.68356805  0.49258126  0.60248112  1  0.004508  0  0.092525  0.092816  0  0.96895  0
H  H15  1  0.66270689  0.42690094  0.54433003  1  0.054602  0  0.087876  0.101182  0  0.995302  0
H  H16  1  0.65430848  0.04740649  0.68957438  1  0.042213  0  0.098868  0.11098  0  0.958595  0
H  H17  1  0.59911151  0.15068381  0.65402645  1  0.094597  0  0.07905  0.09257  0  1.083613  0
H  H18  1  0.67609124  0.10235955  0.50759340  1  0.037701  0  0.092469  0.092559  0  0.969809  0
H  H19  1  0.58953187  0.04426284  0.57329754  1  0.055691  0  0.087826  0.101643  0  0.993592  0
H  H20  1  0.89121784  0.45263545  0.81051740  1  0.046753  0  0.098794  0.110863  0  0.958449  0
H  H21  1  0.90372294  0.34934033  0.84598908  1  0.106884  0  0.079465  0.093146  0  1.083377  0
H  H22  1  0.78602866  0.39764805  0.99248441  1  0.034767  0  0.092189  0.092132  0  0.968603  0
H  H23  1  0.70702846  0.45571316  0.92680199  1  0.066042  0  0.087814  0.100898  0  0.993807  0
H  H24  1  0.15622751  0.45264061  0.68938862  1  0.004353  0  0.098712  0.110496  0  0.958045  0
H  H25  1  0.24698173  0.34932050  0.65392507  1  0.118435  0  0.079528  0.092921  0  1.083873  0
H  H26  1  0.31643227  0.39751932  0.50741833  1  0.004496  0  0.092524  0.092815  0  0.968902  0
H  H27  1  0.33729343  0.45567037  0.57309878  1  0.0546  0  0.087871  0.101163  0  0.995313  0
H  H28  1  0.79839301  0.04715345  0.81042523  1  0.074638  0  0.099029  0.110851  0  0.958314  0
H  H29  1  0.75036158  0.15047815  0.84588725  1  0.106697  0  0.0795  0.092208  0  1.084645  0
H  H30  1  0.72134250  0.10233422  0.99240053  1  0.045144  0  0.092533  0.092601  0  0.969224  0
H  H31  1  0.86613487  0.04423616  0.92680449  1  0.06365  0  0.088168  0.10204  0  0.993419  0
H  H32  1  0.10878443  0.18948231  0.54736393  1  0.046741  0  0.098789  0.110858  0  0.958466  0
H  H33  1  0.09627606  0.15401026  0.65065916  1  0.106885  0  0.079471  0.093165  0  1.083378  0
H  H34  1  0.21397052  0.00751591  0.60235181  1  0.034766  0  0.092197  0.092151  0  0.968588  0
H  H35  1  0.29297230  0.07319650  0.54428705  1  0.066033  0  0.08781  0.100894  0  0.993844  0
H  H36  1  0.34569327  0.31042503  0.95259492  1  0.042174  0  0.098879  0.11098  0  0.958511  0
H  H37  1  0.40088840  0.34597269  0.84931683  1  0.094602  0  0.079044  0.092566  0  1.083609  0
H  H38  1  0.32390882  0.49240503  0.89763939  1  0.037702  0  0.092447  0.092548  0  0.969879  0
H  H39  1  0.41046744  0.42670326  0.95573754  1  0.055726  0  0.087827  0.101632  0  0.993609  0
H  H40  1  0.79838739  0.81042505  0.04715330  1  0.074592  0  0.099047  0.110876  0  0.958271  0
H  H41  1  0.75035653  0.84588634  0.15048069  1  0.106722  0  0.079484  0.092184  0  1.084728  0
H  H42  1  0.72134116  0.99239879  0.10233610  1  0.045104  0  0.092537  0.092611  0  0.969176  0
H  H43  1  0.86613324  0.92680225  0.04423790  1  0.063676  0  0.088156  0.102035  0  0.993464  0
H  H44  1  0.15623087  0.68938576  0.45263948  1  0.004434  0  0.098694  0.110423  0  0.958126  0
H  H45  1  0.24698777  0.65392026  0.34931748  1  0.118552  0  0.079512  0.092917  0  1.083815  0
H  H46  1  0.31643702  0.50741495  0.39752211  1  0.004456  0  0.092521  0.092775  0  0.968922  0
H  H47  1  0.33729256  0.57309716  0.45567291  1  0.054758  0  0.087866  0.101142  0  0.995354  0
H  H48  1  0.34569115  0.95259475  0.31042518  1  0.042177  0  0.098889  0.110998  0  0.958539  0
H  H49  1  0.40089422  0.84931806  0.34596836  1  0.094507  0  0.079071  0.092624  0  1.083509  0
H  H50  1  0.32391144  0.89763792  0.49240499  1  0.037716  0  0.09245  0.092555  0  0.969892  0
H  H51  1  0.41047225  0.95573526  0.42670240  1  0.055612  0  0.087837  0.101648  0  0.993594  0
H  H52  1  0.10877958  0.54737019  0.18948215  1  0.046616  0  0.098774  0.110856  0  0.95834  0
H  H53  1  0.09627357  0.65066594  0.15400695  1  0.106712  0  0.079445  0.09313  0  1.083325  0
H  H54  1  0.21396919  0.60235319  0.00751278  1  0.034752  0  0.092173  0.092154  0  0.968529  0
H  H55  1  0.29296814  0.54429060  0.07319602  1  0.066106  0  0.087824  0.100913  0  0.993877  0
H  H56  1  0.84376798  0.54736189  0.31061360  1  0.004427  0  0.098697  0.110446  0  0.958092  0
H  H57  1  0.75301080  0.65068326  0.34608029  1  0.11853  0  0.079499  0.092892  0  1.083854  0
H  H58  1  0.68356196  0.60247752  0.49258631  1  0.004434  0  0.092548  0.092827  0  0.968891  0
H  H59  1  0.66270718  0.54432773  0.42690218  1  0.054746  0  0.087847  0.101118  0  0.99537  0
H  H60  1  0.20160954  0.95284779  0.18957553  1  0.074618  0  0.099039  0.11088  0  0.95831  0
H  H61  1  0.24963931  0.84952058  0.15411394  1  0.106823  0  0.079507  0.092208  0  1.084705  0
H  H62  1  0.27865775  0.89766577  0.00759984  1  0.045168  0  0.092542  0.092627  0  0.96922  0
H  H63  1  0.13386687  0.95576320  0.07319637  1  0.063663  0  0.088175  0.10205  0  0.993466  0
H  H64  1  0.89121990  0.81051767  0.45263238  1  0.046559  0  0.098794  0.110874  0  0.958402  0
H  H65  1  0.90372796  0.84599035  0.34933633  1  0.106751  0  0.07942  0.093108  0  1.083351  0
H  H66  1  0.78603265  0.99248407  0.39764649  1  0.034804  0  0.092178  0.092154  0  0.968593  0
H  H67  1  0.70703267  0.92680223  0.45571009  1  0.06611  0  0.087814  0.100925  0  0.993811  0
H  H68  1  0.65430815  0.68957496  0.04740511  1  0.042179  0  0.098889  0.110982  0  0.958546  0
H  H69  1  0.59910704  0.65403106  0.15068234  1  0.094514  0  0.079073  0.09261  0  1.083517  0
H  H70  1  0.67608730  0.50759621  0.10236283  1  0.037725  0  0.092463  0.09257  0  0.969893  0
H  H71  1  0.58952867  0.57329798  0.04426467  1  0.055428  0  0.087844  0.101685  0  0.993592  0
H  H72  1  0.19427764  0.07513554  0.07513387  1  0.019873  0  0.100055  0.074723  0  0.938643  0
H  H73  1  0.84433803  0.42505220  0.42505166  1  0.028389  0  0.100127  0.0753  0  0.939324  0
H  H74  1  0.76936609  0.92493510  0.57503532  1  0.033238  0  0.100432  0.075874  0  0.938458  0
H  H75  1  0.76936439  0.57503713  0.92493676  1  0.033219  0  0.100407  0.075821  0  0.938493  0
H  H76  1  0.15565988  0.57494778  0.57494939  1  0.028379  0  0.100129  0.075301  0  0.939337  0
H  H77  1  0.80572170  0.92486507  0.92486544  1  0.019868  0  0.10005  0.074735  0  0.938638  0
H  H78  1  0.23063716  0.07506237  0.42496167  1  0.033209  0  0.100414  0.07586  0  0.93849  0
H  H79  1  0.23063255  0.42496599  0.07506618  1  0.033246  0  0.100438  0.075878  0  0.938451  0
C  C80  1  0.38615315  0.12082180  0.90073362  1  0.494434  0  0.13185  0.2126  0  3.894628  0
C  C81  1  0.44004188  0.05995975  0.95278238  1  -0.007627  0  -0.00248  -0.043693  0  3.992526  0
C  C82  1  0.26136224  0.13537258  0.91040513  1  -0.080183  0  -0.16554  -0.227769  0  3.962925  0
C  C83  1  0.22774933  0.05813361  0.94509801  1  -0.045756  0  -0.161874  -0.166604  0  3.925347  0
C  C84  1  0.90752606  0.37930068  0.59939931  1  0.530159  0  0.131672  0.213144  0  3.896511  0
C  C85  1  0.95270276  0.44008753  0.54729532  1  0.0154  0  -0.002713  -0.044043  0  3.990666  0
C  C86  1  0.80686816  0.36482137  0.58979325  1  -0.016479  0  -0.164989  -0.227845  0  3.962276  0
C  C87  1  0.73074973  0.44203821  0.55506090  1  0.005249  0  -0.161814  -0.165775  0  3.926005  0
C  C88  1  0.78683938  0.09936213  0.62081923  1  0.559693  0  0.132178  0.213993  0  3.893257  0
C  C89  1  0.89279446  0.04721553  0.56000220  1  -0.028897  0  -0.001759  -0.043564  0  3.993828  0
C  C90  1  0.67168440  0.08975971  0.63533067  1  -0.044949  0  -0.164789  -0.228327  0  3.964401  0
C  C91  1  0.67273651  0.05497736  0.55814314  1  -0.031252  0  -0.161661  -0.165159  0  3.927773  0
C  C92  1  0.00697996  0.40061652  0.87923418  1  0.495038  0  0.13144  0.211995  0  3.895446  0
C  C93  1  0.00001677  0.45272188  0.94006134  1  0.011097  0  -0.001557  -0.040944  0  3.991146  0
C  C94  1  0.89670745  0.41024051  0.86474089  1  -0.046839  0  -0.165433  -0.229642  0  3.963237  0
C  C95  1  0.78579397  0.44503153  0.94193705  1  -0.031266  0  -0.161434  -0.163318  0  3.922385  0
C  C96  1  0.09247193  0.40060075  0.62070158  1  0.530283  0  0.1317  0.213118  0  3.896534  0
C  C97  1  0.04729583  0.45270527  0.55991296  1  -0.027209  0  -0.002699  -0.044027  0  3.990701  0
C  C98  1  0.19313153  0.41020592  0.63517735  1  -0.01644  0  -0.165021  -0.227822  0  3.962287  0
C  C99  1  0.26924963  0.44493843  0.55796314  1  0.005291  0  -0.161785  -0.165736  0  3.926083  0
C  C100  1  0.61385093  0.09926250  0.87917769  1  0.494452  0  0.131865  0.2126  0  3.894478  0
C  C101  1  0.55995902  0.04721620  0.94004243  1  0.044632  0  -0.002457  -0.043629  0  3.992564  0
C  C102  1  0.73864041  0.08959339  0.86462666  1  -0.080205  0  -0.165563  -0.227784  0  3.962982  0
C  C103  1  0.77225183  0.05490062  0.94186681  1  -0.045709  0  -0.161823  -0.1665  0  3.925271  0
C  C104  1  0.99302102  0.12076574  0.59938224  1  0.495092  0  0.131466  0.212057  0  3.895295  0
C  C105  1  0.99998277  0.05993897  0.54727659  1  0.01133  0  -0.001606  -0.041028  0  3.991241  0
C  C106  1  0.10329422  0.13525919  0.58975835  1  -0.046853  0  -0.165435  -0.22966  0  3.963224  0
C  C107  1  0.21420622  0.05806328  0.55496832  1  -0.031253  0  -0.161445  -0.163332  0  3.922461  0
C  C108  1  0.21316056  0.37917849  0.90063946  1  0.559919  0  0.132166  0.213925  0  3.89326  0
C  C109  1  0.10720702  0.43999749  0.95278399  1  -0.028757  0  -0.001743  -0.043528  0  3.993726  0
C  C110  1  0.32831615  0.36466787  0.91024089  1  -0.044958  0  -0.164833  -0.228362  0  3.964264  0
C  C111  1  0.32726313  0.44185636  0.94502239  1  -0.031255  0  -0.161614  -0.165107  0  3.927818  0
C  C112  1  0.61384449  0.87917756  0.09926719  1  0.494358  0  0.131817  0.212483  0  3.894681  0
C  C113  1  0.55995778  0.94004023  0.04721612  1  -0.007569  0  -0.002453  -0.043523  0  3.992437  0
C  C114  1  0.73863688  0.86462614  0.08959535  1  -0.080169  0  -0.165563  -0.227783  0  3.962959  0
C  C115  1  0.77225128  0.94186449  0.05490212  1  -0.045655  0  -0.161847  -0.166526  0  3.925321  0
C  C116  1  0.09247456  0.62069742  0.40060164  1  0.52973  0  0.131711  0.213213  0  3.896476  0
C  C117  1  0.04729664  0.55991183  0.45270621  1  0.015769  0  -0.002684  -0.043991  0  3.99066  0
C  C118  1  0.19313424  0.63517547  0.41020408  1  -0.016672  0  -0.165001  -0.227816  0  3.962234  0
C  C119  1  0.26924998  0.55796052  0.44494063  1  0.005177  0  -0.16176  -0.165624  0  3.925953  0
C  C120  1  0.21316411  0.90063722  0.37917824  1  0.559682  0  0.132174  0.213938  0  3.893286  0
C  C121  1  0.10721024  0.95278257  0.43999552  1  -0.029258  0  -0.001747  -0.043547  0  3.993988  0
C  C122  1  0.32831850  0.91023964  0.36466739  1  -0.044932  0  -0.164876  -0.228466  0  3.96442  0
C  C123  1  0.32726702  0.94502074  0.44185492  1  -0.031203  0  -0.161656  -0.165148  0  3.927876  0
C  C124  1  0.99301692  0.59938786  0.12076571  1  0.494996  0  0.131439  0.211968  0  3.895329  0
C  C125  1  0.99998078  0.54727999  0.05993832  1  0.011301  0  -0.001579  -0.040973  0  3.991286  0
C  C126  1  0.10328970  0.58976450  0.13525842  1  -0.046597  0  -0.165341  -0.229452  0  3.962854  0
C  C127  1  0.21420174  0.55497285  0.05806237  1  -0.031244  0  -0.161405  -0.163379  0  3.922369  0
C  C128  1  0.90752357  0.59940175  0.37930228  1  0.529782  0  0.131683  0.213114  0  3.896458  0
C  C129  1  0.95270181  0.54729408  0.44008950  1  -0.026729  0  -0.002695  -0.044044  0  3.990678  0
C  C130  1  0.80686369  0.58979595  0.36482462  1  -0.016648  0  -0.165011  -0.227804  0  3.962076  0
C  C131  1  0.73074865  0.55505967  0.44204014  1  0.005165  0  -0.161805  -0.165709  0  3.925922  0
C  C132  1  0.38614996  0.90073623  0.12082268  1  0.494409  0  0.131867  0.212606  0  3.894693  0
C  C133  1  0.44003737  0.95278567  0.05996084  1  0.04466  0  -0.002429  -0.043649  0  3.992522  0
C  C134  1  0.26136015  0.91040596  0.13537372  1  -0.080326  0  -0.165584  -0.227829  0  3.96308  0
C  C135  1  0.22774842  0.94509937  0.05813439  1  -0.045726  0  -0.161863  -0.166582  0  3.925376  0
C  C136  1  0.00698367  0.87923235  0.40061465  1  0.49471  0  0.131449  0.212022  0  3.895325  0
C  C137  1  0.00002193  0.94005913  0.45272194  1  0.011473  0  -0.001529  -0.040879  0  3.991185  0
C  C138  1  0.89671192  0.86473953  0.41023762  1  -0.046556  0  -0.165383  -0.229567  0  3.963078  0
C  C139  1  0.78579991  0.94193544  0.44502765  1  -0.031246  0  -0.161403  -0.163339  0  3.922408  0
C  C140  1  0.78683555  0.62082275  0.09936194  1  0.559887  0  0.132185  0.213886  0  3.893238  0
C  C141  1  0.89278995  0.56000438  0.04721706  1  -0.029166  0  -0.001715  -0.043428  0  3.993807  0
C  C142  1  0.67168203  0.63533274  0.08976040  1  -0.044945  0  -0.164877  -0.228396  0  3.964435  0
C  C143  1  0.67273326  0.55814551  0.05497924  1  -0.031019  0  -0.161691  -0.165259  0  3.927985  0
C  C144  1  0.37871318  0.01329286  0.01329201  1  0.008044  0  0.011252  0.044439  0  3.868782  0
C  C145  1  0.25271910  0.02607294  0.02607194  1  0.037403  0  -0.082779  -0.015176  0  3.926186  0
C  C146  1  0.90511879  0.48686784  0.48686777  1  -0.032682  0  0.011538  0.044717  0  3.864674  0
C  C147  1  0.80463380  0.47412027  0.47412263  1  0.035218  0  -0.082628  -0.016239  0  3.926854  0
C  C148  1  0.89198393  0.98675044  0.51325050  1  -0.000744  0  0.009831  0.041693  0  3.870856  0
C  C149  1  0.77872757  0.97400821  0.52600672  1  0.015974  0  -0.082979  -0.018128  0  3.928224  0
C  C150  1  0.89197896  0.51325195  0.98675275  1  8.8e-05  0  0.009851  0.041687  0  3.870768  0
C  C151  1  0.77872461  0.52600783  0.97400952  1  0.016008  0  -0.082926  -0.017976  0  3.928155  0
C  C152  1  0.09488124  0.51313026  0.51313294  1  -0.032606  0  0.011516  0.044702  0  3.864512  0
C  C153  1  0.19536564  0.52587783  0.52587949  1  0.035206  0  -0.082645  -0.016288  0  3.926896  0
C  C154  1  0.62128563  0.98670649  0.98670764  1  0.007992  0  0.01123  0.04433  0  3.868899  0
C  C155  1  0.74728061  0.97392579  0.97392878  1  0.037431  0  -0.082813  -0.015275  0  3.926282  0
C  C156  1  0.10802109  0.01324703  0.48674803  1  -0.00017  0  0.009877  0.04179  0  3.870775  0
C  C157  1  0.22127475  0.02599114  0.47399191  1  0.016008  0  -0.082931  -0.018067  0  3.928207  0
C  C158  1  0.10801536  0.48675055  0.01324898  1  -0.000808  0  0.009847  0.041738  0  3.870872  0
C  C159  1  0.22127119  0.47399404  0.02599187  1  0.015975  0  -0.083037  -0.018169  0  3.928211  0
I  I160  1  0.49999998  0.33154777  0.66845177  1  -0.49092  0  -0.245632  -0.417348  0  1.768184  0
I  I161  1  0.99999962  0.16846194  0.83153882  1  -0.490054  0  -0.245744  -0.417567  0  1.768042  0
I  I162  1  0.66846519  0.33152352  0.83157411  1  -0.491777  0  -0.245298  -0.417024  0  1.769293  0
I  I163  1  0.33153512  0.16842661  0.66847663  1  -0.491779  0  -0.245315  -0.417049  0  1.769319  0
I  I164  1  0.50000070  0.66844907  0.33155387  1  -0.490705  0  -0.245619  -0.417294  0  1.768106  0
I  I165  1  0.99999886  0.83154283  0.16845867  1  -0.489983  0  -0.245704  -0.417528  0  1.768067  0
I  I166  1  0.33153713  0.66847583  0.16842288  1  -0.491789  0  -0.245283  -0.417003  0  1.769276  0
I  I167  1  0.66846208  0.83157715  0.33152490  1  -0.49179  0  -0.245311  -0.417041  0  1.76929  0
N  N168  1  0.44308667  0.16538722  0.84354575  1  -0.75812  0  -0.252777  -0.145794  0  3.533638  0
N  N169  1  0.95195490  0.33464998  0.65650985  1  -0.751809  0  -0.252814  -0.146519  0  3.535041  0
N  N170  1  0.78658007  0.15654722  0.66541791  1  -0.749175  0  -0.253146  -0.146981  0  3.532841  0
N  N171  1  0.10849304  0.34346055  0.83460105  1  -0.73903  0  -0.252662  -0.145368  0  3.534553  0
N  N172  1  0.04804553  0.34349154  0.66534980  1  -0.73867  0  -0.252763  -0.146384  0  3.535043  0
N  N173  1  0.55691596  0.15645385  0.83461149  1  -0.73444  0  -0.25275  -0.145764  0  3.533461  0
N  N174  1  0.89150653  0.16540015  0.65653651  1  -0.738801  0  -0.252634  -0.145315  0  3.534559  0
N  N175  1  0.21341939  0.33458031  0.84345354  1  -0.749276  0  -0.253094  -0.146842  0  3.532737  0
N  N176  1  0.55691421  0.83461151  0.15645463  1  -0.757948  0  -0.252736  -0.14573  0  3.533739  0
N  N177  1  0.04804539  0.66534874  0.34349028  1  -0.751745  0  -0.25279  -0.146569  0  3.53492  0
N  N178  1  0.21342260  0.84345025  0.33458130  1  -0.749044  0  -0.253127  -0.146905  0  3.532594  0
N  N179  1  0.89150479  0.65654194  0.16539966  1  -0.738522  0  -0.252662  -0.145373  0  3.534585  0
N  N180  1  0.95195235  0.65650970  0.33465313  1  -0.738623  0  -0.25273  -0.146344  0  3.535062  0
N  N181  1  0.44308317  0.84354488  0.16538980  1  -0.734592  0  -0.252745  -0.145765  0  3.533568  0
N  N182  1  0.10849727  0.83459857  0.34346096  1  -0.738771  0  -0.252613  -0.145321  0  3.534541  0
N  N183  1  0.78657848  0.66542093  0.15654857  1  -0.74963  0  -0.253117  -0.146853  0  3.532526  0
