# generated using pymatgen
data_HgH13C17N5(ClO)2
_symmetry_space_group_name_H-M   'P 1'
_cell_length_a   8.19047766
_cell_length_b   10.26323701
_cell_length_c   12.81693203
_cell_angle_alpha   106.93759473
_cell_angle_beta   105.24190503
_cell_angle_gamma   91.67429804
_symmetry_Int_Tables_number   1
_chemical_formula_structural   HgH13C17N5(ClO)2
_chemical_formula_sum   'Hg2 H26 C34 N10 Cl4 O4'
_cell_volume   987.85689762
_cell_formula_units_Z   2
loop_
 _symmetry_equiv_pos_site_id
 _symmetry_equiv_pos_as_xyz
  1  'x, y, z'
loop_
 _atom_site_type_symbol
 _atom_site_label
 _atom_site_symmetry_multiplicity
 _atom_site_fract_x
 _atom_site_fract_y
 _atom_site_fract_z
 _atom_site_occupancy
 _atom_site_hle17_bader_spin_density
 _atom_site_hle17_ddec_charge
 _atom_site_hle17_ddec_spin_density
 _atom_site_hle17_ddec_sum_bond_order
 _atom_site_hle17_magmom
 _atom_site_hse06_10hf_bader_spin_density
 _atom_site_hse06_10hf_ddec_charge
 _atom_site_hse06_10hf_ddec_spin_density
 _atom_site_hse06_10hf_ddec_sum_bond_order
 _atom_site_hse06_10hf_magmom
 _atom_site_hse06_bader_spin_density
 _atom_site_hse06_ddec_charge
 _atom_site_hse06_ddec_spin_density
 _atom_site_hse06_ddec_sum_bond_order
 _atom_site_hse06_magmom
 _atom_site_pbe_bader_spin_density
 _atom_site_pbe_cm5_charge
 _atom_site_pbe_ddec_charge
 _atom_site_pbe_ddec_spin_density
 _atom_site_pbe_ddec_sum_bond_order
 _atom_site_pbe_magmom
Hg  Hg0  1  0.85580498  0.34152681  0.05787687  1  0  0.755527  0  2.035937  0  0  0.58457  0  2.524522  0  0  0.636856  0  2.493359  0  0  0.528291  0.549067  0  2.544924  0
Hg  Hg1  1  0.14419040  0.65847676  0.94212240  1  0  0.755583  0  2.035797  0  0  0.584647  0  2.524357  0  0  0.636933  0  2.493194  0  0  0.528301  0.54914  0  2.544771  0
H  H2  1  0.82071414  0.40906510  0.49725448  1  0  0.296319  0  0.888144  0  0  0.283089  0  0.946478  0  0  0.289331  0  0.942172  0  0  0.319723  0.278631  0  0.949592  0
H  H3  1  0.17927129  0.59092908  0.50274103  1  0  0.296377  0  0.888096  0  0  0.283129  0  0.946452  0  0  0.289376  0  0.942137  0  0  0.319697  0.27867  0  0.949568  0
H  H4  1  0.69872785  0.77997801  0.89850286  1  0  0.273775  0  0.961888  0  0  0.254539  0  1.035682  0  0  0.26173  0  1.03094  0  0  0.280874  0.249382  0  1.039196  0
H  H5  1  0.30129544  0.22003212  0.10151867  1  0  0.273831  0  0.961945  0  0  0.254572  0  1.035727  0  0  0.261754  0  1.030998  0  0  0.280937  0.249414  0  1.039236  0
H  H6  1  0.90344737  0.26200929  0.79822648  1  0  0.086676  0  0.983053  0  0  0.087608  0  1.059771  0  0  0.091502  0  1.055165  0  0  0.103312  0.084853  0  1.06286  0
H  H7  1  0.09655226  0.73796673  0.20176304  1  0  0.086787  0  0.983101  0  0  0.087717  0  1.059784  0  0  0.091613  0  1.055176  0  0  0.103328  0.084962  0  1.062874  0
H  H8  1  0.66204066  0.49973816  0.58363086  1  0  0.108726  0  0.934806  0  0  0.1175  0  0.999126  0  0  0.121895  0  0.994268  0  0  0.113751  0.114246  0  1.002438  0
H  H9  1  0.33795778  0.50025725  0.41637320  1  0  0.10875  0  0.934875  0  0  0.117499  0  0.999196  0  0  0.121894  0  0.99434  0  0  0.113772  0.114243  0  1.00251  0
H  H10  1  0.63460931  0.57425433  0.92681458  1  0  0.082684  0  0.952531  0  0  0.084649  0  1.02941  0  0  0.087694  0  1.025837  0  0  0.107211  0.08235  0  1.032297  0
H  H11  1  0.36540355  0.42572084  0.07319629  1  0  0.08261  0  0.952477  0  0  0.084569  0  1.029331  0  0  0.087664  0  1.025709  0  0  0.107188  0.08224  0  1.032242  0
H  H12  1  0.06626121  0.10499439  0.47904275  1  0  0.130789  0  0.95612  0  0  0.13896  0  1.013917  0  0  0.143279  0  1.010169  0  0  0.115531  0.135861  0  1.016623  0
H  H13  1  0.93374114  0.89501647  0.52095308  1  0  0.130937  0  0.955871  0  0  0.13896  0  1.013857  0  0  0.14339  0  1.009964  0  0  0.11554  0.135865  0  1.016559  0
H  H14  1  0.14190958  0.99451382  0.30020636  1  0  0.113516  0  0.946347  0  0  0.12265  0  1.004428  0  0  0.125876  0  1.00312  0  0  0.109141  0.120559  0  1.005037  0
H  H15  1  0.85808062  0.00549173  0.69978243  1  0  0.113631  0  0.946405  0  0  0.122745  0  1.004466  0  0  0.126001  0  1.003126  0  0  0.109215  0.120619  0  1.005119  0
H  H16  1  0.06526360  0.09838370  0.14042773  1  0  0.06432  0  0.998582  0  0  0.066216  0  1.080131  0  0  0.068888  0  1.077503  0  0  0.09352  0.064199  0  1.082306  0
H  H17  1  0.93472849  0.90162699  0.85956335  1  0  0.064378  0  0.998471  0  0  0.066245  0  1.080066  0  0  0.068856  0  1.077487  0  0  0.0935  0.064229  0  1.082242  0
H  H18  1  0.85919638  0.41399206  0.32865796  1  0  0.088228  0  0.965342  0  0  0.08982  0  1.042758  0  0  0.093238  0  1.039753  0  0  0.102834  0.087326  0  1.044928  0
H  H19  1  0.14078074  0.58599687  0.67133190  1  0  0.088249  0  0.965375  0  0  0.089822  0  1.042798  0  0  0.093238  0  1.039799  0  0  0.10283  0.087327  0  1.044967  0
H  H20  1  0.31342655  0.86782785  0.70868840  1  0  0.107879  0  0.996114  0  0  0.116862  0  1.056656  0  0  0.119615  0  1.055595  0  0  0.104454  0.114689  0  1.057797  0
H  H21  1  0.68658634  0.13217189  0.29131970  1  0  0.107962  0  0.995956  0  0  0.116967  0  1.056465  0  0  0.119701  0  1.055424  0  0  0.104477  0.114789  0  1.057613  0
H  H22  1  0.24753044  0.11231345  0.75072941  1  0  0.118023  0  0.936652  0  0  0.127499  0  0.993687  0  0  0.130534  0  0.993055  0  0  0.109982  0.125231  0  0.994365  0
H  H23  1  0.75245719  0.88767874  0.24926284  1  0  0.118127  0  0.936688  0  0  0.127483  0  0.993828  0  0  0.130514  0  0.993205  0  0  0.110028  0.125224  0  0.994511  0
H  H24  1  0.45481864  0.29397906  0.90719654  1  0  0.079154  0  0.96969  0  0  0.084712  0  1.0435  0  0  0.087009  0  1.041234  0  0  0.098922  0.083376  0  1.044499  0
H  H25  1  0.54516508  0.70601203  0.09279563  1  0  0.079155  0  0.969615  0  0  0.084703  0  1.043444  0  0  0.087003  0  1.041173  0  0  0.098909  0.083366  0  1.044445  0
H  H26  1  0.77251496  0.00759959  0.98744714  1  0  0.085531  0  0.97142  0  0  0.091329  0  1.04464  0  0  0.094023  0  1.042224  0  0  0.104115  0.089206  0  1.046631  0
H  H27  1  0.22748625  0.99242043  0.01256004  1  0  0.08559  0  0.971435  0  0  0.09135  0  1.0447  0  0  0.094045  0  1.042286  0  0  0.10415  0.089233  0  1.046691  0
C  C28  1  0.82495872  0.34205572  0.78263348  1  0  0.131298  0  3.679423  0  0  0.089623  0  3.932191  0  0  0.099748  0  3.947416  0  0  0.054678  0.083988  0  3.921822  0
C  C29  1  0.17503142  0.65792526  0.21735729  1  0  0.131049  0  3.679566  0  0  0.089449  0  3.93222  0  0  0.099571  0  3.947437  0  0  0.054554  0.083814  0  3.921855  0
C  C30  1  0.79383353  0.36850891  0.67824496  1  0  -0.102965  0  3.748892  0  0  -0.078737  0  3.988635  0  0  -0.090606  0  4.011711  0  0  -0.01083  -0.071709  0  3.972945  0
C  C31  1  0.20616725  0.63148760  0.32175035  1  0  -0.102924  0  3.749202  0  0  -0.078748  0  3.988946  0  0  -0.090619  0  4.012017  0  0  -0.010884  -0.071722  0  3.97326  0
C  C32  1  0.69671731  0.47474867  0.66329844  1  0  -0.024813  0  3.657535  0  0  -0.066145  0  3.90653  0  0  -0.058562  0  3.921138  0  0  -0.055828  -0.069222  0  3.895232  0
C  C33  1  0.30326035  0.52524126  0.33670423  1  0  -0.024811  0  3.657655  0  0  -0.066085  0  3.906556  0  0  -0.058506  0  3.921164  0  0  -0.055768  -0.069165  0  3.895261  0
C  C34  1  0.64143354  0.55336738  0.75382486  1  0  -0.099454  0  3.750009  0  0  -0.075524  0  3.988686  0  0  -0.087283  0  4.011421  0  0  -0.010101  -0.068536  0  3.973652  0
C  C35  1  0.35858930  0.44662946  0.24618878  1  0  -0.099764  0  3.750181  0  0  -0.07578  0  3.988819  0  0  -0.087527  0  4.011554  0  0  -0.010149  -0.068783  0  3.973769  0
C  C36  1  0.67879640  0.51866549  0.85487696  1  0  0.120255  0  3.704196  0  0  0.077753  0  3.965335  0  0  0.088287  0  3.98059  0  0  0.05018  0.070231  0  3.955059  0
C  C37  1  0.32121596  0.48132809  0.14513507  1  0  0.120624  0  3.704125  0  0  0.078164  0  3.965207  0  0  0.088655  0  3.980435  0  0  0.050266  0.070673  0  3.954935  0
C  C38  1  0.87709014  0.28223505  0.59549139  1  0  0.550924  0  3.82346  0  0  0.505659  0  4.108093  0  0  0.534947  0  4.108136  0  0  0.245919  0.485842  0  4.107909  0
C  C39  1  0.12292659  0.71775763  0.40450394  1  0  0.551068  0  3.822825  0  0  0.505741  0  4.107544  0  0  0.535034  0  4.107577  0  0  0.245909  0.485925  0  4.107359  0
C  C40  1  0.95471546  0.26773578  0.41838282  1  0  0.204889  0  3.787656  0  0  0.204041  0  4.035383  0  0  0.208551  0  4.056635  0  0  0.100572  0.20082  0  4.020815  0
C  C41  1  0.04526916  0.73227478  0.58161098  1  0  0.205042  0  3.787597  0  0  0.204197  0  4.035266  0  0  0.208706  0  4.05654  0  0  0.100652  0.200975  0  4.020704  0
C  C42  1  0.04002246  0.14987783  0.41037190  1  0  -0.100176  0  3.653812  0  0  -0.123624  0  3.894854  0  0  -0.123778  0  3.911612  0  0  -0.069735  -0.123244  0  3.883392  0
C  C43  1  0.95996170  0.85012966  0.58961797  1  0  -0.100218  0  3.653643  0  0  -0.123624  0  3.894767  0  0  -0.123863  0  3.911478  0  0  -0.069728  -0.123239  0  3.883295  0
C  C44  1  0.08218274  0.08897658  0.31018001  1  0  -0.08715  0  3.740112  0  0  -0.097432  0  3.989765  0  0  -0.102355  0  4.011008  0  0  -0.080996  -0.094161  0  3.975195  0
C  C45  1  0.91781810  0.91104450  0.68981332  1  0  -0.087443  0  3.740357  0  0  -0.097669  0  3.989953  0  0  -0.102624  0  4.011199  0  0  -0.081183  -0.094369  0  3.975406  0
C  C46  1  0.04074838  0.14585565  0.22182953  1  0  0.093095  0  3.744237  0  0  0.057511  0  4.005311  0  0  0.062791  0  4.025566  0  0  0.02312  0.054044  0  3.99178  0
C  C47  1  0.95923835  0.85415291  0.77815865  1  0  0.093164  0  3.74422  0  0  0.05765  0  4.005172  0  0  0.062978  0  4.025466  0  0  0.023248  0.054184  0  3.991642  0
C  C48  1  0.92419900  0.32209383  0.32696489  1  0  0.008048  0  3.708725  0  0  -0.029892  0  3.973428  0  0  -0.026481  0  3.99171  0  0  0.030493  -0.031794  0  3.960559  0
C  C49  1  0.07579347  0.67791683  0.67303716  1  0  0.007905  0  3.708967  0  0  -0.029983  0  3.973628  0  0  -0.026575  0  3.991917  0  0  0.03049  -0.031886  0  3.960764  0
C  C50  1  0.54755202  0.67287451  0.73967932  1  0  0.557361  0  3.81989  0  0  0.514643  0  4.10162  0  0  0.544243  0  4.10146  0  0  0.244002  0.49471  0  4.101587  0
C  C51  1  0.45248525  0.32712872  0.26033104  1  0  0.557601  0  3.820183  0  0  0.514666  0  4.102076  0  0  0.544253  0  4.101914  0  0  0.244081  0.49473  0  4.102035  0
C  C52  1  0.54626459  0.91792313  0.84632806  1  0  0.213943  0  3.772039  0  0  0.214786  0  4.014315  0  0  0.218835  0  4.036509  0  0  0.101904  0.211694  0  3.999566  0
C  C53  1  0.45374307  0.08207447  0.15368107  1  0  0.213852  0  3.772593  0  0  0.214706  0  4.014726  0  0  0.218754  0  4.036903  0  0  0.101814  0.211652  0  3.999912  0
C  C54  1  0.39818902  0.94889378  0.77786299  1  0  -0.096124  0  3.670279  0  0  -0.120873  0  3.912425  0  0  -0.120573  0  3.930606  0  0  -0.07469  -0.12105  0  3.900622  0
C  C55  1  0.60181627  0.05110790  0.22213737  1  0  -0.096243  0  3.670418  0  0  -0.121037  0  3.912531  0  0  -0.120717  0  3.930715  0  0  -0.074714  -0.121217  0  3.90071  0
C  C56  1  0.36308227  0.08464364  0.80069056  1  0  -0.094761  0  3.735832  0  0  -0.104322  0  3.984801  0  0  -0.10972  0  4.006145  0  0  -0.080929  -0.101023  0  3.970963  0
C  C57  1  0.63690162  0.91535560  0.19931761  1  0  -0.094863  0  3.736026  0  0  -0.104326  0  3.985005  0  0  -0.10972  0  4.006339  0  0  -0.081  -0.101047  0  3.971183  0
C  C58  1  0.47736277  0.18650060  0.88853034  1  0  0.103852  0  3.715073  0  0  0.067762  0  3.973347  0  0  0.073566  0  3.9927  0  0  0.030304  0.063392  0  3.96123  0
C  C59  1  0.52263298  0.81350707  0.11146683  1  0  0.103884  0  3.715178  0  0  0.067837  0  3.973362  0  0  0.073631  0  3.992734  0  0  0.030359  0.063466  0  3.961252  0
C  C60  1  0.65454803  0.02681499  0.93331926  1  0  0.018585  0  3.686257  0  0  -0.018849  0  3.941459  0  0  -0.015011  0  3.960454  0  0  0.03438  -0.02133  0  3.928547  0
C  C61  1  0.34544906  0.97320292  0.06668445  1  0  0.018762  0  3.686079  0  0  -0.018708  0  3.941306  0  0  -0.014869  0  3.960295  0  0  0.034396  -0.021202  0  3.928386  0
N  N62  1  0.76714295  0.41374441  0.86790585  1  0  -0.306691  0  3.206868  0  0  -0.239399  0  3.480186  0  0  -0.26022  0  3.499193  0  0  -0.309178  -0.225361  0  3.466888  0
N  N63  1  0.23286078  0.58623166  0.13209289  1  0  -0.306686  0  3.206966  0  0  -0.239481  0  3.480298  0  0  -0.260311  0  3.499343  0  0  -0.309081  -0.225441  0  3.466986  0
N  N64  1  0.89216628  0.33256822  0.50962974  1  0  -0.433154  0  3.348223  0  0  -0.381248  0  3.586542  0  0  -0.402818  0  3.596174  0  0  -0.394169  -0.366243  0  3.579475  0
N  N65  1  0.10782281  0.66743523  0.49037009  1  0  -0.433369  0  3.348027  0  0  -0.381394  0  3.586301  0  0  -0.402969  0  3.595928  0  0  -0.394151  -0.366385  0  3.579233  0
N  N66  1  0.96545212  0.26156635  0.23157257  1  0  -0.297982  0  3.297389  0  0  -0.222686  0  3.561651  0  0  -0.242787  0  3.587274  0  0  -0.318534  -0.208731  0  3.543654  0
N  N67  1  0.03453202  0.73843907  0.76842306  1  0  -0.298007  0  3.29756  0  0  -0.222755  0  3.561819  0  0  -0.242852  0  3.587423  0  0  -0.318609  -0.208802  0  3.54383  0
N  N68  1  0.59448493  0.78583678  0.83460053  1  0  -0.439838  0  3.366912  0  0  -0.384832  0  3.596581  0  0  -0.408064  0  3.608558  0  0  -0.393506  -0.369114  0  3.5882  0
N  N69  1  0.40552535  0.21416086  0.16541135  1  0  -0.440024  0  3.367107  0  0  -0.38483  0  3.596641  0  0  -0.408095  0  3.608714  0  0  -0.393616  -0.369156  0  3.588329  0
N  N70  1  0.62095565  0.15702866  0.95262231  1  0  -0.285522  0  3.300687  0  0  -0.209252  0  3.56837  0  0  -0.228605  0  3.591627  0  0  -0.317264  -0.196287  0  3.552785  0
N  N71  1  0.37903698  0.84298200  0.04738446  1  0  -0.285642  0  3.300546  0  0  -0.20939  0  3.568227  0  0  -0.228743  0  3.591488  0  0  -0.317279  -0.196427  0  3.55265  0
Cl  Cl72  1  0.05886082  0.20123552  0.97042842  1  0  -0.484167  0  1.016991  0  0  -0.426907  0  1.30272  0  0  -0.444615  0  1.286327  0  0  -0.240791  -0.41421  0  1.313962  0
Cl  Cl73  1  0.94115510  0.79876940  0.02957825  1  0  -0.484145  0  1.017056  0  0  -0.426856  0  1.302746  0  0  -0.444562  0  1.286333  0  0  -0.240764  -0.41416  0  1.313995  0
Cl  Cl74  1  0.74541314  0.53620222  0.16719919  1  0  -0.476252  0  0.928412  0  0  -0.416525  0  1.191183  0  0  -0.43422  0  1.174846  0  0  -0.278943  -0.404197  0  1.20169  0
Cl  Cl75  1  0.25459527  0.46380360  0.83280575  1  0  -0.476265  0  0.928382  0  0  -0.416548  0  1.191164  0  0  -0.434246  0  1.17483  0  0  -0.278944  -0.404219  0  1.201673  0
O  O76  1  0.93301074  0.17550845  0.60808101  1  0  -0.517729  0  1.930832  0  0  -0.475741  0  2.143377  0  0  -0.496521  0  2.138006  0  0  -0.274554  -0.461609  0  2.146657  0
O  O77  1  0.06698764  0.82448088  0.39190365  1  0  -0.517829  0  1.930351  0  0  -0.475792  0  2.142895  0  0  -0.496591  0  2.137521  0  0  -0.274594  -0.461667  0  2.146189  0
O  O78  1  0.44384849  0.66848704  0.64827998  1  0  -0.546635  0  1.914272  0  0  -0.50982  0  2.131132  0  0  -0.530222  0  2.125176  0  0  -0.297167  -0.495879  0  2.135016  0
O  O79  1  0.55616595  0.33151787  0.35172022  1  0  -0.546673  0  1.914709  0  0  -0.509783  0  2.131643  0  0  -0.530172  0  2.125685  0  0  -0.297178  -0.49585  0  2.135541  0
