# generated using pymatgen
data_NiH16C21S2(N2O)3
_symmetry_space_group_name_H-M   'P 1'
_cell_length_a   7.96897272
_cell_length_b   9.24822883
_cell_length_c   15.31973156
_cell_angle_alpha   107.38539039
_cell_angle_beta   93.15222540
_cell_angle_gamma   101.64810637
_symmetry_Int_Tables_number   1
_chemical_formula_structural   NiH16C21S2(N2O)3
_chemical_formula_sum   'Ni2 H32 C42 S4 N12 O6'
_cell_volume   1047.21653050
_cell_formula_units_Z   2
loop_
 _symmetry_equiv_pos_site_id
 _symmetry_equiv_pos_as_xyz
  1  'x, y, z'
loop_
 _atom_site_type_symbol
 _atom_site_label
 _atom_site_symmetry_multiplicity
 _atom_site_fract_x
 _atom_site_fract_y
 _atom_site_fract_z
 _atom_site_occupancy
 _atom_site_hle17_ddec_charge
 _atom_site_hle17_ddec_spin_density
 _atom_site_hle17_ddec_sum_bond_order
 _atom_site_hle17_magmom
 _atom_site_hse06_10hf_bader_charge
 _atom_site_hse06_10hf_bader_spin_density
 _atom_site_hse06_10hf_ddec_charge
 _atom_site_hse06_10hf_ddec_spin_density
 _atom_site_hse06_10hf_ddec_sum_bond_order
 _atom_site_hse06_10hf_magmom
 _atom_site_hse06_ddec_charge
 _atom_site_hse06_ddec_spin_density
 _atom_site_hse06_ddec_sum_bond_order
 _atom_site_hse06_magmom
 _atom_site_pbe_cm5_charge
 _atom_site_pbe_ddec_charge
 _atom_site_pbe_ddec_spin_density
 _atom_site_pbe_ddec_sum_bond_order
 _atom_site_pbe_magmom
Ni  Ni0  1  0.28225282  0.23555594  0.00578307  1  0.613298  1.712781  2.460503  1.358  1.08347  1.504471  0.639391  1.75718  2.855084  1.488  0.738271  1.866459  2.775688  1.617  0.607007  0.57702  1.644271  2.906813  1.366
Ni  Ni1  1  0.71774913  0.76444587  0.99421629  1  0.613464  -1.712792  2.460502  -1.358  1.083432  -1.504457  0.639502  -1.757172  2.855129  -1.488  0.738339  -1.866448  2.775708  -1.617  0.607036  0.5771  -1.644231  2.906874  -1.366
H  H2  1  0.09379961  0.43931265  0.93231042  1  0.082537  0.000784  0.96611  0.001  0.123216  0.001716  0.085375  0.000688  1.039114  0.001  0.087902  0.00051  1.036672  0.001  0.110881  0.083632  0.000815  1.04087  0.001
H  H3  1  0.90619678  0.56067754  0.06768867  1  0.08252  -0.000783  0.966113  -0.001  0.123221  -0.001716  0.085351  -0.000688  1.039157  -0.001  0.087868  -0.000509  1.036739  -0.001  0.110878  0.083626  -0.000815  1.040868  -0.001
H  H4  1  0.97579554  0.44800001  0.78083264  1  0.099133  -0.000215  0.994151  0.0  0.133525  0.000273  0.107629  -5e-06  1.062243  0.0  0.111094  4.2e-05  1.060605  0.0  0.100141  0.104939  -3e-06  1.063834  0.0
H  H5  1  0.02420366  0.55199132  0.21916608  1  0.099174  0.000215  0.994082  0.0  0.133459  -0.000273  0.10763  5e-06  1.062185  0.0  0.11115  -4.2e-05  1.06049  0.0  0.100177  0.104958  3e-06  1.063758  0.0
H  H6  1  0.05928836  0.98669133  0.65807007  1  0.118804  0.00027  0.952124  0.0  0.134861  0.000762  0.126976  0.000352  1.012946  0.0  0.130504  0.000249  1.011696  0.0  0.111835  0.124569  0.000456  1.013742  0.001
H  H7  1  0.94070302  0.01329890  0.34192953  1  0.118848  -0.000269  0.952058  0.0  0.135014  -0.000763  0.127002  -0.000353  1.0129  0.0  0.130519  -0.000249  1.011665  0.0  0.111814  0.124595  -0.000456  1.013694  -0.001
H  H8  1  0.19430544  0.00590868  0.81275217  1  0.082851  0.000773  0.962074  0.001  0.149129  0.001723  0.089758  0.000656  1.02693  0.001  0.091443  0.000475  1.025827  0.001  0.114905  0.088585  0.000826  1.027958  0.001
H  H9  1  0.80569031  0.99408384  0.18724601  1  0.082795  -0.000772  0.961969  -0.001  0.149201  -0.001723  0.089705  -0.000656  1.026832  -0.001  0.09139  -0.000475  1.025734  -0.001  0.114845  0.088533  -0.000826  1.027861  -0.001
H  H10  1  0.24407514  0.05232986  0.13899543  1  0.085727  0.000609  0.942712  0.001  0.117709  0.001553  0.09193  0.000477  1.006421  0.001  0.093552  0.000349  1.005411  0.001  0.115395  0.090625  0.000584  1.007493  0.001
H  H11  1  0.75592495  0.94766965  0.86100673  1  0.085711  -0.00061  0.942728  -0.001  0.11771  -0.001553  0.091918  -0.000477  1.006445  -0.001  0.093538  -0.000349  1.005442  -0.001  0.115382  0.090615  -0.000584  1.007516  -0.001
H  H12  1  0.41193660  0.03934835  0.27928613  1  0.114242  0.000176  0.944393  0.0  0.112502  0.000664  0.121933  0.000236  1.00734  0.0  0.125972  0.00016  1.004862  0.0  0.109907  0.119352  0.000314  1.008557  0.001
H  H13  1  0.58806189  0.96065466  0.72071596  1  0.114206  -0.000175  0.944402  0.0  0.112528  -0.000664  0.121913  -0.000236  1.007327  0.0  0.125951  -0.00016  1.004845  0.0  0.109908  0.119326  -0.000314  1.00856  -0.001
H  H14  1  0.79790987  0.42790405  0.26229378  1  0.097877  0.000473  0.988024  0.0  0.102009  0.001025  0.104852  0.00059  1.057668  0.0  0.108273  0.00042  1.055937  0.0  0.104565  0.102424  0.000733  1.059139  0.001
H  H15  1  0.20208741  0.57209430  0.73770679  1  0.097872  -0.000472  0.988001  0.0  0.103054  -0.001024  0.104858  -0.00059  1.057635  0.0  0.10828  -0.00042  1.055901  0.0  0.104569  0.102429  -0.000733  1.059106  -0.001
H  H16  1  0.61882711  0.42134122  0.12302938  1  0.081068  0.000878  0.95723  0.001  0.115332  0.001838  0.087593  0.000749  1.023797  0.001  0.088717  0.000547  1.023405  0.001  0.114405  0.08699  0.000942  1.023788  0.001
H  H17  1  0.38117301  0.57865361  0.87696999  1  0.081092  -0.000878  0.957211  -0.001  0.115304  -0.001838  0.087591  -0.000749  1.023798  -0.001  0.088719  -0.000546  1.023392  -0.001  0.114411  0.086988  -0.000942  1.023788  -0.001
H  H18  1  0.77261917  0.09612395  0.49683732  1  0.347041  -2e-06  0.919876  0.0  0.548367  -7e-06  0.326776  -1.1e-05  0.983864  0.0  0.336718  -8e-06  0.97499  0.0  0.29646  0.319668  -1.5e-05  0.990329  0.0
H  H19  1  0.22737966  0.90387555  0.50316154  1  0.346985  2e-06  0.919923  0.0  0.548347  7e-06  0.326716  1.1e-05  0.983919  0.0  0.336658  7e-06  0.975046  0.0  0.296431  0.319609  1.5e-05  0.990381  0.0
H  H20  1  0.80257206  0.99307271  0.57541311  1  0.341436  1.1e-05  0.898106  0.0  0.499973  9e-06  0.319793  1e-06  0.968747  0.0  0.327956  2e-06  0.961627  0.0  0.303693  0.314081  1e-06  0.973644  0.0
H  H21  1  0.19742586  0.00692329  0.42458379  1  0.341526  -1.1e-05  0.89795  0.0  0.500018  -8e-06  0.319846  -1e-06  0.968658  0.0  0.328008  -2e-06  0.961539  0.0  0.303716  0.314135  -1e-06  0.973551  0.0
H  H22  1  0.90160385  0.34651551  0.47561541  1  0.344786  6e-06  0.905898  0.0  0.526349  2e-06  0.325456  -5e-06  0.967276  0.0  0.334823  -2e-06  0.959422  0.0  0.299486  0.318834  -8e-06  0.972881  0.0
H  H23  1  0.09839749  0.65348398  0.52438483  1  0.344825  -6e-06  0.905866  0.0  0.5264  -2e-06  0.325484  5e-06  0.967255  0.0  0.334851  2e-06  0.959398  0.0  0.299501  0.318863  8e-06  0.972862  0.0
H  H24  1  0.88057083  0.44374759  0.39392657  1  0.344606  1.8e-05  0.908319  0.0  0.508173  4.1e-05  0.323088  1.7e-05  0.977997  0.0  0.331517  1e-05  0.970721  0.0  0.301494  0.31714  2.3e-05  0.983118  0.0
H  H25  1  0.11942926  0.55625191  0.60607428  1  0.344607  -1.8e-05  0.908301  0.0  0.508148  -4.1e-05  0.323103  -1.6e-05  0.977956  0.0  0.331533  -1e-05  0.97068  0.0  0.301481  0.317157  -2.3e-05  0.983077  0.0
H  H26  1  0.29012311  0.54633077  0.21284913  1  0.090852  -0.000241  0.982808  0.0  0.091153  -0.000234  0.102428  -0.000223  1.043023  0.0  0.104591  -0.00018  1.042635  0.0  0.098524  0.100783  -0.000269  1.043447  0.0
H  H27  1  0.70988352  0.45367450  0.78715100  1  0.09077  0.000242  0.982976  0.0  0.091239  0.000234  0.102396  0.000223  1.043129  0.0  0.104556  0.00018  1.042746  0.0  0.098507  0.100751  0.000269  1.043552  0.0
H  H28  1  0.20311097  0.35917314  0.29928170  1  0.097  -5.6e-05  0.952443  0.0  0.095121  -2.1e-05  0.101403  -1.7e-05  1.024034  0.0  0.105595  -2.5e-05  1.020666  0.0  0.101886  0.098234  -2e-05  1.026744  0.0
H  H29  1  0.79689282  0.64083564  0.70071897  1  0.097001  5.5e-05  0.952368  0.0  0.094949  2.1e-05  0.101382  1.7e-05  1.023978  0.0  0.105575  2.5e-05  1.02061  0.0  0.101886  0.098215  2e-05  1.026687  0.0
H  H30  1  0.30309563  0.18441102  0.56869541  1  0.097318  2e-06  0.96051  0.0  0.099827  1e-06  0.107521  -3e-06  1.022618  0.0  0.11065  -1e-06  1.020729  0.0  0.106168  0.105371  -4e-06  1.023997  0.0
H  H31  1  0.69690564  0.81559780  0.43130649  1  0.097359  -1e-06  0.960555  0.0  0.099994  -1e-06  0.10752  3e-06  1.022709  0.0  0.11065  1e-06  1.020824  0.0  0.106175  0.105372  4e-06  1.024088  0.0
H  H32  1  0.46635601  0.22327629  0.72060673  1  0.093625  -5e-05  0.962432  0.0  0.093976  2.8e-05  0.098504  2e-06  1.032969  0.0  0.101757  -3e-06  1.031524  0.0  0.09966  0.096402  7e-06  1.033506  0.0
H  H33  1  0.53364811  0.77672901  0.27939528  1  0.093672  4.9e-05  0.962419  0.0  0.093917  -2.8e-05  0.098525  -2e-06  1.032972  0.0  0.101776  3e-06  1.031531  0.0  0.099696  0.096425  -7e-06  1.033509  0.0
C  C34  1  0.38491061  0.60001451  0.05963617  1  0.274606  0.00197  3.968304  0.011  0.573475  -0.008038  0.274637  -0.001304  4.278221  0.007  0.304775  -0.001617  4.29075  0.005  0.154536  0.253866  -0.001247  4.270559  0.008
C  C35  1  0.61509192  0.39999428  0.94036250  1  0.274657  -0.001965  3.96816  -0.011  0.573794  0.008039  0.274691  0.001304  4.278082  -0.007  0.304833  0.001619  4.2906  -0.005  0.154528  0.253923  0.001248  4.270424  -0.008
C  C36  1  0.11213723  0.88598351  0.94552489  1  0.281115  0.008647  3.96258  0.019  0.60415  -0.002618  0.281643  0.002472  4.277856  0.012  0.312897  0.002029  4.289562  0.01  0.15366  0.259631  0.003045  4.270605  0.014
C  C37  1  0.88786754  0.11401943  0.05447411  1  0.281093  -0.008653  3.962266  -0.019  0.604137  0.002612  0.281634  -0.002474  4.277532  -0.012  0.312893  -0.002032  4.289233  -0.01  0.153685  0.259627  -0.003047  4.27028  -0.014
C  C38  1  0.08666226  0.34241503  0.86969760  1  0.125541  -0.008121  3.681628  -0.01  0.498142  -0.003425  0.101348  -0.001527  3.934101  -0.003  0.109801  -0.002198  3.952042  -0.004  0.046843  0.095169  -0.001166  3.922688  -0.002
C  C39  1  0.91333318  0.65757633  0.13030101  1  0.125666  0.008112  3.681526  0.01  0.497971  0.003426  0.101379  0.001528  3.934002  0.003  0.109822  0.002197  3.951939  0.004  0.046886  0.095198  0.001166  3.922598  0.002
C  C40  1  0.01890295  0.34571008  0.78496393  1  -0.131242  0.008403  3.721792  0.01  -0.079587  0.004943  -0.151592  0.002918  3.962665  0.003  -0.156951  0.002939  3.981283  0.003  -0.080937  -0.148027  0.003066  3.950786  0.004
C  C41  1  0.98109345  0.65428011  0.21503581  1  -0.131328  -0.008394  3.7218  -0.01  -0.079545  -0.004943  -0.151619  -0.002918  3.962731  -0.003  -0.157019  -0.002939  3.981307  -0.003  -0.08102  -0.14807  -0.003066  3.950847  -0.004
C  C42  1  0.00635364  0.21742013  0.70642700  1  -0.00409  -0.008756  3.739546  -0.01  -0.077411  -0.004912  0.014838  -0.002794  3.968871  -0.003  0.014486  -0.002803  3.988403  -0.003  0.006878  0.014843  -0.003177  3.955945  -0.004
C  C43  1  0.99364306  0.78257122  0.29357100  1  -0.004099  0.008749  3.739576  0.01  -0.077545  0.004914  0.014856  0.002795  3.96889  0.003  0.014498  0.002803  3.988429  0.003  0.00691  0.014858  0.003177  3.95597  0.004
C  C44  1  0.06493539  0.09006119  0.71656985  1  -0.129431  0.008688  3.6902  0.01  -0.027781  0.005229  -0.148458  0.003021  3.931935  0.004  -0.153779  0.002958  3.95034  0.004  -0.078643  -0.144983  0.003229  3.919946  0.004
C  C45  1  0.93505724  0.90992902  0.28342782  1  -0.129424  -0.00868  3.690199  -0.01  -0.027786  -0.005229  -0.148438  -0.003021  3.931943  -0.004  -0.153752  -0.002958  3.950355  -0.004  -0.078543  -0.144961  -0.003229  3.919951  -0.004
C  C46  1  0.13929764  0.09932494  0.80300962  1  0.129525  -0.008528  3.681057  -0.01  0.475181  -0.003936  0.103354  -0.001827  3.934502  -0.003  0.112093  -0.002404  3.952439  -0.004  0.048868  0.096924  -0.001516  3.923165  -0.002
C  C47  1  0.86069906  0.90066642  0.19699034  1  0.129604  0.00852  3.681093  0.01  0.475202  0.003935  0.103387  0.001827  3.934513  0.003  0.112116  0.002403  3.952446  0.004  0.04887  0.096954  0.001516  3.92317  0.002
C  C48  1  0.93651941  0.22298010  0.61483453  1  0.613031  0.000288  3.84635  0.001  1.470575  -4.7e-05  0.566281  -1.1e-05  4.133084  0.0  0.595081  1.7e-05  4.131898  0.0  0.246614  0.546833  -5.7e-05  4.133592  0.0
C  C49  1  0.06347976  0.77701590  0.38516502  1  0.612936  -0.000287  3.8464  -0.001  1.470705  4.6e-05  0.566097  1e-05  4.133261  0.0  0.594909  -1.8e-05  4.132061  0.0  0.246518  0.546651  5.7e-05  4.133766  0.0
C  C50  1  0.36773936  0.13266767  0.16876479  1  0.129889  -0.008715  3.680402  -0.01  0.539362  -0.003513  0.10592  -0.001576  3.936148  -0.003  0.114832  -0.002332  3.95304  -0.004  0.049374  0.09978  -0.001241  3.924658  -0.002
C  C51  1  0.63226042  0.86733067  0.83123650  1  0.12984  0.008736  3.680231  0.01  0.539224  0.003511  0.105849  0.001576  3.935997  0.003  0.11476  0.002333  3.952887  0.004  0.049386  0.099706  0.001242  3.924513  0.002
C  C52  1  0.46081579  0.12571411  0.24627300  1  -0.113003  0.009314  3.709331  0.011  -0.01943  0.005564  -0.138976  0.003183  3.961168  0.004  -0.142787  0.003167  3.977847  0.004  -0.076764  -0.135819  0.003417  3.948555  0.004
C  C53  1  0.53917958  0.87428659  0.75372859  1  -0.112929  -0.00933  3.709249  -0.011  -0.019618  -0.005564  -0.138906  -0.003183  3.96109  -0.004  -0.14271  -0.003168  3.977765  -0.004  -0.076788  -0.135751  -0.003418  3.948474  -0.004
C  C54  1  0.61816716  0.23270032  0.28268663  1  -0.016565  -0.009441  3.73657  -0.01  -0.037914  -0.005124  0.002863  -0.00296  3.96805  -0.003  0.00156  -0.002907  3.988124  -0.003  0.000937  0.003171  -0.003209  3.954658  -0.003
C  C55  1  0.38183103  0.76730153  0.71731524  1  -0.016605  0.009457  3.736611  0.011  -0.0378  0.005124  0.002822  0.002961  3.968078  0.003  0.001516  0.002908  3.988153  0.003  0.000904  0.003133  0.003209  3.954684  0.003
C  C56  1  0.67685235  0.34104700  0.23773835  1  -0.12974  0.009839  3.71338  0.011  -0.012307  0.006003  -0.150309  0.003754  3.958266  0.004  -0.155695  0.0036  3.978738  0.004  -0.081899  -0.146784  0.004049  3.945182  0.004
C  C57  1  0.32314428  0.65895368  0.76226261  1  -0.129748  -0.009859  3.713316  -0.011  -0.013338  -0.006004  -0.150325  -0.003753  3.958191  -0.004  -0.155709  -0.003602  3.978661  -0.004  -0.081924  -0.146799  -0.00405  3.945109  -0.004
C  C58  1  0.57716625  0.33883238  0.15974812  1  0.128213  -0.009153  3.687819  -0.011  0.483457  -0.004088  0.102155  -0.001774  3.943195  -0.003  0.110388  -0.002439  3.962925  -0.004  0.048372  0.096239  -0.001247  3.929884  -0.003
C  C59  1  0.42283198  0.66116479  0.84025162  1  0.128127  0.00917  3.687695  0.011  0.483445  0.004087  0.102097  0.001773  3.943076  0.003  0.110331  0.002438  3.962812  0.004  0.048372  0.096182  0.001246  3.929762  0.003
C  C60  1  0.71338571  0.22649368  0.36842897  1  0.596639  0.000259  3.853254  0.001  1.442727  -0.000115  0.549926  -4.8e-05  4.141637  0.0  0.578267  1.3e-05  4.141103  0.0  0.240299  0.530691  -0.000117  4.141847  0.0
C  C61  1  0.28661593  0.77350697  0.63157279  1  0.596681  -0.00026  3.853247  -0.001  1.442691  0.000114  0.550005  4.7e-05  4.141565  0.0  0.578354  -1.3e-05  4.141019  0.0  0.240328  0.530771  0.000117  4.141776  0.0
C  C62  1  0.35810957  0.56581677  0.28029454  1  -0.04994  -0.0001  3.718259  0.0  -0.095675  -7.5e-05  -0.06476  -0.000128  3.967056  0.0  -0.067278  -9.9e-05  3.988988  0.0  -0.080385  -0.062783  -0.000181  3.951447  0.0
C  C63  1  0.64189767  0.43419083  0.71970536  1  -0.049836  8.1e-05  3.718515  0.0  -0.095602  7.5e-05  -0.064696  0.000128  3.967308  0.0  -0.067214  0.0001  3.989243  0.0  -0.080382  -0.06272  0.000181  3.9517  0.0
C  C64  1  0.31043704  0.46015714  0.32789368  1  -0.046449  -8.1e-05  3.700017  0.0  0.053281  -1.8e-05  -0.073083  -2.5e-05  3.955972  0.0  -0.073227  -4.9e-05  3.975428  0.0  -0.075133  -0.072775  -1.3e-05  3.942501  0.0
C  C65  1  0.68956614  0.53984931  0.67210459  1  -0.04638  9.7e-05  3.700081  0.0  0.053517  1.8e-05  -0.073018  2.5e-05  3.956013  0.0  -0.073154  4.9e-05  3.975446  0.0  -0.07508  -0.072713  1.3e-05  3.942546  0.0
C  C66  1  0.40311331  0.48033950  0.41257446  1  -0.057285  4.9e-05  3.750041  0.0  -0.047086  2.4e-05  -0.046581  1.4e-05  3.984441  0.0  -0.052845  2.4e-05  4.009565  0.0  -0.013809  -0.042374  4e-06  3.967155  0.0
C  C67  1  0.59688766  0.51966814  0.58742527  1  -0.057429  -6.3e-05  3.750237  0.0  -0.047268  -2.5e-05  -0.046639  -1.4e-05  3.984505  0.0  -0.052895  -2.4e-05  4.009617  0.0  -0.013812  -0.042436  -5e-06  3.967225  0.0
C  C68  1  0.35809263  0.36085937  0.45910199  1  0.382902  3.5e-05  3.751708  0.0  0.934217  5.5e-05  0.363008  3.4e-05  4.015207  0.0  0.385582  1.2e-05  4.01745  0.0  0.155861  0.347968  6.8e-05  4.013011  0.0
C  C69  1  0.64190834  0.63914828  0.54089904  1  0.382895  -3.6e-05  3.751682  0.0  0.934186  -5.5e-05  0.362997  -3.4e-05  4.015132  0.0  0.385567  -1.3e-05  4.017374  0.0  0.155762  0.347959  -6.8e-05  4.01294  0.0
C  C70  1  0.45744850  0.38873623  0.54949599  1  -0.05369  0.00017  3.750951  0.0  -0.026352  0.000142  -0.044446  8.2e-05  3.98749  0.0  -0.050008  7.5e-05  4.011757  0.0  -0.014674  -0.040508  9.5e-05  3.970887  0.0
C  C71  1  0.54254935  0.61126910  0.45050519  1  -0.053654  -0.000155  3.750772  0.0  -0.026124  -0.000142  -0.04439  -8.2e-05  3.987313  0.0  -0.049946  -7.5e-05  4.011579  0.0  -0.01459  -0.040454  -9.5e-05  3.970713  0.0
C  C72  1  0.41221701  0.28298504  0.59796098  1  -0.047324  -9e-05  3.692002  0.0  -0.051247  1.2e-05  -0.07317  0.0  3.94111  0.0  -0.073648  -2.7e-05  3.961034  0.0  -0.074269  -0.072985  8e-06  3.92767  0.0
C  C73  1  0.58778742  0.71702141  0.40203863  1  -0.047457  7.3e-05  3.692187  0.0  -0.051516  -1.1e-05  -0.073275  -0.0  3.941309  0.0  -0.073746  2.7e-05  3.961212  0.0  -0.074306  -0.073092  -8e-06  3.927873  0.0
C  C74  1  0.50340976  0.30531274  0.68281168  1  -0.044322  0.000251  3.707946  0.0  -0.024097  0.000203  -0.056944  0.000145  3.958136  0.0  -0.058847  0.000122  3.978886  0.0  -0.076584  -0.055149  0.000173  3.943309  0.0
C  C75  1  0.49659592  0.69469371  0.31718862  1  -0.044296  -0.000231  3.707956  0.0  -0.023918  -0.000203  -0.056881  -0.000145  3.958123  0.0  -0.058781  -0.000122  3.97887  0.0  -0.076619  -0.055087  -0.000173  3.943301  0.0
S  S76  1  0.45490132  0.78468331  0.07566915  1  -0.224897  -0.08312  2.240137  -0.094  0.149243  -0.080411  -0.250809  -0.051417  2.584809  -0.058  -0.283602  -0.037402  2.580343  -0.043  -0.097458  -0.229768  -0.061748  2.589066  -0.067
S  S77  1  0.54510095  0.21531964  0.92432782  1  -0.224848  0.083127  2.239997  0.094  0.149222  0.080412  -0.250772  0.051418  2.584672  0.058  -0.283571  0.037402  2.580211  0.043  -0.097412  -0.229738  0.061742  2.588932  0.067
S  S78  1  0.97187551  0.72006555  0.91306419  1  -0.255466  -0.077255  2.304793  -0.089  0.095324  -0.074684  -0.285996  -0.049273  2.671581  -0.057  -0.320745  -0.035643  2.664502  -0.042  -0.106886  -0.260019  -0.05853  2.676484  -0.066
S  S79  1  0.02812580  0.27993858  0.08693361  1  -0.255437  0.077253  2.304923  0.089  0.095241  0.074678  -0.285973  0.049268  2.671691  0.057  -0.320723  0.035639  2.664627  0.042  -0.106902  -0.260009  0.058517  2.676597  0.066
N  N80  1  0.33568218  0.46490348  0.04662410  1  -0.486764  0.015093  3.119608  0.021  -1.349526  0.020823  -0.468452  0.016378  3.420982  0.021  -0.503181  0.016605  3.426475  0.022  -0.395202  -0.446218  0.015476  3.417326  0.02
N  N81  1  0.66432066  0.53510647  0.95337610  1  -0.486869  -0.0151  3.119635  -0.021  -1.349748  -0.020831  -0.468561  -0.016381  3.421028  -0.021  -0.503283  -0.01661  3.4265  -0.022  -0.395251  -0.446337  -0.015484  3.417379  -0.02
N  N82  1  0.21349047  0.00704247  0.96913151  1  -0.471818  0.007644  3.076058  0.011  -1.324214  0.013194  -0.461347  0.011374  3.37591  0.014  -0.495524  0.011432  3.380685  0.014  -0.389395  -0.438626  0.010589  3.373184  0.012
N  N83  1  0.78651061  0.99295119  0.03086833  1  -0.471913  -0.007634  3.075799  -0.011  -1.32414  -0.013188  -0.461456  -0.01137  3.375681  -0.014  -0.495632  -0.011428  3.380445  -0.014  -0.389458  -0.43874  -0.010588  3.372959  -0.012
N  N84  1  0.14962787  0.22251408  0.87870778  1  -0.270529  0.059146  3.316467  0.085  -1.217561  0.064551  -0.224069  0.040491  3.58627  0.06  -0.254574  0.033201  3.612316  0.051  -0.312321  -0.203751  0.046486  3.569192  0.067
N  N85  1  0.85036944  0.77747959  0.12128999  1  -0.27071  -0.059137  3.316455  -0.085  -1.21758  -0.064553  -0.22409  -0.040491  3.586133  -0.06  -0.254564  -0.033202  3.612141  -0.051  -0.312339  -0.203755  -0.046491  3.56904  -0.067
N  N86  1  0.83252233  0.09278472  0.55800291  1  -0.67457  -0.000558  3.091753  -0.001  -1.353527  -0.000345  -0.635709  -0.000202  3.324  0.0  -0.659152  -0.000189  3.317637  0.0  -0.555862  -0.619992  -0.000252  3.328366  0.0
N  N87  1  0.16747746  0.90721361  0.44199642  1  -0.674531  0.000558  3.091619  0.001  -1.353471  0.000346  -0.635634  0.000203  3.323969  0.0  -0.659083  0.000189  3.317603  0.0  -0.555834  -0.619916  0.000252  3.328329  0.0
N  N88  1  0.42469921  0.23718078  0.12583479  1  -0.26261  0.063517  3.321339  0.091  -1.257533  0.069923  -0.218809  0.043628  3.595382  0.065  -0.249228  0.035695  3.620391  0.055  -0.313989  -0.198255  0.049854  3.578155  0.072
N  N89  1  0.57530057  0.76281756  0.87416781  1  -0.262471  -0.063534  3.321102  -0.091  -1.257376  -0.069925  -0.218659  -0.04363  3.595138  -0.065  -0.249072  -0.035698  3.620141  -0.055  -0.313931  -0.198099  -0.049861  3.577904  -0.072
N  N90  1  0.84351863  0.34740024  0.41396815  1  -0.671886  -0.000776  3.084984  -0.001  -1.34055  -0.000474  -0.632468  -0.000279  3.318844  0.0  -0.655895  -0.000241  3.313033  0.0  -0.562564  -0.616438  -0.000344  3.322696  0.0
N  N91  1  0.15648332  0.65260157  0.58603317  1  -0.671949  0.000777  3.085014  0.001  -1.340489  0.000475  -0.632551  0.00028  3.318864  0.0  -0.655981  0.000241  3.313047  0.0  -0.562564  -0.616521  0.000344  3.32272  0.0
O  O92  1  0.97605084  0.34747619  0.59537478  1  -0.598372  -0.000547  1.940989  -0.001  -1.193478  -0.000441  -0.542864  -0.000234  2.15585  0.0  -0.565758  -0.00021  2.150213  0.0  -0.300123  -0.52755  -0.000297  2.159559  0.0
O  O93  1  0.02394673  0.65252332  0.40462731  1  -0.598341  0.000545  1.941065  0.001  -1.193586  0.00044  -0.542739  0.000233  2.155907  0.0  -0.565632  0.00021  2.150265  0.0  -0.300065  -0.527425  0.000296  2.159617  0.0
O  O94  1  0.66780204  0.11011481  0.39502596  1  -0.579029  -0.000811  1.91328  -0.001  -1.186102  -0.000569  -0.528426  -0.000295  2.125191  -0.001  -0.550157  -0.000276  2.119539  0.0  -0.301501  -0.513817  -0.000353  2.129237  -0.001
O  O95  1  0.33219835  0.88988585  0.60497511  1  -0.579046  0.000812  1.913206  0.001  -1.186081  0.000569  -0.528445  0.000295  2.125083  0.001  -0.550179  0.000277  2.11943  0.0  -0.301509  -0.513835  0.000353  2.129128  0.001
O  O96  1  0.24429594  0.23987167  0.42232383  1  -0.474677  0.000119  1.930314  0.0  -1.132519  0.000102  -0.429177  6.7e-05  2.142503  0.0  -0.446284  6e-05  2.138217  0.0  -0.260278  -0.417205  7.3e-05  2.144891  0.0
O  O97  1  0.75570438  0.76013832  0.57767890  1  -0.474582  -0.000117  1.930259  0.0  -1.132671  -0.000102  -0.429124  -6.7e-05  2.142503  0.0  -0.446243  -5.9e-05  2.138244  0.0  -0.260211  -0.417137  -7.3e-05  2.144866  0.0
