# generated using pymatgen
data_HoPH11C9SNO9
_symmetry_space_group_name_H-M   'P 1'
_cell_length_a   6.73161337
_cell_length_b   7.50346102
_cell_length_c   13.32898685
_cell_angle_alpha   90.68617342
_cell_angle_beta   93.01288321
_cell_angle_gamma   101.79019592
_symmetry_Int_Tables_number   1
_chemical_formula_structural   HoPH11C9SNO9
_chemical_formula_sum   'Ho2 P2 H22 C18 S2 N2 O18'
_cell_volume   657.95972154
_cell_formula_units_Z   2
loop_
 _symmetry_equiv_pos_site_id
 _symmetry_equiv_pos_as_xyz
  1  'x, y, z'
loop_
 _atom_site_type_symbol
 _atom_site_label
 _atom_site_symmetry_multiplicity
 _atom_site_fract_x
 _atom_site_fract_y
 _atom_site_fract_z
 _atom_site_occupancy
 _atom_site_hle17_bader_spin_density
 _atom_site_hle17_ddec_charge
 _atom_site_hle17_ddec_spin_density
 _atom_site_hle17_ddec_sum_bond_order
 _atom_site_hle17_magmom
 _atom_site_hse06_10hf_bader_spin_density
 _atom_site_hse06_10hf_ddec_charge
 _atom_site_hse06_10hf_ddec_spin_density
 _atom_site_hse06_10hf_ddec_sum_bond_order
 _atom_site_hse06_10hf_magmom
 _atom_site_hse06_bader_spin_density
 _atom_site_hse06_ddec_charge
 _atom_site_hse06_ddec_spin_density
 _atom_site_hse06_ddec_sum_bond_order
 _atom_site_hse06_magmom
 _atom_site_pbe_bader_spin_density
 _atom_site_pbe_cm5_charge
 _atom_site_pbe_ddec_charge
 _atom_site_pbe_ddec_spin_density
 _atom_site_pbe_ddec_sum_bond_order
 _atom_site_pbe_magmom
Ho  Ho0  1  0.28579508  0.76874710  0.45532389  1  0  2.36716  0  1.573263  0  0  2.309193  0  1.88472  0  0  2.350458  0  1.846877  0  0  1.556238  2.204641  0  2.047983  0
Ho  Ho1  1  0.71420248  0.23125266  0.54467548  1  0  2.367138  0  1.573388  0  0  2.309167  0  1.884866  0  0  2.350437  0  1.847021  0  0  1.556268  2.20464  0  2.048079  0
P  P2  1  0.25000490  0.38652136  0.62025517  1  0  1.540654  0  4.919543  0  0  1.37736  0  5.429111  0  0  1.430236  0  5.383245  0  0  0.378997  1.338551  0  5.453426  0
P  P3  1  0.74998630  0.61347023  0.37974098  1  0  1.540829  0  4.919327  0  0  1.377569  0  5.428872  0  0  1.430452  0  5.383003  0  0  0.3791  1.338776  0  5.453165  0
H  H4  1  0.16768840  0.10616608  0.77418970  1  0  0.132455  0  0.933329  0  0  0.143242  0  0.987148  0  0  0.147099  0  0.985461  0  0  0.12329  0.140175  0  0.989205  0
H  H5  1  0.83230735  0.89383233  0.22581261  1  0  0.132444  0  0.933353  0  0  0.143229  0  0.987159  0  0  0.147087  0  0.985468  0  0  0.123273  0.140153  0  0.989213  0
H  H6  1  0.16949252  0.12565914  0.96155590  1  0  0.095907  0  0.931407  0  0  0.110947  0  0.98702  0  0  0.113189  0  0.985429  0  0  0.113205  0.109307  0  0.988136  0
H  H7  1  0.83051969  0.87434601  0.03844541  1  0  0.095903  0  0.931343  0  0  0.110991  0  0.9869  0  0  0.113234  0  0.985307  0  0  0.113217  0.109331  0  0.98804  0
H  H8  1  0.21540950  0.32020952  0.12017500  1  0  0.114686  0  0.959704  0  0  0.123754  0  1.021025  0  0  0.127289  0  1.018567  0  0  0.105219  0.121036  0  1.023023  0
H  H9  1  0.78460802  0.67979288  0.87982570  1  0  0.114652  0  0.959775  0  0  0.123751  0  1.021058  0  0  0.12727  0  1.018619  0  0  0.105225  0.121038  0  1.023057  0
H  H10  1  0.27246710  0.62891791  0.19901877  1  0  0.123127  0  0.952998  0  0  0.131146  0  1.014637  0  0  0.134483  0  1.013122  0  0  0.113748  0.128738  0  1.015561  0
H  H11  1  0.72754893  0.37108449  0.80098188  1  0  0.123091  0  0.953057  0  0  0.131102  0  1.014712  0  0  0.134438  0  1.013196  0  0  0.113722  0.128703  0  1.015624  0
H  H12  1  0.32793136  0.90146225  0.09557303  1  0  0.096827  0  0.948318  0  0  0.106304  0  1.010029  0  0  0.109254  0  1.00809  0  0  0.104248  0.104008  0  1.011722  0
H  H13  1  0.67208107  0.09853743  0.90442600  1  0  0.096788  0  0.94834  0  0  0.106341  0  1.009959  0  0  0.10929  0  1.008023  0  0  0.104303  0.104035  0  1.011682  0
H  H14  1  0.33095741  0.87292218  0.90712876  1  0  0.120177  0  0.969074  0  0  0.128471  0  1.031606  0  0  0.131716  0  1.030504  0  0  0.108769  0.126129  0  1.032433  0
H  H15  1  0.66904758  0.12707754  0.09287157  1  0  0.120151  0  0.969106  0  0  0.128467  0  1.031626  0  0  0.131716  0  1.030522  0  0  0.108752  0.126118  0  1.032457  0
H  H16  1  0.30875418  0.67923068  0.76583120  1  0  0.315678  0  0.903283  0  0  0.291383  0  0.969555  0  0  0.300866  0  0.962051  0  0  0.317316  0.284463  0  0.975493  0
H  H17  1  0.69124276  0.32076635  0.23416663  1  0  0.315668  0  0.903323  0  0  0.291388  0  0.969569  0  0  0.300872  0  0.962063  0  0  0.317327  0.284469  0  0.975503  0
H  H18  1  0.02673404  0.41845460  0.38656443  1  0  0.433051  0  0.863233  0  0  0.404307  0  0.926418  0  0  0.414392  0  0.911344  0  0  0.310413  0.397321  0  0.936339  0
H  H19  1  0.97326764  0.58154379  0.61343954  1  0  0.433046  0  0.863241  0  0  0.404301  0  0.926428  0  0  0.414384  0  0.911354  0  0  0.310424  0.39731  0  0.936356  0
H  H20  1  0.23422994  0.39171480  0.34440993  1  0  0.462659  0  0.822964  0  0  0.434874  0  0.879332  0  0  0.445227  0  0.864175  0  0  0.308175  0.426988  0  0.890841  0
H  H21  1  0.76577291  0.60828223  0.65559482  1  0  0.462641  0  0.822975  0  0  0.434862  0  0.879336  0  0  0.445218  0  0.864175  0  0  0.308178  0.426976  0  0.890849  0
H  H22  1  0.22817278  0.92075773  0.64429386  1  0  0.42201  0  0.888983  0  0  0.39167  0  0.953004  0  0  0.401942  0  0.937782  0  0  0.297092  0.384403  0  0.963527  0
H  H23  1  0.77183124  0.07923793  0.35571016  1  0  0.421944  0  0.889042  0  0  0.391598  0  0.953079  0  0  0.40187  0  0.937859  0  0  0.297061  0.38433  0  0.963604  0
H  H24  1  0.10771964  0.03908945  0.57563769  1  0  0.445947  0  0.851469  0  0  0.419298  0  0.907884  0  0  0.429698  0  0.89272  0  0  0.307131  0.411705  0  0.918571  0
H  H25  1  0.89227897  0.96090213  0.42436466  1  0  0.446331  0  0.850936  0  0  0.419517  0  0.907592  0  0  0.429954  0  0.89238  0  0  0.307255  0.411925  0  0.918279  0
C  C26  1  0.23843424  0.39686180  0.75787197  1  0  0.017207  0  3.548997  0  0  0.024138  0  3.802469  0  0  0.031037  0  3.813381  0  0  0.149555  0.019022  0  3.797351  0
C  C27  1  0.76155674  0.60313526  0.24212720  1  0  0.017174  0  3.549054  0  0  0.024082  0  3.802527  0  0  0.030981  0  3.813438  0  0  0.149544  0.018967  0  3.797404  0
C  C28  1  0.19729632  0.23681812  0.81395123  1  0  -0.070362  0  3.671052  0  0  -0.093454  0  3.927901  0  0  -0.100796  0  3.946331  0  0  -0.060727  -0.089298  0  3.917035  0
C  C29  1  0.80269646  0.76318030  0.18604950  1  0  -0.070369  0  3.671164  0  0  -0.093413  0  3.927963  0  0  -0.100753  0  3.946392  0  0  -0.060701  -0.089243  0  3.91707  0
C  C30  1  0.19804788  0.24866360  0.91717384  1  0  -0.020144  0  3.670566  0  0  -0.048004  0  3.922485  0  0  -0.04195  0  3.938177  0  0  -0.048787  -0.05172  0  3.911948  0
C  C31  1  0.80195445  0.75133750  0.08282717  1  0  -0.02014  0  3.670478  0  0  -0.048061  0  3.92237  0  0  -0.042009  0  3.93806  0  0  -0.048782  -0.051761  0  3.911829  0
C  C32  1  0.23486360  0.41984778  0.96780836  1  0  0.003656  0  3.817359  0  0  0.02362  0  4.043996  0  0  0.018978  0  4.069782  0  0  -0.000159  0.026371  0  4.026855  0
C  C33  1  0.76513874  0.58015331  0.03219040  1  0  0.003585  0  3.817399  0  0  0.023567  0  4.044065  0  0  0.018927  0  4.069848  0  0  -0.000237  0.026319  0  4.026922  0
C  C34  1  0.23763095  0.44052703  0.07363693  1  0  -0.099119  0  3.713375  0  0  -0.123939  0  3.968758  0  0  -0.125334  0  3.989928  0  0  -0.083326  -0.122605  0  3.954653  0
C  C35  1  0.76237586  0.55947405  0.92636271  1  0  -0.099026  0  3.713619  0  0  -0.123869  0  3.968981  0  0  -0.125251  0  3.990159  0  0  -0.083267  -0.12253  0  3.954877  0
C  C36  1  0.27129608  0.61178553  0.11784009  1  0  -0.048749  0  3.696642  0  0  -0.068151  0  3.955148  0  0  -0.072143  0  3.977889  0  0  -0.081497  -0.065853  0  3.940696  0
C  C37  1  0.72870923  0.38821555  0.88216025  1  0  -0.048677  0  3.696705  0  0  -0.068068  0  3.955225  0  0  -0.072055  0  3.977958  0  0  -0.081473  -0.065774  0  3.940786  0
C  C38  1  0.30316546  0.76828560  0.05793119  1  0  -0.030453  0  3.742705  0  0  -0.047033  0  3.999334  0  0  -0.046433  0  4.020591  0  0  -0.077841  -0.047234  0  3.985321  0
C  C39  1  0.69683986  0.23171549  0.94206840  1  0  -0.030442  0  3.742728  0  0  -0.047082  0  3.999381  0  0  -0.046482  0  4.020639  0  0  -0.077871  -0.047293  0  3.985364  0
C  C40  1  0.30376197  0.75403925  0.95449818  1  0  -0.179603  0  3.721862  0  0  -0.199695  0  3.976575  0  0  -0.20636  0  3.997854  0  0  -0.092694  -0.195289  0  3.962147  0
C  C41  1  0.69624154  0.24596048  0.04550135  1  0  -0.179603  0  3.721826  0  0  -0.199705  0  3.97658  0  0  -0.206373  0  3.997864  0  0  -0.092687  -0.195278  0  3.962136  0
C  C42  1  0.27018990  0.57905278  0.90868143  1  0  0.217511  0  3.721881  0  0  0.208133  0  3.958178  0  0  0.215228  0  3.979879  0  0  0.12501  0.203493  0  3.94367  0
C  C43  1  0.72981127  0.42094968  0.09131805  1  0  0.217569  0  3.721716  0  0  0.208137  0  3.958093  0  0  0.215231  0  3.979794  0  0  0.125015  0.203494  0  3.943589  0
S  S44  1  0.39814125  0.07894347  0.30959974  1  0  1.585268  0  5.842692  0  0  1.460176  0  6.401631  0  0  1.516317  0  6.362374  0  0  0.558973  1.421581  0  6.41737  0
S  S45  1  0.60184741  0.92105632  0.69039787  1  0  1.585154  0  5.842652  0  0  1.460077  0  6.401556  0  0  1.516215  0  6.362298  0  0  0.558885  1.4215  0  6.417267  0
N  N46  1  0.27140405  0.55843259  0.80621867  1  0  -0.231859  0  3.438999  0  0  -0.16797  0  3.650215  0  0  -0.183091  0  3.666101  0  0  -0.324942  -0.158478  0  3.640796  0
N  N47  1  0.72859055  0.44156718  0.19377986  1  0  -0.231867  0  3.438974  0  0  -0.167975  0  3.650216  0  0  -0.183094  0  3.666101  0  0  -0.32497  -0.158491  0  3.640811  0
O  O48  1  0.24777201  0.58092716  0.58768264  1  0  -0.966745  0  2.055907  0  0  -0.900225  0  2.32718  0  0  -0.925313  0  2.30438  0  0  -0.463122  -0.870664  0  2.344203  0
O  O49  1  0.75223478  0.41907393  0.41231850  1  0  -0.966711  0  2.055771  0  0  -0.900224  0  2.327051  0  0  -0.925327  0  2.304254  0  0  -0.463156  -0.870681  0  2.344077  0
O  O50  1  0.44261268  0.31930193  0.60255781  1  0  -0.938087  0  1.998879  0  0  -0.878166  0  2.279599  0  0  -0.904791  0  2.257593  0  0  -0.463842  -0.846759  0  2.298276  0
O  O51  1  0.55738426  0.68069509  0.39743927  1  0  -0.938114  0  1.998857  0  0  -0.878213  0  2.279578  0  0  -0.90484  0  2.257565  0  0  -0.463846  -0.846805  0  2.298254  0
O  O52  1  0.05688958  0.25054284  0.58436693  1  0  -0.943784  0  2.053344  0  0  -0.869413  0  2.31082  0  0  -0.897406  0  2.291175  0  0  -0.441085  -0.838941  0  2.326348  0
O  O53  1  0.94310046  0.74945013  0.41562919  1  0  -0.943989  0  2.053339  0  0  -0.869584  0  2.310814  0  0  -0.897596  0  2.291166  0  0  -0.441116  -0.839109  0  2.326334  0
O  O54  1  0.27047041  0.89466847  0.28828485  1  0  -0.789832  0  1.987974  0  0  -0.75229  0  2.261542  0  0  -0.773728  0  2.245785  0  0  -0.402678  -0.728361  0  2.271148  0
O  O55  1  0.72952221  0.10533537  0.71170614  1  0  -0.78982  0  1.987974  0  0  -0.752337  0  2.261649  0  0  -0.773779  0  2.245896  0  0  -0.402718  -0.728413  0  2.27125  0
O  O56  1  0.43359192  0.08585931  0.42328670  1  0  -0.920632  0  2.109486  0  0  -0.878504  0  2.389252  0  0  -0.899878  0  2.370645  0  0  -0.457011  -0.845279  0  2.399158  0
O  O57  1  0.56639962  0.91415273  0.57670956  1  0  -0.920689  0  2.109462  0  0  -0.878565  0  2.389231  0  0  -0.899939  0  2.370626  0  0  -0.457077  -0.845338  0  2.399123  0
O  O58  1  0.29889703  0.22511601  0.27432062  1  0  -0.686746  0  1.936977  0  0  -0.627879  0  2.171277  0  0  -0.648942  0  2.153345  0  0  -0.337551  -0.614231  0  2.184507  0
O  O59  1  0.70107366  0.77487707  0.72568171  1  0  -0.686595  0  1.937073  0  0  -0.627776  0  2.171417  0  0  -0.648838  0  2.153485  0  0  -0.337391  -0.614129  0  2.184636  0
O  O60  1  0.59839753  0.09642042  0.26240971  1  0  -0.729862  0  1.984499  0  0  -0.666533  0  2.223693  0  0  -0.689069  0  2.207275  0  0  -0.343597  -0.651042  0  2.23461  0
O  O61  1  0.40159625  0.90360115  0.73758666  1  0  -0.729815  0  1.98436  0  0  -0.666439  0  2.223515  0  0  -0.688975  0  2.207095  0  0  -0.343605  -0.650976  0  2.234463  0
O  O62  1  0.16305172  0.48465009  0.37085618  1  0  -0.930467  0  1.874427  0  0  -0.893909  0  2.069937  0  0  -0.911596  0  2.037894  0  0  -0.643363  -0.871101  0  2.096967  0
O  O63  1  0.83695556  0.51534693  0.62915245  1  0  -0.930477  0  1.874471  0  0  -0.893921  0  2.069974  0  0  -0.911608  0  2.037928  0  0  -0.64338  -0.871111  0  2.097006  0
O  O64  1  0.14012664  0.91563248  0.58172511  1  0  -0.907515  0  1.874084  0  0  -0.872815  0  2.066757  0  0  -0.890532  0  2.035339  0  0  -0.655158  -0.851043  0  2.093002  0
O  O65  1  0.85988184  0.08436315  0.41827679  1  0  -0.907792  0  1.873699  0  0  -0.872949  0  2.066574  0  0  -0.890703  0  2.035076  0  0  -0.655272  -0.851187  0  2.092819  0
