# generated using pymatgen
data_Al2H8C16O15F4
_symmetry_space_group_name_H-M   'P 1'
_cell_length_a   6.69808883
_cell_length_b   13.09057829
_cell_length_c   17.24097723
_cell_angle_alpha   89.81745883
_cell_angle_beta   90.57801602
_cell_angle_gamma   81.25727083
_symmetry_Int_Tables_number   1
_chemical_formula_structural   Al2H8C16O15F4
_chemical_formula_sum   'Al4 H16 C32 O30 F8'
_cell_volume   1494.06284430
_cell_formula_units_Z   2
loop_
 _symmetry_equiv_pos_site_id
 _symmetry_equiv_pos_as_xyz
  1  'x, y, z'
loop_
 _atom_site_type_symbol
 _atom_site_label
 _atom_site_symmetry_multiplicity
 _atom_site_fract_x
 _atom_site_fract_y
 _atom_site_fract_z
 _atom_site_occupancy
 _atom_site_pbe_bader_charge
 _atom_site_pbe_bader_spin_density
 _atom_site_pbe_cm5_charge
 _atom_site_pbe_ddec_charge
 _atom_site_pbe_ddec_spin_density
 _atom_site_pbe_ddec_sum_bond_order
 _atom_site_pbe_magmom
Al  Al0  1  0.11965661  0.49400741  0.50136823  1  2.500402  0  0.398298  1.638697  0  2.596183  0
Al  Al1  1  0.62087679  0.49164357  0.50096336  1  2.501124  0  0.398677  1.640579  0  2.571888  0
Al  Al2  1  0.77841455  0.00497963  0.00382198  1  2.500935  0  0.39927  1.634101  0  2.593735  0
Al  Al3  1  0.27840246  0.00547843  0.00287269  1  2.499543  0  0.40322  1.643752  0  2.568453  0
H  H4  1  0.18020481  0.27333127  0.14720290  1  0.13186  0  0.12294  0.149752  0  0.969458  0
H  H5  1  0.18580825  0.27676434  0.85524020  1  0.122441  0  0.119591  0.143148  0  0.976928  0
H  H6  1  0.75649658  0.85735732  0.14548688  1  0.641796  0  0.316719  0.355954  0  0.961625  0
H  H7  1  0.65571273  0.75294640  0.78721728  1  0.646777  0  0.303171  0.341855  0  0.989979  0
H  H8  1  0.25181775  0.72305101  0.28312107  1  0.666115  0  0.317382  0.364367  0  0.967709  0
H  H9  1  0.24971338  0.72495765  0.72595548  1  0.666633  0  0.317187  0.359688  0  0.967155  0
H  H10  1  0.38091169  0.82782364  0.17674913  1  0.654925  0  0.338257  0.388747  0  0.876159  0
H  H11  1  0.34830380  0.83984756  0.83913146  1  0.647691  0  0.329715  0.3759  0  0.900135  0
H  H12  1  0.84329051  0.00554920  0.33798975  1  0.613621  0  0.325695  0.375871  0  0.889441  0
H  H13  1  0.84257557  0.00941243  0.66697999  1  0.631087  0  0.325341  0.375565  0  0.89117  0
H  H14  1  0.85463403  0.32459879  0.37227660  1  0.628391  0  0.325285  0.371345  0  0.906521  0
H  H15  1  0.87560969  0.32012759  0.62298778  1  0.649829  0  0.326419  0.37906  0  0.897307  0
H  H16  1  0.33470320  0.61422526  0.46286543  1  0.613399  0  0.358108  0.443057  0  0.838253  0
H  H17  1  0.91817131  0.35276550  0.49046668  1  0.597129  0  0.347352  0.424335  0  0.867321  0
H  H18  1  0.56993147  0.87686165  0.97394636  1  0.621351  0  0.3517  0.433107  0  0.8527  0
H  H19  1  0.99083900  0.12249065  0.95946543  1  0.633991  0  0.353644  0.431002  0  0.856261  0
C  C20  1  0.40108846  0.37217810  0.39303627  1  1.621879  0  0.276116  0.676931  0  4.070237  0
C  C21  1  0.40336409  0.37929150  0.61215397  1  1.611342  0  0.280715  0.680898  0  4.070829  0
C  C22  1  0.83727805  0.60955945  0.60790314  1  1.622033  0  0.250798  0.598019  0  4.20319  0
C  C23  1  0.83338590  0.61108389  0.39347889  1  1.569667  0  0.251073  0.600891  0  4.185662  0
C  C24  1  0.81225114  0.67891844  0.32520796  1  0.543592  0  0.0729  -0.0039  0  3.925157  0
C  C25  1  0.82069000  0.67132633  0.67887134  1  0.424666  0  0.065476  -0.019702  0  3.873354  0
C  C26  1  0.96641018  0.71690214  0.28728826  1  0.633896  0  0.088269  0.167496  0  4.041884  0
C  C27  1  0.96982679  0.70984937  0.72030336  1  0.6586  0  0.087397  0.151105  0  4.094177  0
C  C28  1  0.09470444  0.81924179  0.18085291  1  0.43439  0  0.045323  -0.013131  0  4.031286  0
C  C29  1  0.08224660  0.81169573  0.83065938  1  0.492181  0  0.053553  0.022403  0  3.965828  0
C  C30  1  0.93581085  0.78332353  0.21786713  1  0.659253  0  0.088036  0.167971  0  4.036732  0
C  C31  1  0.93216824  0.77013033  0.79236093  1  0.602339  0  0.081704  0.154431  0  4.036378  0
C  C32  1  0.58785893  0.23969253  0.30554382  1  -0.045554  0  -0.01228  -0.057993  0  3.990965  0
C  C33  1  0.59279903  0.24456385  0.69964145  1  -0.094303  0  -0.008705  -0.048603  0  3.974051  0
C  C34  1  0.41803763  0.31269529  0.31931602  1  0.063823  0  -0.003185  -0.133155  0  3.91996  0
C  C35  1  0.42445212  0.31911448  0.68573374  1  0.121068  0  -0.002343  -0.136581  0  3.923145  0
C  C36  1  0.27684484  0.32328111  0.25795878  1  0.545662  0  0.123759  0.299275  0  3.999415  0
C  C37  1  0.28369863  0.32897249  0.74612134  1  0.448226  0  0.123792  0.300666  0  4.000689  0
C  C38  1  0.30057299  0.26333820  0.19074579  1  0.033303  0  -0.074239  -0.203652  0  3.929123  0
C  C39  1  0.30521913  0.26631437  0.81235428  1  0.0333  0  -0.0774  -0.205373  0  3.93987  0
C  C40  1  0.47369478  0.19047192  0.17922834  1  0.037647  0  0.00811  0.002419  0  3.934402  0
C  C41  1  0.47512400  0.19092552  0.82374894  1  0.036088  0  0.005512  0.002304  0  3.934037  0
C  C42  1  0.61894711  0.18083967  0.23863626  1  -0.015851  0  -0.010524  -0.068308  0  3.897809  0
C  C43  1  0.62102048  0.18277991  0.76573033  1  0.055868  0  -0.012864  -0.073632  0  3.901544  0
C  C44  1  0.81875290  0.12109409  0.26822614  1  1.119387  0  0.178452  0.38884  0  3.942099  0
C  C45  1  0.81978026  0.12269642  0.73760745  1  1.126944  0  0.17812  0.386422  0  3.940973  0
C  C46  1  0.78596896  0.19395714  0.34300997  1  1.082335  0  0.168323  0.357567  0  3.979054  0
C  C47  1  0.78934437  0.19721490  0.66298968  1  1.117547  0  0.170356  0.359659  0  3.979721  0
C  C48  1  0.49388391  0.12353524  0.89396757  1  1.583744  0  0.27559  0.657436  0  4.082751  0
C  C49  1  0.49396448  0.12536949  0.10826974  1  1.586221  0  0.276598  0.649555  0  4.090415  0
C  C50  1  0.06804649  0.88715009  0.11369904  1  1.518337  0  0.249182  0.583867  0  4.15148  0
C  C51  1  0.05765293  0.87765643  0.89968947  1  1.561084  0  0.254958  0.603715  0  4.133151  0
O  O52  1  0.56822450  0.39557528  0.58127762  1  -1.250621  0  -0.229242  -0.590749  0  2.330262  0
O  O53  1  0.56907335  0.39275304  0.42050637  1  -1.250225  0  -0.235468  -0.60523  0  2.325764  0
O  O54  1  0.22848620  0.39467617  0.42291894  1  -1.240374  0  -0.225218  -0.574625  0  2.348636  0
O  O55  1  0.22729964  0.40631728  0.58510694  1  -1.238947  0  -0.219918  -0.566717  0  2.363676  0
O  O56  1  0.01054743  0.58298342  0.42083600  1  -1.248334  0  -0.236008  -0.589445  0  2.428032  0
O  O57  1  0.01067794  0.58934333  0.57752977  1  -1.242479  0  -0.228692  -0.562451  0  2.386262  0
O  O58  1  0.35342238  0.55396943  0.49677323  1  -1.4089  0  -0.444902  -0.981101  0  2.158179  0
O  O59  1  0.67434344  0.58155632  0.58260161  1  -1.245292  0  -0.239576  -0.580702  0  2.348082  0
O  O60  1  0.67096489  0.58495625  0.42051140  1  -1.252688  0  -0.246976  -0.60767  0  2.357875  0
O  O61  1  0.89070437  0.42567607  0.50314324  1  -1.403343  0  -0.44955  -0.990861  0  2.18507  0
O  O62  1  0.33186328  0.10160951  0.07954787  1  -1.251577  0  -0.225853  -0.576136  0  2.347195  0
O  O63  1  0.33119556  0.10087705  0.92216831  1  -1.255489  0  -0.232188  -0.596323  0  2.341127  0
O  O64  1  0.67232668  0.09469635  0.91989532  1  -1.254454  0  -0.23057  -0.593405  0  2.340737  0
O  O65  1  0.67122979  0.09861809  0.08242036  1  -1.246154  0  -0.227084  -0.57411  0  2.3267  0
O  O66  1  0.88615585  0.90136937  0.93048441  1  -1.252451  0  -0.230916  -0.569975  0  2.397844  0
O  O67  1  0.88723282  0.91530874  0.08698518  1  -1.243938  0  -0.23066  -0.577823  0  2.418078  0
O  O68  1  0.54688920  0.94045621  0.00358331  1  -1.424257  0  -0.450323  -0.992855  0  2.168727  0
O  O69  1  0.22772866  0.91358573  0.08491862  1  -1.251432  0  -0.233275  -0.575141  0  2.344414  0
O  O70  1  0.22487838  0.90658281  0.92301311  1  -1.246765  0  -0.246386  -0.616745  0  2.334546  0
O  O71  1  0.00968701  0.06724261  0.99783353  1  -1.432608  0  -0.445049  -0.976174  0  2.156791  0
O  O72  1  0.74521904  0.80954965  0.19059915  1  -1.127549  0  -0.338771  -0.416604  0  2.346337  0
O  O73  1  0.74314324  0.78571791  0.82237018  1  -1.122251  0  -0.350066  -0.418546  0  2.353214  0
O  O74  1  0.15592975  0.69211407  0.31602672  1  -1.12458  0  -0.334584  -0.40246  0  2.344689  0
O  O75  1  0.15879776  0.69101069  0.69258681  1  -1.12063  0  -0.32387  -0.373435  0  2.344586  0
O  O76  1  0.28998324  0.79130118  0.20686402  1  -1.139767  0  -0.342839  -0.425134  0  2.442704  0
O  O77  1  0.27816406  0.79634400  0.80417121  1  -1.156299  0  -0.352718  -0.444391  0  2.390904  0
O  O78  1  0.82515049  0.01683150  0.28207797  1  -1.114945  0  -0.374367  -0.510046  0  2.262033  0
O  O79  1  0.82668816  0.01877022  0.72300448  1  -1.142092  0  -0.376135  -0.505401  0  2.240752  0
O  O80  1  0.92689260  0.25639898  0.35788850  1  -1.133887  0  -0.36145  -0.488039  0  2.332813  0
O  O81  1  0.93617273  0.25545161  0.64875144  1  -1.159536  0  -0.359913  -0.485733  0  2.330397  0
F  F82  1  0.76417370  0.13199387  0.40988396  1  -0.611211  0  -0.150534  -0.239809  0  1.220643  0
F  F83  1  0.75887316  0.13635082  0.59612190  1  -0.613081  0  -0.151686  -0.244718  0  1.218523  0
F  F84  1  0.61879439  0.70345896  0.29903665  1  -0.619129  0  -0.094709  -0.097072  0  1.472036  0
F  F85  1  0.62425365  0.68976796  0.70649975  1  -0.624771  0  -0.073909  -0.106471  0  1.453354  0
F  F86  1  0.11125218  0.39649898  0.26156287  1  -0.631644  0  -0.088272  -0.128982  0  1.350557  0
F  F87  1  0.12035877  0.40364718  0.74253167  1  -0.622448  0  -0.087849  -0.129574  0  1.355442  0
F  F88  1  0.98559297  0.13564264  0.22420347  1  -0.624636  0  -0.128262  -0.197344  0  1.293738  0
F  F89  1  0.98641204  0.13599625  0.78398290  1  -0.628968  0  -0.132756  -0.205724  0  1.290472  0
