# generated using pymatgen
data_ZnH12(C9N5)2
_symmetry_space_group_name_H-M   'P 1'
_cell_length_a   7.25183500
_cell_length_b   16.33248225
_cell_length_c   16.28872076
_cell_angle_alpha   89.99989177
_cell_angle_beta   105.82896013
_cell_angle_gamma   89.99949294
_symmetry_Int_Tables_number   1
_chemical_formula_structural   ZnH12(C9N5)2
_chemical_formula_sum   'Zn4 H48 C72 N40'
_cell_volume   1856.08723810
_cell_formula_units_Z   4
loop_
 _symmetry_equiv_pos_site_id
 _symmetry_equiv_pos_as_xyz
  1  'x, y, z'
loop_
 _atom_site_type_symbol
 _atom_site_label
 _atom_site_symmetry_multiplicity
 _atom_site_fract_x
 _atom_site_fract_y
 _atom_site_fract_z
 _atom_site_occupancy
 _atom_site_pbe_bader_charge
 _atom_site_pbe_bader_spin_density
 _atom_site_pbe_cm5_charge
 _atom_site_pbe_ddec_charge
 _atom_site_pbe_ddec_spin_density
 _atom_site_pbe_ddec_sum_bond_order
 _atom_site_pbe_magmom
Zn  Zn0  1  0.74527503  0.48130609  0.70234638  1  1.19634  0  0.751658  0.581453  0  2.505656  0
Zn  Zn1  1  0.25473350  0.98130297  0.79765426  1  1.196377  0  0.751726  0.581558  0  2.505699  0
Zn  Zn2  1  0.25472642  0.51870383  0.29764206  1  1.196409  0  0.751732  0.581614  0  2.505683  0
Zn  Zn3  1  0.74526682  0.01869410  0.20235995  1  1.196273  0  0.751734  0.581614  0  2.505679  0
H  H4  1  0.38012533  0.44901471  0.75036284  1  0.145029  0  0.118765  0.086074  0  1.029917  0
H  H5  1  0.61988593  0.94901567  0.74964167  1  0.145058  0  0.118755  0.086091  0  1.029914  0
H  H6  1  0.61994174  0.55097745  0.24964682  1  0.144836  0  0.118713  0.085912  0  1.029852  0
H  H7  1  0.38009307  0.05098996  0.25036325  1  0.145068  0  0.118721  0.085955  0  1.029968  0
H  H8  1  0.26166759  0.45470746  0.87422738  1  0.133838  0  0.111107  0.110214  0  1.04429  0
H  H9  1  0.73834887  0.95471739  0.62578058  1  0.133465  0  0.111123  0.110225  0  1.044329  0
H  H10  1  0.73839629  0.54527062  0.12578015  1  0.13299  0  0.111099  0.110129  0  1.044428  0
H  H11  1  0.26162771  0.04528824  0.37422659  1  0.133491  0  0.111048  0.110164  0  1.04428  0
H  H12  1  0.82213997  0.54406146  0.01760178  1  0.092945  0  0.114622  0.119778  0  1.008407  0
H  H13  1  0.17786174  0.04404462  0.48239870  1  0.092985  0  0.114631  0.119758  0  1.008466  0
H  H14  1  0.17788786  0.45596866  0.98239270  1  0.093174  0  0.114593  0.119772  0  1.00866  0
H  H15  1  0.82209934  0.95593836  0.51760833  1  0.093317  0  0.114614  0.119819  0  1.008513  0
H  H16  1  0.91796606  0.53576636  0.88346452  1  0.135146  0  0.124332  0.093451  0  0.992516  0
H  H17  1  0.08204238  0.03575586  0.61653751  1  0.135031  0  0.124342  0.093426  0  0.992528  0
H  H18  1  0.08206683  0.46425091  0.11653472  1  0.135407  0  0.124317  0.093449  0  0.992463  0
H  H19  1  0.91793266  0.96422651  0.38346891  1  0.135237  0  0.12429  0.09338  0  0.992487  0
H  H20  1  0.51141105  0.61012476  0.59379288  1  0.161454  0  0.116512  0.080384  0  1.056832  0
H  H21  1  0.48856890  0.11012378  0.90621891  1  0.161824  0  0.116555  0.080515  0  1.056761  0
H  H22  1  0.48859328  0.38987476  0.40617981  1  0.164485  0  0.116493  0.080406  0  1.056844  0
H  H23  1  0.51142326  0.88987757  0.09381304  1  0.164433  0  0.116583  0.080445  0  1.056882  0
H  H24  1  0.17099312  0.62601587  0.51427124  1  0.124647  0  0.11351  0.120194  0  1.034528  0
H  H25  1  0.82899986  0.12601779  0.98573651  1  0.124644  0  0.113495  0.120238  0  1.034413  0
H  H26  1  0.82901539  0.37397507  0.48570121  1  0.124672  0  0.113422  0.120154  0  1.034588  0
H  H27  1  0.17100254  0.87398234  0.01428957  1  0.124851  0  0.113479  0.12022  0  1.03466  0
H  H28  1  0.10896303  0.36359613  0.53824987  1  0.123578  0  0.115119  0.126163  0  1.018812  0
H  H29  1  0.89106700  0.86359617  0.96173374  1  0.124377  0  0.115175  0.126199  0  1.018884  0
H  H30  1  0.89103181  0.63640890  0.46175707  1  0.124036  0  0.115119  0.126111  0  1.0188  0
H  H31  1  0.10895501  0.13640640  0.03825960  1  0.123552  0  0.11516  0.12615  0  1.018887  0
H  H32  1  0.45153037  0.35911598  0.61635631  1  0.142257  0  0.117449  0.085265  0  1.036192  0
H  H33  1  0.54848329  0.85911504  0.88364009  1  0.141867  0  0.117396  0.085174  0  1.036259  0
H  H34  1  0.54845897  0.64088782  0.38365138  1  0.142091  0  0.117477  0.08524  0  1.036185  0
H  H35  1  0.45153331  0.14088570  0.11636263  1  0.142248  0  0.117448  0.085267  0  1.036239  0
H  H36  1  0.39660327  0.64792815  0.85611208  1  0.075  0  0.099154  0.103579  0  1.01573  0
H  H37  1  0.60339753  0.14792922  0.64387568  1  0.075039  0  0.099122  0.103482  0  1.015618  0
H  H38  1  0.60337597  0.35207626  0.14387809  1  0.075307  0  0.099107  0.10353  0  1.015678  0
H  H39  1  0.39659544  0.85206906  0.35612063  1  0.074499  0  0.09916  0.103555  0  1.015616  0
H  H40  1  0.29080497  0.75258633  0.60545945  1  0.074478  0  0.105299  0.11308  0  0.994529  0
H  H41  1  0.70917778  0.25256562  0.89453786  1  0.074587  0  0.105289  0.113156  0  0.994627  0
H  H42  1  0.70919724  0.24742298  0.39453338  1  0.074561  0  0.105325  0.113074  0  0.994591  0
H  H43  1  0.29080496  0.74742409  0.10546431  1  0.074523  0  0.105343  0.113109  0  0.994632  0
H  H44  1  0.62627863  0.80499687  0.64233305  1  0.065301  0  0.10207  0.107276  0  1.010072  0
H  H45  1  0.37372601  0.30498606  0.85766470  1  0.065735  0  0.10211  0.107281  0  1.010016  0
H  H46  1  0.37374140  0.19500264  0.35766505  1  0.065489  0  0.102089  0.10729  0  1.010031  0
H  H47  1  0.62624365  0.69499631  0.14233509  1  0.065365  0  0.102103  0.107307  0  1.010037  0
H  H48  1  0.73010965  0.70375400  0.89428884  1  0.112064  0  0.101583  0.105433  0  1.007617  0
H  H49  1  0.26989973  0.20375878  0.60570242  1  0.111968  0  0.10159  0.105489  0  1.007634  0
H  H50  1  0.26987651  0.29624367  0.10570871  1  0.111983  0  0.101605  0.105493  0  1.007672  0
H  H51  1  0.73009072  0.79624134  0.39428751  1  0.112152  0  0.101574  0.105317  0  1.007621  0
C  C52  1  0.47667903  0.46893698  0.81061927  1  0.416124  0  0.062332  0.112954  0  3.921533  0
C  C53  1  0.52333671  0.96893793  0.68938715  1  0.415917  0  0.062351  0.112991  0  3.921601  0
C  C54  1  0.52337902  0.53106253  0.18938712  1  0.416675  0  0.062445  0.113377  0  3.920912  0
C  C55  1  0.47664866  0.03106648  0.31062204  1  0.416597  0  0.062464  0.113269  0  3.92098  0
C  C56  1  0.41007069  0.47262295  0.88270203  1  0.071063  0  -0.06565  -0.153407  0  3.925664  0
C  C57  1  0.58994365  0.97262133  0.61730297  1  0.071248  0  -0.065716  -0.153485  0  3.92588  0
C  C58  1  0.58999022  0.52737289  0.11730462  1  0.069982  0  -0.065683  -0.153516  0  3.925742  0
C  C59  1  0.41002986  0.02737941  0.38270270  1  0.068936  0  -0.065669  -0.153523  0  3.925536  0
C  C60  1  0.53241130  0.49817434  0.96068860  1  -0.007519  0  0.021358  0.111862  0  3.935606  0
C  C61  1  0.46760316  0.99817117  0.53931536  1  -0.007409  0  0.021358  0.111907  0  3.935498  0
C  C62  1  0.46764522  0.50182762  0.03931704  1  -0.046251  0  0.021218  0.111988  0  3.935392  0
C  C63  1  0.53237144  0.00182651  0.46068856  1  -0.045167  0  0.021314  0.112029  0  3.93535  0
C  C64  1  0.71948145  0.52121042  0.96038499  1  -0.031957  0  -0.07225  -0.155462  0  3.909077  0
C  C65  1  0.28052021  0.02119681  0.53961607  1  -0.031516  0  -0.07218  -0.155468  0  3.909054  0
C  C66  1  0.28056298  0.47880257  0.03961588  1  -0.032632  0  -0.072224  -0.15571  0  3.909262  0
C  C67  1  0.71944757  0.97879229  0.46038909  1  -0.03332  0  -0.07232  -0.155757  0  3.909327  0
C  C68  1  0.77544649  0.51634285  0.88567166  1  0.442574  0  0.053189  0.093532  0  3.935313  0
C  C69  1  0.22455925  0.01633468  0.61433047  1  0.442417  0  0.05317  0.09364  0  3.935133  0
C  C70  1  0.22459430  0.48366707  0.11433259  1  0.442403  0  0.053469  0.093932  0  3.93508  0
C  C71  1  0.77541392  0.98364891  0.38567332  1  0.442592  0  0.053434  0.093866  0  3.935183  0
C  C72  1  0.41477662  0.55765299  0.58125889  1  0.396753  0  0.047618  0.097581  0  3.906067  0
C  C73  1  0.58521564  0.05765375  0.91874688  1  0.396319  0  0.047612  0.097569  0  3.905858  0
C  C74  1  0.58522891  0.44234713  0.41872068  1  0.393281  0  0.047687  0.097573  0  3.90613  0
C  C75  1  0.41478423  0.94234944  0.08127282  1  0.393357  0  0.047533  0.097508  0  3.906272  0
C  C76  1  0.22317112  0.56549436  0.53675111  1  0.025124  0  -0.073216  -0.151427  0  3.914108  0
C  C77  1  0.77683045  0.06549463  0.96325659  1  0.025172  0  -0.073159  -0.15145  0  3.914014  0
C  C78  1  0.77683364  0.43450087  0.46323209  1  0.025294  0  -0.073053  -0.151322  0  3.914149  0
C  C79  1  0.22318119  0.93450672  0.03675801  1  0.025307  0  -0.07314  -0.151376  0  3.914429  0
C  C80  1  0.10325653  0.49655565  0.52209422  1  -0.010551  0  0.018973  0.109664  0  3.923964  0
C  C81  1  0.89674002  0.99655704  0.97790448  1  -0.01084  0  0.018914  0.109674  0  3.923995  0
C  C82  1  0.89673546  0.50344264  0.47789646  1  0.030488  0  0.018985  0.109498  0  3.924132  0
C  C83  1  0.10326679  0.00344309  0.02210660  1  0.030711  0  0.019076  0.109631  0  3.924094  0
C  C84  1  0.18893920  0.42063321  0.55009420  1  0.065763  0  -0.070363  -0.142144  0  3.909225  0
C  C85  1  0.81108452  0.92063116  0.94989589  1  0.064986  0  -0.070247  -0.142074  0  3.909013  0
C  C86  1  0.81105751  0.57936876  0.44990737  1  0.065305  0  -0.070369  -0.14204  0  3.909  0
C  C87  1  0.18893220  0.07936897  0.05009945  1  0.065808  0  -0.070323  -0.142013  0  3.909079  0
C  C88  1  0.38126673  0.41713838  0.59406259  1  0.350585  0  0.045572  0.083723  0  3.925272  0
C  C89  1  0.61874356  0.91713868  0.90593252  1  0.350914  0  0.045563  0.083834  0  3.925158  0
C  C90  1  0.61872580  0.58286480  0.40593922  1  0.35072  0  0.045546  0.08379  0  3.925091  0
C  C91  1  0.38126722  0.08286450  0.09406907  1  0.350506  0  0.045532  0.083697  0  3.925326  0
C  C92  1  0.13275251  0.65887006  0.70351690  1  0.93902  0  0.201172  0.22496  0  4.076065  0
C  C93  1  0.86724943  0.15886090  0.79648124  1  0.939218  0  0.201116  0.224781  0  4.076283  0
C  C94  1  0.86724036  0.34114170  0.29647078  1  0.938864  0  0.201129  0.224843  0  4.076178  0
C  C95  1  0.13273870  0.84113371  0.20351957  1  0.938632  0  0.201112  0.224934  0  4.075821  0
C  C96  1  0.32353410  0.69532617  0.72806805  1  -0.006955  0  -0.006417  0.033085  0  4.002853  0
C  C97  1  0.67646935  0.19531778  0.77192468  1  -0.006992  0  -0.006475  0.033122  0  4.003032  0
C  C98  1  0.67646515  0.30468008  0.27192389  1  -0.006742  0  -0.006444  0.03306  0  4.003117  0
C  C99  1  0.32351582  0.80467745  0.22807525  1  -0.007069  0  -0.006505  0.033007  0  4.003034  0
C  C100  1  0.44874840  0.68176041  0.80939336  1  -0.006738  0  -0.090552  -0.112088  0  3.983262  0
C  C101  1  0.55125614  0.18175600  0.69060277  1  -0.006913  0  -0.09046  -0.111845  0  3.983509  0
C  C102  1  0.55123721  0.31824461  0.19060107  1  -0.007314  0  -0.090488  -0.111909  0  3.983428  0
C  C103  1  0.44873617  0.81823555  0.30939779  1  -0.006448  0  -0.090478  -0.111908  0  3.983517  0
C  C104  1  0.38771279  0.74193152  0.66868450  1  0.004844  0  -0.0885  -0.115589  0  3.96652  0
C  C105  1  0.61227994  0.24192116  0.83130957  1  0.005053  0  -0.088401  -0.115792  0  3.966891  0
C  C106  1  0.61229052  0.25807289  0.33130658  1  0.004778  0  -0.088503  -0.115676  0  3.966843  0
C  C107  1  0.38770841  0.75807223  0.16869249  1  0.004708  0  -0.088475  -0.115691  0  3.967047  0
C  C108  1  0.88972793  0.79557342  0.79527988  1  0.927159  0  0.200561  0.221212  0  4.079073  0
C  C109  1  0.11027269  0.29557220  0.70471459  1  0.927166  0  0.200522  0.221273  0  4.078818  0
C  C110  1  0.11027262  0.20442426  0.20472757  1  0.927543  0  0.200643  0.221405  0  4.078685  0
C  C111  1  0.88971413  0.70442241  0.29527871  1  0.927674  0  0.200508  0.22112  0  4.079063  0
C  C112  1  0.69918696  0.75874504  0.77095449  1  -0.009273  0  -0.007292  0.030574  0  4.009599  0
C  C113  1  0.30080709  0.25873816  0.72904063  1  -0.008692  0  -0.007297  0.030486  0  4.009572  0
C  C114  1  0.30080799  0.24125814  0.22904507  1  -0.008938  0  -0.00735  0.030434  0  4.009614  0
C  C115  1  0.69917478  0.74125278  0.27095654  1  -0.008202  0  -0.007419  0.030279  0  4.009737  0
C  C116  1  0.57388831  0.77210385  0.68954905  1  -0.030365  0  -0.090352  -0.118514  0  3.9933  0
C  C117  1  0.42610507  0.27209177  0.81044517  1  -0.031348  0  -0.090465  -0.1184  0  3.993324  0
C  C118  1  0.42612017  0.22790056  0.31044740  1  -0.030558  0  -0.0904  -0.11843  0  3.993297  0
C  C119  1  0.57387262  0.72789856  0.18955224  1  -0.030731  0  -0.090435  -0.118478  0  3.993611  0
C  C120  1  0.63404469  0.71304343  0.83064539  1  -0.137144  0  -0.093182  -0.126202  0  3.985038  0
C  C121  1  0.36596155  0.21304033  0.66934852  1  -0.137173  0  -0.093124  -0.126235  0  3.985268  0
C  C122  1  0.36594729  0.28696160  0.16935330  1  -0.1372  0  -0.093127  -0.12626  0  3.985418  0
C  C123  1  0.63401845  0.78695123  0.33064603  1  -0.137541  0  -0.093028  -0.125847  0  3.985147  0
N  N124  1  0.65673030  0.48943771  0.81157713  1  -1.252233  0  -0.325834  -0.208117  0  3.55803  0
N  N125  1  0.34328524  0.98943893  0.68842831  1  -1.252093  0  -0.325905  -0.208241  0  3.557918  0
N  N126  1  0.34332347  0.51056915  0.18842889  1  -1.251747  0  -0.32608  -0.208559  0  3.558027  0
N  N127  1  0.65669430  0.01055997  0.31157974  1  -1.251763  0  -0.326  -0.208389  0  3.557872  0
N  N128  1  0.49225078  0.48486429  0.61142574  1  -1.272551  0  -0.340803  -0.216169  0  3.578855  0
N  N129  1  0.50775314  0.98486432  0.88857935  1  -1.272524  0  -0.340925  -0.216461  0  3.579142  0
N  N130  1  0.50774935  0.51513461  0.38856320  1  -1.272336  0  -0.340872  -0.216261  0  3.579053  0
N  N131  1  0.49224663  0.01513703  0.11143973  1  -1.272468  0  -0.340901  -0.216356  0  3.57933  0
N  N132  1  0.89951500  0.57922698  0.69466098  1  -0.295359  0  -0.151602  -0.075372  0  3.654528  0
N  N133  1  0.10049264  0.07922201  0.80533594  1  -0.294969  0  -0.151459  -0.075273  0  3.65426  0
N  N134  1  0.10047470  0.42078355  0.30531657  1  -0.293934  0  -0.151653  -0.075582  0  3.654299  0
N  N135  1  0.89949933  0.92077444  0.19467075  1  -0.29504  0  -0.151593  -0.075335  0  3.654167  0
N  N136  1  0.84420506  0.63371240  0.63138521  1  -0.152802  0  -0.100827  -0.082945  0  3.30018  0
N  N137  1  0.15579546  0.13370472  0.86861446  1  -0.153579  0  -0.100984  -0.083248  0  3.300318  0
N  N138  1  0.15579123  0.36630364  0.36859785  1  -0.154002  0  -0.100624  -0.082677  0  3.299903  0
N  N139  1  0.84419322  0.86629602  0.13138948  1  -0.153654  0  -0.100836  -0.083012  0  3.300283  0
N  N140  1  0.98923507  0.68427143  0.63553977  1  -0.624783  0  -0.223613  -0.280901  0  3.222369  0
N  N141  1  0.01076072  0.18426198  0.86446170  1  -0.624591  0  -0.223444  -0.280609  0  3.22232  0
N  N142  1  0.01076396  0.31574523  0.36445092  1  -0.624073  0  -0.223592  -0.280888  0  3.222266  0
N  N143  1  0.98922335  0.81573753  0.13553998  1  -0.624389  0  -0.223587  -0.280856  0  3.222425  0
N  N144  1  0.07968295  0.59307445  0.74151484  1  -0.652007  0  -0.229394  -0.282978  0  3.176663  0
N  N145  1  0.92032273  0.09306844  0.75848167  1  -0.652193  0  -0.229564  -0.282997  0  3.176623  0
N  N146  1  0.92030344  0.40693303  0.25846796  1  -0.65293  0  -0.229542  -0.282999  0  3.176601  0
N  N147  1  0.07966913  0.90692495  0.24152440  1  -0.651702  0  -0.229408  -0.282976  0  3.176186  0
N  N148  1  0.11859108  0.87772198  0.80387765  1  -0.302683  0  -0.149969  -0.072335  0  3.653633  0
N  N149  1  0.88141522  0.37772629  0.69611778  1  -0.302966  0  -0.150091  -0.072491  0  3.653706  0
N  N150  1  0.88140759  0.12227631  0.19613518  1  -0.303255  0  -0.150138  -0.072527  0  3.653473  0
N  N151  1  0.11858689  0.62227568  0.30387442  1  -0.303068  0  -0.150086  -0.072465  0  3.653645  0
N  N152  1  0.17721786  0.82358062  0.86735775  1  -0.125083  0  -0.106103  -0.093162  0  3.276734  0
N  N153  1  0.82278459  0.32358710  0.63263641  1  -0.124831  0  -0.105985  -0.092991  0  3.276855  0
N  N154  1  0.82278401  0.17641215  0.13264920  1  -0.124476  0  -0.106064  -0.093055  0  3.276561  0
N  N155  1  0.17720938  0.67641303  0.36735753  1  -0.12491  0  -0.105981  -0.093037  0  3.276764  0
N  N156  1  0.03483676  0.77131699  0.86317651  1  -0.645801  0  -0.228724  -0.28463  0  3.217345  0
N  N157  1  0.96516196  0.27132161  0.63681635  1  -0.6458  0  -0.228775  -0.2848  0  3.217446  0
N  N158  1  0.96516720  0.22867395  0.13682631  1  -0.646463  0  -0.228668  -0.284648  0  3.217271  0
N  N159  1  0.03482365  0.72867545  0.36317808  1  -0.646094  0  -0.228752  -0.284585  0  3.217346  0
N  N160  1  0.93922275  0.86208298  0.75717170  1  -0.65778  0  -0.227342  -0.280085  0  3.189208  0
N  N161  1  0.06078528  0.36208406  0.74282353  1  -0.657631  0  -0.227273  -0.279965  0  3.188974  0
N  N162  1  0.06077581  0.13791714  0.24284050  1  -0.657483  0  -0.22733  -0.280108  0  3.18898  0
N  N163  1  0.93921551  0.63791423  0.25716917  1  -0.657529  0  -0.227259  -0.279949  0  3.189044  0
