# generated using pymatgen
data_ZnH12C10(NO)4
_symmetry_space_group_name_H-M   'P 1'
_cell_length_a   7.79630151
_cell_length_b   12.84687474
_cell_length_c   13.14500000
_cell_angle_alpha   90.00000000
_cell_angle_beta   90.00000000
_cell_angle_gamma   90.00000000
_symmetry_Int_Tables_number   1
_chemical_formula_structural   ZnH12C10(NO)4
_chemical_formula_sum   'Zn4 H48 C40 N16 O16'
_cell_volume   1316.57834248
_cell_formula_units_Z   4
loop_
 _symmetry_equiv_pos_site_id
 _symmetry_equiv_pos_as_xyz
  1  'x, y, z'
loop_
 _atom_site_type_symbol
 _atom_site_label
 _atom_site_symmetry_multiplicity
 _atom_site_fract_x
 _atom_site_fract_y
 _atom_site_fract_z
 _atom_site_occupancy
 _atom_site_hle17_bader_spin_density
 _atom_site_hle17_ddec_charge
 _atom_site_hle17_ddec_spin_density
 _atom_site_hle17_ddec_sum_bond_order
 _atom_site_hle17_magmom
 _atom_site_hse06_10hf_bader_spin_density
 _atom_site_hse06_10hf_ddec_charge
 _atom_site_hse06_10hf_ddec_spin_density
 _atom_site_hse06_10hf_ddec_sum_bond_order
 _atom_site_hse06_10hf_magmom
 _atom_site_hse06_bader_spin_density
 _atom_site_hse06_ddec_charge
 _atom_site_hse06_ddec_spin_density
 _atom_site_hse06_ddec_sum_bond_order
 _atom_site_hse06_magmom
 _atom_site_pbe_bader_charge
 _atom_site_pbe_bader_spin_density
 _atom_site_pbe_cm5_charge
 _atom_site_pbe_ddec_charge
 _atom_site_pbe_ddec_spin_density
 _atom_site_pbe_ddec_sum_bond_order
 _atom_site_pbe_magmom
Zn  Zn0  1  0.97388871  0.08313539  0.21179612  1  0  0.996959  0  1.90506  0  0  0.799936  0  2.393675  0  0  0.846274  0  2.338287  0  1.248691  0  0.693901  0.767616  0  2.431741  0
Zn  Zn1  1  0.52611100  0.91686424  0.71179764  1  0  0.996956  0  1.905085  0  0  0.799915  0  2.393708  0  0  0.846253  0  2.338322  0  1.248696  0  0.693905  0.767593  0  2.431775  0
Zn  Zn2  1  0.47388880  0.41686325  0.78820312  1  0  0.99695  0  1.905064  0  0  0.799957  0  2.393673  0  0  0.846298  0  2.33829  0  1.248691  0  0.693913  0.767637  0  2.43174  0
Zn  Zn3  1  0.02610982  0.58313560  0.28820388  1  0  0.996931  0  1.905107  0  0  0.799855  0  2.393774  0  0  0.84619  0  2.338388  0  1.248692  0  0.693887  0.767533  0  2.431838  0
H  H4  1  0.60028463  0.97540454  0.20108330  1  0  0.31043  0  0.942315  0  0  0.289302  0  1.004842  0  0  0.2986  0  0.997401  0  0.576067  0  0.30716  0.282723  0  1.010136  0
H  H5  1  0.89971507  0.02459587  0.70108330  1  0  0.310411  0  0.942344  0  0  0.289294  0  1.004866  0  0  0.298598  0  0.997414  0  0.576061  0  0.307156  0.282715  0  1.01016  0
H  H6  1  0.10028473  0.52459607  0.79891594  1  0  0.310418  0  0.942341  0  0  0.289293  0  1.004874  0  0  0.298598  0  0.99742  0  0.576069  0  0.307147  0.282715  0  1.010167  0
H  H7  1  0.39971517  0.47540434  0.29891594  1  0  0.310419  0  0.942332  0  0  0.289296  0  1.004856  0  0  0.298594  0  0.997414  0  0.576066  0  0.307156  0.282718  0  1.01015  0
H  H8  1  0.61351142  0.22639981  0.44111677  1  0  0.107406  0  0.932899  0  0  0.122042  0  0.994229  0  0  0.124135  0  0.993851  0  0.093495  0  0.101036  0.120502  0  0.994595  0
H  H9  1  0.88649342  0.77360138  0.94111601  1  0  0.107378  0  0.932909  0  0  0.122043  0  0.994242  0  0  0.12414  0  0.993867  0  0.093438  0  0.10102  0.120504  0  0.994607  0
H  H10  1  0.11350895  0.27360117  0.55888399  1  0  0.107401  0  0.932874  0  0  0.122045  0  0.994216  0  0  0.124139  0  0.99384  0  0.093462  0  0.101027  0.120506  0  0.994582  0
H  H11  1  0.38648710  0.72639768  0.05888323  1  0  0.107362  0  0.932964  0  0  0.122034  0  0.994275  0  0  0.12413  0  0.993894  0  0.093506  0  0.101017  0.120495  0  0.994642  0
H  H12  1  0.80194692  0.29763426  0.46780525  1  0  0.115611  0  0.95143  0  0  0.1281  0  1.016033  0  0  0.131051  0  1.014723  0  0.086075  0  0.100584  0.125928  0  1.017075  0
H  H13  1  0.69805663  0.70236538  0.96780449  1  0  0.115624  0  0.951411  0  0  0.128101  0  1.016041  0  0  0.131073  0  1.014713  0  0.086094  0  0.100588  0.125932  0  1.017079  0
H  H14  1  0.30194445  0.20236517  0.53219627  1  0  0.115604  0  0.951428  0  0  0.128082  0  1.016048  0  0  0.131039  0  1.014737  0  0.086084  0  0.100572  0.125912  0  1.017089  0
H  H15  1  0.19805417  0.79763290  0.03219551  1  0  0.115594  0  0.951463  0  0  0.128078  0  1.016099  0  0  0.13101  0  1.014812  0  0.086107  0  0.100574  0.125915  0  1.017134  0
H  H16  1  0.04866410  0.44078269  0.05788132  1  0  0.312826  0  0.94406  0  0  0.29176  0  1.009216  0  0  0.300889  0  1.001288  0  0.573947  0  0.307021  0.28532  0  1.014807  0
H  H17  1  0.45133965  0.55921850  0.55788285  1  0  0.312825  0  0.9441  0  0  0.291752  0  1.009249  0  0  0.300883  0  1.001321  0  0.573966  0  0.307024  0.285281  0  1.014891  0
H  H18  1  0.54866272  0.05921752  0.94211868  1  0  0.31282  0  0.944108  0  0  0.291738  0  1.009275  0  0  0.30087  0  1.001346  0  0.573958  0  0.30701  0.285265  0  1.014919  0
H  H19  1  0.95133955  0.94078367  0.44211715  1  0  0.312806  0  0.944093  0  0  0.291737  0  1.009256  0  0  0.300867  0  1.001329  0  0.573943  0  0.307005  0.285296  0  1.014849  0
H  H20  1  0.85556978  0.18573934  0.62291061  1  0  0.095375  0  0.935577  0  0  0.109917  0  0.99628  0  0  0.112483  0  0.994936  0  0.03358  0  0.096747  0.108082  0  0.997362  0
H  H21  1  0.64443377  0.81425874  0.12290985  1  0  0.095359  0  0.935614  0  0  0.109918  0  0.996313  0  0  0.112483  0  0.99497  0  0.033621  0  0.09676  0.108083  0  0.997395  0
H  H22  1  0.35556732  0.31425853  0.37709015  1  0  0.095399  0  0.935576  0  0  0.109928  0  0.996312  0  0  0.112492  0  0.99497  0  0.03361  0  0.096755  0.108093  0  0.997394  0
H  H23  1  0.14443259  0.68574110  0.87708863  1  0  0.095386  0  0.935581  0  0  0.109929  0  0.996258  0  0  0.112494  0  0.994914  0  0.033584  0  0.096755  0.108095  0  0.997342  0
H  H24  1  0.65821723  0.25216483  0.62986611  1  0  0.099525  0  0.945939  0  0  0.115939  0  1.008534  0  0  0.117526  0  1.00881  0  0.064018  0  0.100085  0.114798  0  1.008448  0
H  H25  1  0.84178504  0.74783480  0.12986535  1  0  0.099503  0  0.945945  0  0  0.115923  0  1.008545  0  0  0.117509  0  1.008823  0  0.063999  0  0.10007  0.114782  0  1.008459  0
H  H26  1  0.15821733  0.24783382  0.37013541  1  0  0.099528  0  0.945939  0  0  0.115954  0  1.008531  0  0  0.117539  0  1.00881  0  0.064018  0  0.10008  0.114813  0  1.008446  0
H  H27  1  0.34178257  0.75216581  0.87013541  1  0  0.099511  0  0.945923  0  0  0.115903  0  1.008518  0  0  0.117487  0  1.008797  0  0.064019  0  0.100071  0.114767  0  1.008427  0
H  H28  1  0.56177022  0.02234084  0.38651046  1  0  0.117489  0  0.96809  0  0  0.126082  0  1.027275  0  0  0.12868  0  1.026106  0  0.155115  0  0.123579  0.124189  0  1.028178  0
H  H29  1  0.93822821  0.97766035  0.88651046  1  0  0.117465  0  0.968126  0  0  0.126061  0  1.027308  0  0  0.128657  0  1.026137  0  0.155088  0  0.123571  0.124166  0  1.028219  0
H  H30  1  0.06177031  0.47766014  0.61348878  1  0  0.117512  0  0.968056  0  0  0.126096  0  1.027248  0  0  0.128697  0  1.026078  0  0.155091  0  0.123572  0.124199  0  1.028165  0
H  H31  1  0.43822702  0.52234027  0.11348878  1  0  0.117487  0  0.968077  0  0  0.126075  0  1.027266  0  0  0.128675  0  1.026096  0  0.155074  0  0.123571  0.124177  0  1.028185  0
H  H32  1  0.30635808  0.98405412  0.10424344  1  0  0.100962  0  0.939586  0  0  0.109963  0  1.003534  0  0  0.112748  0  0.999852  0  0.170525  0  0.13801  0.107892  0  1.006183  0
H  H33  1  0.19364182  0.01594473  0.60424420  1  0  0.100979  0  0.939559  0  0  0.109976  0  1.003513  0  0  0.112763  0  0.99983  0  0.170548  0  0.138007  0.107906  0  1.006162  0
H  H34  1  0.80635799  0.51594650  0.89575580  1  0  0.100969  0  0.939551  0  0  0.109963  0  1.003511  0  0  0.11275  0  0.999827  0  0.170536  0  0.138001  0.107893  0  1.006159  0
H  H35  1  0.69364044  0.48405391  0.39575580  1  0  0.100983  0  0.939575  0  0  0.109981  0  1.003521  0  0  0.112767  0  0.999838  0  0.170543  0  0.138005  0.107911  0  1.006169  0
H  H36  1  0.21626921  0.06901445  0.40974135  1  0  0.10829  0  0.975836  0  0  0.116378  0  1.039293  0  0  0.118914  0  1.038224  0  0.116337  0  0.116516  0.114433  0  1.040332  0
H  H37  1  0.28372941  0.93098674  0.90974211  1  0  0.108295  0  0.975863  0  0  0.116385  0  1.039314  0  0  0.118922  0  1.038244  0  0.116091  0  0.116528  0.11444  0  1.040355  0
H  H38  1  0.71626912  0.43098653  0.59025789  1  0  0.108281  0  0.975854  0  0  0.116372  0  1.039306  0  0  0.118908  0  1.038237  0  0.11633  0  0.116511  0.114426  0  1.040348  0
H  H39  1  0.78372803  0.56901388  0.09025789  1  0  0.108297  0  0.975857  0  0  0.116387  0  1.039307  0  0  0.118924  0  1.038238  0  0.116089  0  0.116529  0.114442  0  1.040347  0
H  H40  1  0.94849718  0.32953151  0.20924990  1  0  0.095699  0  0.947934  0  0  0.103707  0  1.012309  0  0  0.105906  0  1.009907  0  0.169242  0  0.134597  0.102044  0  1.014053  0
H  H41  1  0.55150509  0.67046968  0.70924990  1  0  0.095678  0  0.947968  0  0  0.103716  0  1.012312  0  0  0.105916  0  1.009908  0  0.169396  0  0.134616  0.102053  0  1.014056  0
H  H42  1  0.44849856  0.17046948  0.79075086  1  0  0.095643  0  0.947982  0  0  0.103679  0  1.01233  0  0  0.105879  0  1.009927  0  0.169261  0  0.13459  0.102016  0  1.014076  0
H  H43  1  0.05150391  0.82952938  0.29075086  1  0  0.095663  0  0.947927  0  0  0.103697  0  1.012284  0  0  0.105897  0  1.009881  0  0.169412  0  0.134606  0.102034  0  1.014028  0
H  H44  1  0.12476685  0.32544024  0.90458045  1  0  0.111725  0  0.951472  0  0  0.122973  0  1.008043  0  0  0.125593  0  1.006851  0  0.120434  0  0.123425  0.12102  0  1.00909  0
H  H45  1  0.37523690  0.67455939  0.40458045  1  0  0.111754  0  0.951429  0  0  0.123002  0  1.008  0  0  0.125621  0  1.006809  0  0.120453  0  0.123427  0.121048  0  1.009047  0
H  H46  1  0.62476291  0.17455841  0.09542183  1  0  0.11172  0  0.951421  0  0  0.122969  0  1.007998  0  0  0.125589  0  1.006806  0  0.120428  0  0.123409  0.121015  0  1.009047  0
H  H47  1  0.87523808  0.82544122  0.59542031  1  0  0.111742  0  0.951434  0  0  0.12299  0  1.008007  0  0  0.125609  0  1.006815  0  0.12045  0  0.123424  0.121036  0  1.009053  0
H  H48  1  0.07699933  0.12191214  0.97239026  1  0  0.097885  0  0.991638  0  0  0.102639  0  1.062231  0  0  0.104696  0  1.062056  0  0.11681  0  0.110581  0.101094  0  1.062502  0
H  H49  1  0.42300314  0.87808827  0.47239102  1  0  0.097859  0  0.99167  0  0  0.102612  0  1.062267  0  0  0.104666  0  1.062097  0  0.116799  0  0.110602  0.101066  0  1.062538  0
H  H50  1  0.57699667  0.37808806  0.02761126  1  0  0.097877  0  0.991641  0  0  0.10263  0  1.062231  0  0  0.104688  0  1.062055  0  0.116808  0  0.110587  0.101085  0  1.062502  0
H  H51  1  0.92300176  0.62191235  0.52761126  1  0  0.097858  0  0.991667  0  0  0.102618  0  1.062253  0  0  0.104672  0  1.062084  0  0.116788  0  0.110602  0.101073  0  1.062524  0
C  C52  1  0.74106164  0.22076031  0.47637277  1  0  -0.259747  0  3.695161  0  0  -0.298646  0  3.945322  0  0  -0.304814  0  3.954433  0  -0.074755  0  -0.170552  -0.294188  0  3.938931  0
C  C53  1  0.75894320  0.77923933  0.97637277  1  0  -0.259689  0  3.69512  0  0  -0.29867  0  3.94539  0  0  -0.30486  0  3.9545  0  -0.074612  0  -0.170533  -0.294212  0  3.939002  0
C  C54  1  0.24105917  0.27923990  0.52362800  1  0  -0.259674  0  3.695059  0  0  -0.298611  0  3.945343  0  0  -0.304789  0  3.954455  0  -0.074752  0  -0.170496  -0.294155  0  3.938954  0
C  C55  1  0.25893816  0.72075895  0.02362723  1  0  -0.259672  0  3.695171  0  0  -0.298654  0  3.94541  0  0  -0.304809  0  3.954526  0  -0.074756  0  -0.170516  -0.294201  0  3.939016  0
C  C56  1  0.63004362  0.09094352  0.60698060  1  0  0.694264  0  3.838929  0  0  0.645111  0  4.142813  0  0  0.678239  0  4.135299  0  1.538061  0  0.205594  0.622582  0  4.147228  0
C  C57  1  0.86995737  0.90905611  0.10697908  1  0  0.694197  0  3.838931  0  0  0.645029  0  4.14286  0  0  0.67816  0  4.135345  0  1.538089  0  0.205582  0.622501  0  4.147272  0
C  C58  1  0.13004115  0.40905669  0.39302016  1  0  0.694007  0  3.83924  0  0  0.64496  0  4.142992  0  0  0.67809  0  4.135481  0  1.538109  0  0.20553  0.622433  0  4.147404  0
C  C59  1  0.36995747  0.59094372  0.89301864  1  0  0.694307  0  3.838843  0  0  0.645158  0  4.142702  0  0  0.678286  0  4.135186  0  1.538084  0  0.205642  0.622631  0  4.147118  0
C  C60  1  0.72793234  0.19104179  0.58814454  1  0  -0.241217  0  3.715968  0  0  -0.285519  0  3.973058  0  0  -0.290885  0  3.982044  0  -0.016494  0  -0.169895  -0.281824  0  3.966855  0
C  C61  1  0.77206993  0.80895784  0.08814454  1  0  -0.241165  0  3.715961  0  0  -0.285494  0  3.973147  0  0  -0.29086  0  3.982138  0  -0.016541  0  -0.169901  -0.281799  0  3.966945  0
C  C62  1  0.22793115  0.30895841  0.41185622  1  0  -0.241214  0  3.715906  0  0  -0.285568  0  3.973064  0  0  -0.290934  0  3.982053  0  -0.016524  0  -0.169928  -0.281875  0  3.966866  0
C  C63  1  0.27206747  0.69104122  0.91185470  1  0  -0.241267  0  3.715878  0  0  -0.285514  0  3.97295  0  0  -0.290875  0  3.981923  0  -0.016531  0  -0.169921  -0.281826  0  3.966758  0
C  C64  1  0.84579592  0.14443279  0.41367744  1  0  0.709419  0  3.842445  0  0  0.663249  0  4.142504  0  0  0.696076  0  4.135619  0  1.557371  0  0.210718  0.640877  0  4.146508  0
C  C65  1  0.65420636  0.85556528  0.91367592  1  0  0.709305  0  3.842521  0  0  0.663214  0  4.142498  0  0  0.696043  0  4.135612  0  1.557271  0  0.210704  0.640838  0  4.146506  0
C  C66  1  0.34579473  0.35556586  0.58632408  1  0  0.709349  0  3.842418  0  0  0.663208  0  4.142457  0  0  0.696035  0  4.135575  0  1.557377  0  0.210706  0.640837  0  4.146457  0
C  C67  1  0.15420389  0.64443144  0.08632180  1  0  0.709638  0  3.842419  0  0  0.663467  0  4.14249  0  0  0.696296  0  4.135599  0  1.557851  0  0.210845  0.641094  0  4.146494  0
C  C68  1  0.45804155  0.02165974  0.33195816  1  0  -0.000986  0  3.686696  0  0  -0.035818  0  3.941668  0  0  -0.033611  0  3.959992  0  0.324059  0  0.003148  -0.037269  0  3.929439  0
C  C69  1  0.04195579  0.97834067  0.83195892  1  0  -0.000943  0  3.686783  0  0  -0.035769  0  3.941758  0  0  -0.033557  0  3.960077  0  0.324019  0  0.003158  -0.037221  0  3.929526  0
C  C70  1  0.95804273  0.47834046  0.66804108  1  0  -0.000965  0  3.686723  0  0  -0.035777  0  3.941678  0  0  -0.033574  0  3.960006  0  0.324039  0  0.003157  -0.03723  0  3.929446  0
C  C71  1  0.54195569  0.52165995  0.16804032  1  0  -0.000943  0  3.686703  0  0  -0.035764  0  3.94167  0  0  -0.033559  0  3.959995  0  0.324012  0  0.003161  -0.037217  0  3.929438  0
C  C72  1  0.32799783  0.00163464  0.18377482  1  0  0.218008  0  3.662659  0  0  0.157517  0  3.927901  0  0  0.17222  0  3.939645  0  0.978448  0  0.143031  0.148033  0  3.919595  0
C  C73  1  0.17200207  0.99836499  0.68377558  1  0  0.217986  0  3.662584  0  0  0.157502  0  3.927832  0  0  0.172204  0  3.939578  0  0.978447  0  0.143042  0.148017  0  3.919526  0
C  C74  1  0.82799774  0.49836634  0.81622442  1  0  0.21804  0  3.662585  0  0  0.15756  0  3.927839  0  0  0.172264  0  3.939582  0  0.978463  0  0.143076  0.148075  0  3.919535  0
C  C75  1  0.67200069  0.50163484  0.31622442  1  0  0.217993  0  3.662601  0  0  0.157518  0  3.927838  0  0  0.17222  0  3.939583  0  0.978422  0  0.143056  0.148033  0  3.919533  0
C  C76  1  0.28737344  0.04493700  0.34304298  1  0  -0.015674  0  3.745328  0  0  -0.048782  0  4.009556  0  0  -0.048135  0  4.030417  0  0.383636  0  -0.008163  -0.04922  0  3.995661  0
C  C77  1  0.21262390  0.95506419  0.84304450  1  0  -0.015745  0  3.745409  0  0  -0.048856  0  4.009644  0  0  -0.04821  0  4.030504  0  0.384171  0  -0.00821  -0.049295  0  3.995748  0
C  C78  1  0.78737463  0.45506398  0.65695550  1  0  -0.015731  0  3.745366  0  0  -0.048836  0  4.009601  0  0  -0.04819  0  4.030464  0  0.383631  0  -0.008189  -0.049273  0  3.995704  0
C  C79  1  0.71262380  0.54493565  0.15695550  1  0  -0.015741  0  3.745411  0  0  -0.048845  0  4.009637  0  0  -0.048199  0  4.030499  0  0.38404  0  -0.008205  -0.049283  0  3.995741  0
C  C80  1  0.99032984  0.29985659  0.13619551  1  0  0.217552  0  3.665678  0  0  0.158665  0  3.928634  0  0  0.172711  0  3.942003  0  0.962599  0  0.140914  0.14958  0  3.919307  0
C  C81  1  0.50967372  0.70014382  0.63619551  1  0  0.217638  0  3.665718  0  0  0.158692  0  3.928666  0  0  0.172737  0  3.942035  0  0.962418  0  0.140933  0.149607  0  3.919334  0
C  C82  1  0.49032993  0.20014362  0.86380525  1  0  0.217662  0  3.66567  0  0  0.15876  0  3.928624  0  0  0.172807  0  3.941992  0  0.962604  0  0.140937  0.149675  0  3.919292  0
C  C83  1  0.00967382  0.79985679  0.36380525  1  0  0.217602  0  3.665634  0  0  0.15865  0  3.92858  0  0  0.172695  0  3.94195  0  0.962534  0  0.140907  0.149563  0  3.919253  0
C  C84  1  0.08088579  0.29540570  0.97698973  1  0  -0.002749  0  3.689983  0  0  -0.040423  0  3.947806  0  0  -0.038901  0  3.967619  0  0.379153  0  0.001312  -0.041423  0  3.934483  0
C  C85  1  0.41911540  0.70459471  0.47699049  1  0  -0.002887  0  3.689989  0  0  -0.040565  0  3.947824  0  0  -0.039045  0  3.967639  0  0.379145  0  0.001295  -0.041563  0  3.934496  0
C  C86  1  0.58088441  0.20459606  0.02301027  1  0  -0.002896  0  3.690167  0  0  -0.04058  0  3.947998  0  0  -0.03906  0  3.967814  0  0.379164  0  0.00122  -0.041578  0  3.93467  0
C  C87  1  0.91911273  0.79540435  0.52300875  1  0  -0.002876  0  3.690153  0  0  -0.04055  0  3.947985  0  0  -0.039028  0  3.9678  0  0.379162  0  0.001282  -0.041548  0  3.93466  0
C  C88  1  0.05753113  0.19531365  0.01118905  1  0  -0.012143  0  3.755353  0  0  -0.045272  0  4.01882  0  0  -0.04425  0  4.040401  0  0.334906  0  -0.00992  -0.045936  0  4.004274  0
C  C89  1  0.44246878  0.80468676  0.51119133  1  0  -0.011979  0  3.755238  0  0  -0.04513  0  4.018672  0  0  -0.044105  0  4.040248  0  0.334948  0  -0.009951  -0.045795  0  4.004128  0
C  C90  1  0.55752975  0.30468655  0.98881095  1  0  -0.012005  0  3.755435  0  0  -0.045115  0  4.018878  0  0  -0.044094  0  4.040462  0  0.334879  0  -0.009847  -0.04578  0  4.004331  0
C  C91  1  0.94246483  0.69531308  0.48880867  1  0  -0.012078  0  3.755444  0  0  -0.045252  0  4.018892  0  0  -0.044227  0  4.040468  0  0.334917  0  -0.01001  -0.045916  0  4.004345  0
N  N92  1  0.20722133  0.03220472  0.24984861  1  0  -0.413652  0  3.339065  0  0  -0.327901  0  3.640541  0  0  -0.348896  0  3.652821  0  -1.246888  0  -0.368901  -0.313669  0  3.631923  0
N  N93  1  0.29277857  0.96779569  0.74985013  1  0  -0.413613  0  3.339058  0  0  -0.327865  0  3.640532  0  0  -0.34886  0  3.652815  0  -1.247148  0  -0.368878  -0.313632  0  3.631916  0
N  N94  1  0.70721995  0.46779626  0.75015063  1  0  -0.413645  0  3.339067  0  0  -0.327918  0  3.640561  0  0  -0.348914  0  3.652844  0  -1.246866  0  -0.368905  -0.313685  0  3.631944  0
N  N95  1  0.79277719  0.53220492  0.25014987  1  0  -0.413604  0  3.339061  0  0  -0.327869  0  3.640545  0  0  -0.348865  0  3.652826  0  -1.247006  0  -0.368879  -0.313636  0  3.631926  0
N  N96  1  0.48042652  0.99445120  0.23159833  1  0  -0.277349  0  3.457143  0  0  -0.207899  0  3.687417  0  0  -0.223995  0  3.701358  0  -1.326637  0  -0.374952  -0.197093  0  3.677875  0
N  N97  1  0.01957210  0.00554921  0.73159909  1  0  -0.277331  0  3.457144  0  0  -0.207897  0  3.687422  0  0  -0.223997  0  3.701357  0  -1.326624  0  -0.374955  -0.197091  0  3.677879  0
N  N98  1  0.98042642  0.50554941  0.76840091  1  0  -0.277373  0  3.457194  0  0  -0.207935  0  3.68747  0  0  -0.224035  0  3.701405  0  -1.326633  0  -0.374961  -0.197128  0  3.677927  0
N  N99  1  0.51957200  0.49445177  0.26840091  1  0  -0.277366  0  3.457119  0  0  -0.20793  0  3.687398  0  0  -0.224026  0  3.70134  0  -1.326592  0  -0.37497  -0.197123  0  3.677854  0
N  N100  1  0.00074523  0.19918152  0.11081552  1  0  -0.408142  0  3.334092  0  0  -0.322562  0  3.631318  0  0  -0.34371  0  3.644578  0  -1.235299  0  -0.366153  -0.30824  0  3.62207  0
N  N101  1  0.49925468  0.80081889  0.61081704  1  0  -0.408201  0  3.33404  0  0  -0.322536  0  3.631225  0  0  -0.343684  0  3.644484  0  -1.23535  0  -0.366125  -0.308214  0  3.621979  0
N  N102  1  0.50074641  0.30081869  0.88918448  1  0  -0.408174  0  3.334067  0  0  -0.322619  0  3.631321  0  0  -0.34377  0  3.644581  0  -1.235317  0  -0.366173  -0.308297  0  3.622074  0
N  N103  1  0.99925073  0.69918172  0.38918296  1  0  -0.408084  0  3.333934  0  0  -0.322387  0  3.631077  0  0  -0.343535  0  3.644337  0  -1.235424  0  -0.366052  -0.308064  0  3.621826  0
N  N104  1  0.03802059  0.35977388  0.05690529  1  0  -0.283968  0  3.461561  0  0  -0.216049  0  3.695582  0  0  -0.232593  0  3.710973  0  -1.303814  0  -0.374773  -0.204947  0  3.684999  0
N  N105  1  0.46198316  0.64022731  0.55690605  1  0  -0.283999  0  3.461627  0  0  -0.216076  0  3.695663  0  0  -0.23262  0  3.711053  0  -1.303786  0  -0.374797  -0.204955  0  3.685117  0
N  N106  1  0.53801921  0.14022710  0.94309623  1  0  -0.283951  0  3.461621  0  0  -0.216015  0  3.695629  0  0  -0.23256  0  3.71102  0  -1.303805  0  -0.374713  -0.204891  0  3.685081  0
N  N107  1  0.96198434  0.85977409  0.44309547  1  0  -0.283928  0  3.461575  0  0  -0.216011  0  3.69561  0  0  -0.232555  0  3.711002  0  -1.30379  0  -0.374746  -0.20491  0  3.685029  0
O  O108  1  0.68818272  0.03228100  0.68101027  1  0  -0.672241  0  2.078051  0  0  -0.594444  0  2.351371  0  0  -0.622381  0  2.333644  0  -1.185306  0  -0.336411  -0.574835  0  2.362765  0
O  O109  1  0.81181827  0.96771863  0.18100951  1  0  -0.672237  0  2.078062  0  0  -0.594405  0  2.351364  0  0  -0.622336  0  2.333625  0  -1.185273  0  -0.33639  -0.574795  0  2.362754  0
O  O110  1  0.18818154  0.46771842  0.31898973  1  0  -0.672178  0  2.078149  0  0  -0.59438  0  2.351402  0  0  -0.622306  0  2.333654  0  -1.185278  0  -0.336389  -0.574771  0  2.362791  0
O  O111  1  0.31181837  0.53228043  0.81898897  1  0  -0.672286  0  2.07804  0  0  -0.594483  0  2.351343  0  0  -0.622421  0  2.333612  0  -1.185315  0  -0.336411  -0.574877  0  2.362738  0
O  O112  1  0.49834014  0.06837461  0.55801141  1  0  -0.616559  0  1.924692  0  0  -0.561115  0  2.148953  0  0  -0.585209  0  2.141819  0  -1.189055  0  -0.310688  -0.544435  0  2.153407  0
O  O113  1  0.00166104  0.93162580  0.05801141  1  0  -0.616497  0  1.924693  0  0  -0.561047  0  2.14897  0  0  -0.585147  0  2.141839  0  -1.189098  0  -0.310671  -0.544371  0  2.153433  0
O  O114  1  0.99833748  0.43162482  0.44198859  1  0  -0.616407  0  1.924895  0  0  -0.561001  0  2.149115  0  0  -0.585096  0  2.14198  0  -1.189105  0  -0.310616  -0.544322  0  2.153575  0
O  O115  1  0.50165966  0.56837481  0.94198783  1  0  -0.616532  0  1.924658  0  0  -0.561098  0  2.148923  0  0  -0.585197  0  2.141797  0  -1.189049  0  -0.310702  -0.544415  0  2.153372  0
O  O116  1  0.85376636  0.16539742  0.31791708  1  0  -0.665893  0  2.037144  0  0  -0.593345  0  2.315493  0  0  -0.620852  0  2.298739  0  -1.191575  0  -0.342601  -0.574167  0  2.326397  0
O  O117  1  0.64623591  0.83460298  0.81791632  1  0  -0.665857  0  2.037224  0  0  -0.593316  0  2.315531  0  0  -0.620826  0  2.298781  0  -1.191626  0  -0.342595  -0.574137  0  2.326438  0
O  O118  1  0.35376646  0.33460278  0.68208368  1  0  -0.665866  0  2.037105  0  0  -0.593341  0  2.315467  0  0  -0.620845  0  2.298705  0  -1.191631  0  -0.342616  -0.574164  0  2.326373  0
O  O119  1  0.14623088  0.66539529  0.18208140  1  0  -0.666014  0  2.037326  0  0  -0.593432  0  2.315647  0  0  -0.620942  0  2.298897  0  -1.192038  0  -0.342662  -0.574253  0  2.326552  0
O  O120  1  0.91801349  0.06842287  0.45668315  1  0  -0.639113  0  1.943809  0  0  -0.585519  0  2.166932  0  0  -0.608525  0  2.157075  0  -1.21274  0  -0.324968  -0.569478  0  2.173256  0
O  O121  1  0.58198108  0.93157521  0.95668087  1  0  -0.639068  0  1.943802  0  0  -0.585487  0  2.166891  0  0  -0.608495  0  2.157032  0  -1.212718  0  -0.324971  -0.569432  0  2.173222  0
O  O122  1  0.41802001  0.43157578  0.54331913  1  0  -0.639087  0  1.943781  0  0  -0.58548  0  2.166883  0  0  -0.608488  0  2.157027  0  -1.212706  0  -0.324967  -0.569426  0  2.173209  0
O  O123  1  0.08198246  0.56842151  0.04331609  1  0  -0.639199  0  1.943741  0  0  -0.585609  0  2.166879  0  0  -0.608615  0  2.157024  0  -1.212775  0  -0.325011  -0.569567  0  2.173202  0
