# generated using pymatgen
data_Hf3H23(C3O)16
_symmetry_space_group_name_H-M   'P 1'
_cell_length_a   17.95619935
_cell_length_b   22.51382543
_cell_length_c   22.62904045
_cell_angle_alpha   65.14733029
_cell_angle_beta   89.26858110
_cell_angle_gamma   88.63169218
_symmetry_Int_Tables_number   1
_chemical_formula_structural   Hf3H23(C3O)16
_chemical_formula_sum   'Hf6 H46 C96 O32'
_cell_volume   8298.48361235
_cell_formula_units_Z   2
loop_
 _symmetry_equiv_pos_site_id
 _symmetry_equiv_pos_as_xyz
  1  'x, y, z'
loop_
 _atom_site_type_symbol
 _atom_site_label
 _atom_site_symmetry_multiplicity
 _atom_site_fract_x
 _atom_site_fract_y
 _atom_site_fract_z
 _atom_site_occupancy
 _atom_site_pbe_bader_charge
 _atom_site_pbe_bader_spin_density
 _atom_site_pbe_cm5_charge
 _atom_site_pbe_ddec_charge
 _atom_site_pbe_ddec_spin_density
 _atom_site_pbe_ddec_sum_bond_order
 _atom_site_pbe_magmom
Hf  Hf0  1  0.21197544  0.97176199  0.03929950  1  2.599109  0  1.458088  2.091858  0  3.394585  0
Hf  Hf1  1  0.94609854  0.94668718  0.03081919  1  2.59708  0  1.456323  2.086122  0  3.407256  0
Hf  Hf2  1  0.08581371  0.85824422  0.13638846  1  2.586084  0  1.434505  2.131866  0  3.452771  0
Hf  Hf3  1  0.07319390  0.06112396  0.93394301  1  2.595911  0  1.436134  2.113324  0  3.386311  0
Hf  Hf4  1  0.10344264  0.89516543  0.96414618  1  2.581354  0  1.398588  2.125802  0  3.410953  0
Hf  Hf5  1  0.05459737  0.02918967  0.09972731  1  2.602752  0  1.425149  2.139637  0  3.364011  0
H  H6  1  0.73662329  0.01712606  0.74303217  1  0.106743  0  0.115151  0.125824  0  0.978646  0
H  H7  1  0.60698203  0.17326588  0.59828176  1  0.092142  0  0.113347  0.123015  0  0.980165  0
H  H8  1  0.74525413  0.21350141  0.73111552  1  0.098673  0  0.115972  0.1268  0  0.977074  0
H  H9  1  0.45769080  0.72565838  0.97662211  1  0.14328  0  0.115116  0.126068  0  0.978203  0
H  H10  1  0.57135589  0.73099273  0.80523282  1  0.065101  0  0.111711  0.122077  0  0.983865  0
H  H11  1  0.45447549  0.90340668  0.79911701  1  0.092337  0  0.11537  0.12642  0  0.97782  0
H  H12  1  0.70425287  0.19322831  0.09631519  1  0.083101  0  0.11552  0.126693  0  0.977201  0
H  H13  1  0.57175073  0.18427621  0.26034514  1  0.099231  0  0.111531  0.122321  0  0.984265  0
H  H14  1  0.69959430  0.01453114  0.27268911  1  0.116713  0  0.116193  0.127447  0  0.976035  0
H  H15  1  0.62698796  0.06621237  0.48705620  1  0.129344  0  0.11439  0.126224  0  0.976131  0
H  H16  1  0.51387276  0.84673511  0.57916479  1  0.084677  0  0.114568  0.126611  0  0.975744  0
H  H17  1  0.41012740  0.89102768  0.31978830  1  0.093384  0  0.113807  0.123742  0  0.981027  0
H  H18  1  0.54095566  0.74116244  0.46993477  1  0.119898  0  0.113669  0.122874  0  0.979388  0
H  H19  1  0.41378424  0.69263230  0.33643529  1  0.11578  0  0.117256  0.128065  0  0.975077  0
H  H20  1  0.40568341  0.25639311  0.96433322  1  0.106938  0  0.115031  0.125665  0  0.978442  0
H  H21  1  0.55380573  0.38947000  0.82022198  1  0.090582  0  0.114012  0.123982  0  0.978814  0
H  H22  1  0.40855296  0.26914134  0.76838355  1  0.10052  0  0.115071  0.125206  0  0.979309  0
H  H23  1  0.72051079  0.66347058  0.29467590  1  0.083803  0  0.117357  0.128393  0  0.973381  0
H  H24  1  0.60603895  0.52135699  0.24956570  1  0.121676  0  0.111971  0.121029  0  0.982297  0
H  H25  1  0.71999129  0.68014375  0.09751326  1  0.111458  0  0.114219  0.124542  0  0.980065  0
H  H26  1  0.65603876  0.40114958  0.47959712  1  0.091492  0  0.1154  0.127367  0  0.97564  0
H  H27  1  0.50137752  0.51064520  0.59016338  1  0.096075  0  0.115581  0.127541  0  0.974616  0
H  H28  1  0.52167167  0.50430593  0.92358100  1  0.085774  0  0.114492  0.125963  0  0.976357  0
H  H29  1  0.62930769  0.41268396  0.14568575  1  0.060203  0  0.114275  0.126211  0  0.976557  0
H  H30  1  0.19220954  0.99863696  0.90009037  1  0.647522  0  0.337912  0.441652  0  0.830156  0
H  H31  1  0.99759357  0.81194596  0.07113378  1  0.624405  0  0.331142  0.431251  0  0.845867  0
H  H32  1  0.94894876  0.08508848  0.99312882  1  0.615793  0  0.345565  0.436532  0  0.824091  0
H  H33  1  0.17426164  0.95079317  0.17072608  1  0.606801  0  0.336149  0.422742  0  0.850276  0
H  H34  1  0.08113808  0.78122877  0.98431897  1  0.646635  0  0.301015  0.399122  0  0.925454  0
H  H35  1  0.00551436  0.83680581  0.23828782  1  0.621026  0  0.303713  0.399481  0  0.90935  0
H  H36  1  0.99633951  0.98057746  0.22300633  1  0.590394  0  0.321897  0.403321  0  0.883627  0
H  H37  1  0.09920212  0.91884426  0.84372286  1  0.588531  0  0.289426  0.390762  0  0.913106  0
H  H38  1  0.04248371  0.11015925  0.80499507  1  0.651856  0  0.341257  0.425125  0  0.861933  0
H  H39  1  0.08547909  0.18829166  0.89743008  1  0.579082  0  0.294668  0.383113  0  0.924939  0
H  H40  1  0.07216983  0.15510183  0.05965696  1  0.635963  0  0.321683  0.418125  0  0.874185  0
H  H41  1  0.97361444  0.85127739  0.94238677  1  0.616776  0  0.274614  0.390967  0  0.935388  0
H  H42  1  0.85191274  0.92058916  0.94324757  1  0.636055  0  0.332984  0.410053  0  0.873595  0
H  H43  1  0.31658750  0.05076336  0.05602130  1  0.632719  0  0.337328  0.421634  0  0.866293  0
H  H44  1  0.13308258  0.06213831  0.17928636  1  0.601115  0  0.292846  0.395515  0  0.905312  0
H  H45  1  0.12634813  0.13117771  0.80800225  1  0.643583  0  0.345548  0.426946  0  0.850449  0
H  H46  1  0.85770448  0.86207770  0.01327547  1  0.633852  0  0.318624  0.400172  0  0.914479  0
H  H47  1  0.07164366  0.73074189  0.20706096  1  0.623465  0  0.306787  0.407715  0  0.881851  0
H  H48  1  0.17024941  0.77086574  0.99694139  1  0.633567  0  0.334893  0.414387  0  0.86423  0
H  H49  1  0.04228483  0.15329434  0.99132414  1  0.635001  0  0.288965  0.400215  0  0.939183  0
H  H50  1  0.04676217  0.91647085  0.22069832  1  0.643124  0  0.277743  0.403875  0  0.943748  0
H  H51  1  0.32641351  0.97995652  0.11465170  1  0.64259  0  0.335785  0.41641  0  0.872971  0
C  C52  1  0.74645373  0.11299467  0.74272703  1  0.019829  0  0.003113  0.130227  0  4.151038  0
C  C53  1  0.71846858  0.06827638  0.72046623  1  0.019062  0  -0.067635  -0.162645  0  3.849769  0
C  C54  1  0.66840594  0.09002693  0.66799688  1  0.103989  0  0.004216  0.14772  0  4.148101  0
C  C55  1  0.64573013  0.15632939  0.63894185  1  -0.003509  0  -0.066364  -0.158288  0  3.842191  0
C  C56  1  0.67252042  0.20094525  0.66178071  1  0.012158  0  0.003872  0.146848  0  4.150015  0
C  C57  1  0.72332549  0.17913296  0.71367252  1  0.044448  0  -0.067647  -0.161194  0  3.846067  0
C  C58  1  0.45120576  0.81811658  0.89145746  1  0.105167  0  0.005234  0.135382  0  4.140344  0
C  C59  1  0.47471617  0.75257333  0.92609707  1  -0.024502  0  -0.067262  -0.15993  0  3.842795  0
C  C60  1  0.51817164  0.72086803  0.89531639  1  -0.002265  0  0.002559  0.144277  0  4.138684  0
C  C61  1  0.53837613  0.75547915  0.82945601  1  0.031773  0  -0.071171  -0.16675  0  3.847855  0
C  C62  1  0.51611605  0.82150349  0.79463324  1  0.136869  0  0.003056  0.143208  0  4.135574  0
C  C63  1  0.47285814  0.85272893  0.82607595  1  -0.030981  0  -0.067636  -0.16021  0  3.840363  0
C  C64  1  0.70722776  0.10040371  0.18122298  1  0.048163  0  0.005793  0.135292  0  4.141809  0
C  C65  1  0.68332887  0.16568429  0.14551539  1  0.045642  0  -0.067203  -0.160904  0  3.841002  0
C  C66  1  0.63430055  0.19622355  0.17376229  1  0.024948  0  0.003224  0.144989  0  4.134401  0
C  C67  1  0.60898722  0.16062803  0.23804829  1  0.062239  0  -0.071279  -0.16808  0  3.848343  0
C  C68  1  0.63188121  0.09493161  0.27382015  1  0.121493  0  0.00223  0.144069  0  4.137279  0
C  C69  1  0.68080124  0.06496084  0.24495014  1  -0.020593  0  -0.067049  -0.160323  0  3.842482  0
C  C70  1  0.59295244  0.98506624  0.57486441  1  0.088701  0  0.008591  0.099157  0  4.07558  0
C  C71  1  0.56058603  0.92181184  0.60184172  1  0.074365  0  0.009766  0.102584  0  4.074443  0
C  C72  1  0.53906177  0.89477167  0.55916891  1  0.035606  0  -0.067558  -0.155477  0  3.880019  0
C  C73  1  0.54779455  0.92792175  0.49129964  1  0.138803  0  0.009323  0.100536  0  4.073451  0
C  C74  1  0.58021317  0.99115173  0.46440678  1  0.086568  0  0.008793  0.100422  0  4.074866  0
C  C75  1  0.60168061  0.01821170  0.50706154  1  -0.004996  0  -0.067654  -0.154276  0  3.883384  0
C  C76  1  0.40667344  0.79381321  0.32223577  1  0.051241  0  0.004067  0.131607  0  4.145687  0
C  C77  1  0.43019302  0.84049289  0.34387363  1  0.090273  0  -0.067598  -0.162327  0  3.847125  0
C  C78  1  0.47829096  0.82148719  0.39757856  1  0.047262  0  0.004319  0.145429  0  4.143144  0
C  C79  1  0.50357507  0.75594894  0.42845765  1  -0.036281  0  -0.066195  -0.156455  0  3.840315  0
C  C80  1  0.48124332  0.70950651  0.40630902  1  0.114502  0  0.00365  0.145532  0  4.153047  0
C  C81  1  0.43232698  0.72852762  0.35328483  1  -0.01794  0  -0.064463  -0.156571  0  3.843264  0
C  C82  1  0.40130162  0.25736023  0.86825514  1  0.049327  0  0.00253  0.130329  0  4.150284  0
C  C83  1  0.42822114  0.27730067  0.91504958  1  -0.009973  0  -0.067292  -0.161913  0  3.846127  0
C  C84  1  0.48293033  0.32540022  0.89772290  1  0.117277  0  0.003832  0.147356  0  4.143891  0
C  C85  1  0.51139453  0.35223872  0.83377534  1  0.01483  0  -0.065835  -0.157913  0  3.840138  0
C  C86  1  0.48527112  0.33190732  0.78714498  1  0.107309  0  0.004233  0.147497  0  4.151796  0
C  C87  1  0.42978734  0.28454184  0.80447067  1  -0.007323  0  -0.067556  -0.160984  0  3.850961  0
C  C88  1  0.72503712  0.67816097  0.19393854  1  0.119426  0  0.004614  0.139919  0  4.136751  0
C  C89  1  0.70307562  0.64533863  0.25947706  1  -0.029605  0  -0.062699  -0.150872  0  3.833211  0
C  C90  1  0.65996285  0.58887982  0.27976081  1  0.043317  0  0.001053  0.138475  0  4.154783  0
C  C91  1  0.63900745  0.56535475  0.23404788  1  -0.018487  0  -0.066955  -0.157147  0  3.84708  0
C  C92  1  0.66010839  0.59807611  0.16822288  1  0.10776  0  0.002294  0.141073  0  4.14618  0
C  C93  1  0.70286935  0.65482906  0.14821899  1  0.00977  0  -0.066365  -0.15903  0  3.842455  0
C  C94  1  0.60256190  0.38994746  0.56933080  1  0.105481  0  0.007627  0.101705  0  4.083132  0
C  C95  1  0.55823396  0.42133397  0.60104108  1  0.211617  0  0.008849  0.098372  0  4.086564  0
C  C96  1  0.53560295  0.48677697  0.56606286  1  -0.07889  0  -0.068051  -0.156374  0  3.892639  0
C  C97  1  0.55487072  0.52186011  0.50047855  1  0.052246  0  0.009558  0.100181  0  4.082896  0
C  C98  1  0.59909387  0.49046415  0.46859201  1  0.110211  0  0.010183  0.106281  0  4.078245  0
C  C99  1  0.62192611  0.42507846  0.50370786  1  0.04928  0  -0.068347  -0.15889  0  3.890868  0
C  C100  1  0.56560435  0.52760333  0.99915702  1  0.115599  0  0.008498  0.100525  0  4.074822  0
C  C101  1  0.59628605  0.50090654  0.06327338  1  0.036224  0  0.009902  0.101032  0  4.073765  0
C  C102  1  0.60528377  0.43264527  0.09706360  1  0.118999  0  -0.068062  -0.155105  0  3.880343  0
C  C103  1  0.58554588  0.38942155  0.07002499  1  0.102968  0  0.009121  0.099539  0  4.073999  0
C  C104  1  0.55455706  0.41618038  0.00608203  1  0.127631  0  0.008077  0.100477  0  4.07169  0
C  C105  1  0.54575170  0.48440136  0.97218503  1  0.024264  0  -0.06826  -0.155633  0  3.882514  0
C  C106  1  0.28933956  0.89166176  0.97007366  1  1.676319  0  0.247489  0.706997  0  4.165781  0
C  C107  1  0.24542130  0.11565655  0.92281742  1  1.68562  0  0.244813  0.716627  0  4.17434  0
C  C108  1  0.25848897  0.84708266  0.17316145  1  1.66632  0  0.24707  0.706243  0  4.184181  0
C  C109  1  0.86395628  0.83174838  0.15177480  1  1.700435  0  0.229608  0.687756  0  4.233918  0
C  C110  1  0.87549562  0.02532408  0.10948038  1  1.662481  0  0.251559  0.710335  0  4.162694  0
C  C111  1  0.89987553  0.05552135  0.88836019  1  1.673306  0  0.24686  0.713035  0  4.169741  0
C  C112  1  0.77103754  0.73349148  0.17594355  1  -0.153182  0  -0.03563  -0.055364  0  4.103374  0
C  C113  1  0.81194955  0.77940946  0.16481294  1  -0.192747  0  -0.046336  -0.194833  0  3.969892  0
C  C114  1  0.63857131  0.57065024  0.12504770  1  -0.357464  0  -0.036012  -0.092269  0  4.08364  0
C  C115  1  0.61798971  0.54086413  0.09410469  1  0.032595  0  -0.040883  -0.096684  0  4.121289  0
C  C116  1  0.62003100  0.52499463  0.40266058  1  -0.463526  0  -0.042333  -0.10188  0  4.128457  0
C  C117  1  0.63852519  0.55496834  0.34591372  1  0.140696  0  -0.032886  -0.086541  0  4.09068  0
C  C118  1  0.34517938  0.20973993  0.88507662  1  -0.611585  0  -0.018995  -0.016984  0  4.08725  0
C  C119  1  0.29741535  0.16848177  0.89914910  1  0.297537  0  -0.051053  -0.219575  0  3.971765  0
C  C120  1  0.50855451  0.35003583  0.94197010  1  -0.08599  0  -0.03905  -0.100784  0  4.087362  0
C  C121  1  0.53161856  0.37687958  0.97486485  1  -0.262235  0  -0.037641  -0.089723  0  4.117694  0
C  C122  1  0.51305172  0.36077262  0.72250516  1  0.031891  0  -0.037746  -0.097345  0  4.095403  0
C  C123  1  0.53561698  0.38742232  0.66661144  1  -0.39813  0  -0.039391  -0.092448  0  4.130671  0
C  C124  1  0.31167553  0.82357988  0.22566270  1  0.202209  0  -0.043929  -0.203528  0  3.953977  0
C  C125  1  0.35608356  0.81129542  0.26969759  1  -0.481157  0  -0.017066  -0.019491  0  4.075635  0
C  C126  1  0.52988756  0.58741548  0.46653591  1  0.181462  0  -0.040107  -0.094633  0  4.130501  0
C  C127  1  0.50721100  0.64376819  0.43824187  1  -0.472978  0  -0.034154  -0.092069  0  4.093966  0
C  C128  1  0.52407813  0.89698791  0.45204126  1  -0.291257  0  -0.03924  -0.093153  0  4.120777  0
C  C129  1  0.50149861  0.86544640  0.42355921  1  -0.063393  0  -0.036706  -0.095468  0  4.084156  0
C  C130  1  0.81082445  0.04814027  0.13317586  1  -0.047844  0  -0.037035  -0.190226  0  3.936081  0
C  C131  1  0.76118059  0.07146960  0.15447400  1  -0.252593  0  -0.0174  -0.020911  0  4.065537  0
C  C132  1  0.59325278  0.02631050  0.39666586  1  -0.1916  0  -0.040785  -0.097263  0  4.111998  0
C  C133  1  0.60883851  0.05895034  0.33952452  1  -0.161519  0  -0.03566  -0.092908  0  4.07749  0
C  C134  1  0.59848004  0.32114385  0.10563923  1  0.055997  0  -0.041518  -0.097516  0  4.112083  0
C  C135  1  0.61325111  0.26317340  0.13771091  1  -0.39296  0  -0.036168  -0.09363  0  4.077947  0
C  C136  1  0.35479989  0.86947796  0.94653535  1  0.029256  0  -0.040591  -0.193209  0  3.934534  0
C  C137  1  0.40174238  0.84736002  0.92149911  1  -0.310303  0  -0.020741  -0.027226  0  4.069743  0
C  C138  1  0.55296522  0.59580354  0.96332199  1  -0.521752  0  -0.040785  -0.096452  0  4.115944  0
C  C139  1  0.53869079  0.65378133  0.93086792  1  0.185642  0  -0.035598  -0.093122  0  4.079559  0
C  C140  1  0.53489617  0.85634566  0.72766299  1  0.007696  0  -0.035124  -0.091046  0  4.078088  0
C  C141  1  0.54839771  0.88716511  0.66976925  1  -0.344507  0  -0.041919  -0.099424  0  4.11354  0
C  C142  1  0.79924272  0.09216416  0.79387480  1  -0.513708  0  -0.017399  -0.015226  0  4.085243  0
C  C143  1  0.84553828  0.07584889  0.83694746  1  0.255731  0  -0.047934  -0.215926  0  3.972357  0
C  C144  1  0.64145161  0.04759627  0.64169627  1  -0.215701  0  -0.037781  -0.098338  0  4.090901  0
C  C145  1  0.61740004  0.01598944  0.61386722  1  -0.087027  0  -0.038074  -0.090747  0  4.123597  0
C  C146  1  0.64878011  0.26749131  0.63136551  1  -0.157457  0  -0.037113  -0.096768  0  4.095381  0
C  C147  1  0.62695964  0.32414724  0.60329354  1  -0.166445  0  -0.039185  -0.093917  0  4.129263  0
O  O148  1  0.29103693  0.01599052  0.09201949  1  -1.218925  0  -0.564129  -0.743648  0  2.064091  0
O  O149  1  0.29721349  0.93431632  0.99323988  1  -1.149508  0  -0.351744  -0.590728  0  2.251009  0
O  O150  1  0.27955397  0.89596292  0.12177380  1  -1.169201  0  -0.331641  -0.599538  0  2.297305  0
O  O151  1  0.18249514  0.12386256  0.89502230  1  -1.180859  0  -0.318878  -0.601805  0  2.265803  0
O  O152  1  0.19547552  0.82017811  0.18266321  1  -1.167984  0  -0.320865  -0.562865  0  2.238717  0
O  O153  1  0.26832647  0.06445571  0.97146579  1  -1.175697  0  -0.329798  -0.590594  0  2.286241  0
O  O154  1  0.22889853  0.86707684  0.96403866  1  -1.16137  0  -0.305761  -0.560927  0  2.27888  0
O  O155  1  0.14929951  0.89618005  0.05175222  1  -1.223933  0  -0.756489  -1.082616  0  2.20289  0
O  O156  1  0.16518795  0.99261911  0.93975848  1  -1.280516  0  -0.653416  -0.965075  0  2.279866  0
O  O157  1  0.14871570  0.95240076  0.13250710  1  -1.253413  0  -0.629104  -0.940822  0  2.192906  0
O  O158  1  0.12474400  0.03811879  0.02089291  1  -1.220512  0  -0.751953  -1.056361  0  2.14895  0
O  O159  1  0.04744556  0.15682272  0.92053367  1  -1.226548  0  -0.65625  -0.913776  0  1.938923  0
O  O160  1  0.12348588  0.78152080  0.01294258  1  -1.250264  0  -0.574593  -0.749617  0  2.039467  0
O  O161  1  0.02787683  0.96820780  0.96073837  1  -1.230109  0  -0.746286  -1.068565  0  2.142546  0
O  O162  1  0.01629435  0.85622881  0.05565559  1  -1.263199  0  -0.638017  -0.935775  0  2.185185  0
O  O163  1  0.01459455  0.94044457  0.10145542  1  -1.216067  0  -0.760527  -1.076563  0  2.228981  0
O  O164  1  0.98549284  0.04940440  0.00619999  1  -1.239215  0  -0.651529  -0.95337  0  2.306042  0
O  O165  1  0.05663784  0.76564983  0.16590740  1  -1.252462  0  -0.689608  -0.937104  0  1.847431  0
O  O166  1  0.89712656  0.83746324  0.19662578  1  -1.129932  0  -0.292219  -0.519239  0  2.039962  0
O  O167  1  0.87174163  0.86911794  0.08919689  1  -1.20298  0  -0.37939  -0.662521  0  2.328475  0
O  O168  1  0.11843446  0.08064911  0.13394260  1  -1.250041  0  -0.692333  -0.95619  0  1.850622  0
O  O169  1  0.86531849  0.99363264  0.07525925  1  -1.135083  0  -0.325  -0.563912  0  2.257489  0
O  O170  1  0.05505307  0.85581314  0.22773636  1  -1.252797  0  -0.640353  -0.879435  0  1.962461  0
O  O171  1  0.04405567  0.97087938  0.20786288  1  -1.238371  0  -0.606826  -0.831485  0  2.059761  0
O  O172  1  0.03367202  0.13869401  0.04041519  1  -1.251802  0  -0.598835  -0.780627  0  2.068372  0
O  O173  1  0.93793658  0.04078930  0.12506018  1  -1.162034  0  -0.333958  -0.587566  0  2.277519  0
O  O174  1  0.88599040  0.88727656  0.97292743  1  -1.23632  0  -0.551298  -0.737176  0  2.065772  0
O  O175  1  0.09192868  0.09485509  0.82382370  1  -1.228713  0  -0.562038  -0.740911  0  2.084084  0
O  O176  1  0.87876036  0.01268730  0.94384973  1  -1.18059  0  -0.333308  -0.592658  0  2.26019  0
O  O177  1  0.96344484  0.08168488  0.87429234  1  -1.176157  0  -0.31477  -0.578606  0  2.268038  0
O  O178  1  0.13012716  0.93447021  0.86890326  1  -1.221497  0  -0.695486  -0.93479  0  1.860325  0
O  O179  1  0.02638974  0.84572772  0.93523974  1  -1.284403  0  -0.687418  -0.970055  0  1.863675  0
